@<TRIPOS>MOLECULE
dna.pdb
 1561 1754 0 0 0
SMALL
GASTEIGER

@<TRIPOS>ATOM
      1  O5'      -12.2030   -9.1240  -14.0620 O.3     1  DA1        -0.2176
      2  C5'      -12.6500  -10.5020  -13.9260 C.3     1  DA1         0.2140
      3  C4'      -12.1840  -11.1770  -15.2160 C.3     1  DA1         0.1774
      4  O4'      -12.7720  -10.4260  -16.2900 O.3     1  DA1        -0.3348
      5  C3'      -10.6630  -10.9580  -15.4330 C.3     1  DA1         0.1556
      6  O3'       -9.9710  -11.9330  -14.6360 O.3     1  DA1        -0.3139
      7  C2'      -10.6350  -11.1320  -16.9650 C.3     1  DA1         0.0835
      8  C1'      -11.8410  -10.2840  -17.3740 C.3     1  DA1         0.1973
      9  N9       -11.7640   -8.7250  -17.4860 N.pl3   1  DA1        -0.2477
     10  C8       -11.9530   -7.7410  -16.5500 C.2     1  DA1         0.1667
     11  N7       -11.5750   -6.5510  -16.9500 N.2     1  DA1        -0.2209
     12  C5       -11.1050   -6.7670  -18.2360 C.2     1  DA1         0.1899
     13  C6       -10.5640   -5.9010  -19.2030 C.2     1  DA1         0.4337
     14  N6       -10.3990   -4.5900  -19.0130 N.pl3   1  DA1         0.2179
     15  N1       -10.1930   -6.4370  -20.3860 N.2     1  DA1        -0.0082
     16  C2       -10.3600   -7.7510  -20.5760 C.2     1  DA1         0.3277
     17  N3       -10.8570   -8.6640  -19.7450 N.pl3   1  DA1        -0.1370
     18  C4       -11.2150   -8.1010  -18.5790 C.3     1  DA1         0.2268
     19  P         -8.3460  -11.9360  -14.4850 P.3     2  DG2         0.2141
     20  OP1       -8.2000  -12.8750  -13.3450 O.3     2  DG2        -0.4373
     21  OP2       -7.3350  -10.8850  -14.7510 O.2     2  DG2        -0.5172
     22  O5'       -8.4960  -12.7210  -15.8740 O.3     2  DG2        -0.3113
     23  C5'       -7.5890  -13.7080  -16.3250 C.3     2  DG2         0.1836
     24  C4'       -7.7020  -13.8720  -17.8130 C.3     2  DG2         0.1992
     25  O4'       -8.4610  -12.7730  -18.3740 O.3     2  DG2        -0.3301
     26  C3'       -6.3770  -13.7790  -18.5350 C.3     2  DG2         0.2381
     27  O3'       -5.6350  -14.9750  -18.4760 O.3     2  DG2        -0.2491
     28  C2'       -6.7710  -13.3570  -19.9380 C.3     2  DG2         0.1137
     29  C1'       -7.9100  -12.3950  -19.6220 C.3     2  DG2         0.2120
     30  N9        -7.5270  -11.0390  -19.7170 N.ar    2  DG2        -0.2713
     31  C8        -7.9310  -10.2150  -18.6950 C.ar    2  DG2         0.1816
     32  N7        -7.8310   -8.9470  -18.9850 N.ar    2  DG2        -0.2173
     33  C5        -7.3320   -8.9280  -20.2740 C.ar    2  DG2         0.1748
     34  C6        -7.0110   -7.8390  -21.1240 C.ar    2  DG2         0.3023
     35  O6        -7.1120   -6.6280  -20.8890 O.2     2  DG2        -0.2633
     36  N1        -6.5290   -8.2660  -22.3580 N.ar    2  DG2        -0.1709
     37  C2        -6.3760   -9.5810  -22.7280 C.ar    2  DG2         0.2606
     38  N2        -5.8970   -9.7960  -23.9610 N.pl3   2  DG2        -0.0859
     39  N3        -6.6690  -10.6030  -21.9490 N.ar    2  DG2        -0.1918
     40  C4        -7.1380  -10.2120  -20.7450 C.ar    2  DG2         0.1722
     41  P         -4.6590  -14.6470  -17.9720 P.3     3  DC3         0.4833
     42  OP1       -3.4550  -15.2810  -17.3820 O.2     3  DC3        -0.2269
     43  OP2       -5.3770  -13.5750  -17.2380 O.3     3  DC3        -0.2491
     44  O5'       -4.2070  -14.0840  -19.4060 O.3     3  DC3        -0.2704
     45  C5'       -3.2520  -14.8030  -20.1700 C.3     3  DC3         0.1856
     46  C4'       -2.6490  -13.9750  -21.3030 C.3     3  DC3         0.1748
     47  O4'       -3.6120  -13.0520  -21.8580 O.3     3  DC3        -0.3327
     48  C3'       -1.4660  -13.0820  -20.9340 C.3     3  DC3         0.1558
     49  O3'       -0.2770  -13.8040  -20.8390 O.3     3  DC3        -0.3138
     50  C2'       -1.4150  -12.1370  -22.1150 C.3     3  DC3         0.0866
     51  C1'       -2.9130  -11.9380  -22.3900 C.3     3  DC3         0.2106
     52  N1        -3.3770  -10.6940  -21.7510 N.ar    3  DC3        -0.2556
     53  C2        -3.3420   -9.4990  -22.4800 C.ar    3  DC3         0.3531
     54  O2        -3.0570   -9.5440  -23.6890 O.2     3  DC3        -0.2443
     55  N3        -3.6180   -8.3330  -21.8480 N.ar    3  DC3        -0.1739
     56  C4        -3.9180   -8.3330  -20.5490 C.ar    3  DC3         0.1759
     57  N4        -4.1820   -7.1600  -19.9690 N.pl3   3  DC3        -0.1070
     58  C5        -3.9580   -9.5330  -19.7930 C.ar    3  DC3         0.0566
     59  C6        -3.6860  -10.6820  -20.4200 C.ar    3  DC3         0.0849
     60  P          1.1430  -13.0060  -20.6470 P.3     4  DC4         0.2141
     61  OP1        2.2990  -13.9620  -20.6970 O.2     4  DC4        -0.5172
     62  OP2        0.7450  -12.2290  -19.4200 O.3     4  DC4        -0.4373
     63  O5'        1.3290  -11.9080  -21.6980 O.3     4  DC4        -0.3114
     64  C5'        2.2080  -12.3500  -22.8180 C.3     4  DC4         0.1811
     65  C4'        2.2270  -11.2500  -24.0510 C.3     4  DC4         0.1744
     66  O4'        0.6070  -10.8290  -24.4420 O.3     4  DC4        -0.3348
     67  C3'        2.8530  -10.1030  -23.6150 C.3     4  DC4         0.1555
     68  O3'        4.1920  -10.3120  -24.0380 O.3     4  DC4        -0.3139
     69  C2'        2.0530   -9.0790  -24.4590 C.3     4  DC4         0.0836
     70  C1'        0.5700   -9.5010  -24.5610 C.3     4  DC4         0.1999
     71  N1         0.0150   -8.6750  -23.5530 N.pl3   4  DC4        -0.2132
     72  C2        -0.5220   -7.4150  -23.8390 C.2     4  DC4         0.4331
     73  O2        -0.2590   -6.8870  -24.9330 O.2     4  DC4        -0.2850
     74  N3        -1.3100   -6.8100  -22.9180 N.2     4  DC4         0.0237
     75  C4        -1.5640   -7.4140  -21.7570 C.2     4  DC4         0.4172
     76  N4        -2.3460   -6.7790  -20.8810 N.pl3   4  DC4         0.2162
     77  C5        -1.0290   -8.6910  -21.4480 C.2     4  DC4         0.0937
     78  C6        -0.2520   -9.2850  -22.3600 C.3     4  DC4         0.1340
     79  P          5.2750   -9.6370  -23.2910 P.3     5  DT5         0.2141
     80  OP1        6.6740   -9.8570  -23.7110 O.2     5  DT5        -0.5172
     81  OP2        4.9610   -9.6530  -21.8380 O.3     5  DT5        -0.4373
     82  O5'        4.7920   -8.2420  -23.8790 O.3     5  DT5        -0.3114
     83  C5'        5.1400   -7.8770  -25.1990 C.3     5  DT5         0.1811
     84  C4'        4.9310   -6.3980  -25.4060 C.3     5  DT5         0.1746
     85  O4'        3.5180   -6.1350  -25.5480 O.3     5  DT5        -0.3327
     86  C3'        5.3710   -5.4850  -24.2720 C.3     5  DT5         0.1558
     87  O3'        6.7570   -5.1750  -24.3190 O.3     5  DT5        -0.3138
     88  C2'        4.4940   -4.2590  -24.4740 C.3     5  DT5         0.0866
     89  C1'        3.1950   -4.8860  -24.9670 C.3     5  DT5         0.2106
     90  N1         2.2070   -5.1150  -23.9550 N.ar    5  DT5        -0.2559
     91  C2         1.5010   -3.9970  -23.5560 C.ar    5  DT5         0.3545
     92  O2         1.5690   -2.9270  -24.1340 O.2     5  DT5        -0.2443
     93  N3         0.7070   -4.1750  -22.4490 N.ar    5  DT5        -0.1533
     94  C4         0.5520   -5.3340  -21.7170 C.ar    5  DT5         0.2804
     95  O4        -0.2000   -5.3400  -20.7450 O.2     5  DT5        -0.2654
     96  C5         1.3190   -6.4500  -22.1930 C.ar    5  DT5         0.0534
     97  C6         2.0990   -6.3050  -23.2680 C.ar    5  DT5         0.0824
     98  C7         1.2190   -7.7560  -21.4630 C.3     5  DT5         0.0377
     99  P          7.6020   -4.8970  -22.8750 P.3     6  DC6         0.2141
    100  OP1        9.0020   -5.0960  -23.2980 O.2     6  DC6        -0.5172
    101  OP2        7.1830   -5.2500  -21.4950 O.3     6  DC6        -0.4373
    102  O5'        7.0780   -3.3840  -23.1420 O.3     6  DC6        -0.3114
    103  C5'        7.5240   -2.6420  -24.2870 C.3     6  DC6         0.1811
    104  C4'        6.9930   -1.2190  -24.2950 C.3     6  DC6         0.1746
    105  O4'        5.5790   -1.2500  -24.2800 O.3     6  DC6        -0.3327
    106  C3'        7.3400   -0.3900  -23.0920 C.3     6  DC6         0.1558
    107  O3'        8.6020    0.1980  -23.2350 O.3     6  DC6        -0.3138
    108  C2'        6.2410    0.6390  -23.0390 C.3     6  DC6         0.0866
    109  C1'        5.0520   -0.1690  -23.5340 C.3     6  DC6         0.2106
    110  N1         4.2080   -0.9030  -22.3580 N.ar    6  DC6        -0.2556
    111  C2         3.2720   -0.1070  -21.6880 C.ar    6  DC6         0.3531
    112  O2         3.1250    1.0740  -22.0470 O.2     6  DC6        -0.2443
    113  N3         2.5560   -0.6450  -20.6720 N.ar    6  DC6        -0.1739
    114  C4         2.7470   -1.9170  -20.3220 C.ar    6  DC6         0.1759
    115  N4         2.0180   -2.4040  -19.3140 N.pl3   6  DC6        -0.1070
    116  C5         3.6910   -2.7400  -20.9880 C.ar    6  DC6         0.0566
    117  C6         4.3960   -2.2050  -21.9910 C.ar    6  DC6         0.0849
    118  P          9.3690    0.1360  -21.9180 P.3     7  DG7         0.2141
    119  OP1       10.7750    0.5370  -22.1500 O.2     7  DG7        -0.5172
    120  OP2        9.0600   -1.1740  -21.2990 O.3     7  DG7        -0.4373
    121  O5'        8.6390    1.1880  -20.9620 O.3     7  DG7        -0.3114
    122  C5'        8.8970    2.5790  -21.0570 C.3     7  DG7         0.1812
    123  C4'        7.8780    3.3740  -20.2810 C.3     7  DG7         0.1775
    124  O4'        6.5750    2.7680  -20.4550 O.3     7  DG7        -0.3326
    125  C3'        8.0580    3.4270  -18.7730 C.3     7  DG7         0.1859
    126  O3'        8.9800    4.4210  -18.3720 O.3     7  DG7        -0.2202
    127  C2'        6.6480    3.7170  -18.2870 C.3     7  DG7         0.0894
    128  C1'        5.8200    2.9080  -19.2740 C.3     7  DG7         0.2095
    129  N9         5.4860    1.6540  -18.8160 N.ar    7  DG7        -0.2713
    130  C8         6.0500    0.4780  -19.2470 C.ar    7  DG7         0.1816
    131  N7         5.5940   -0.5720  -18.6200 N.ar    7  DG7        -0.2173
    132  C5         4.6730   -0.0640  -17.7230 C.ar    7  DG7         0.1748
    133  C6         3.8550   -0.7200  -16.7680 C.ar    7  DG7         0.3023
    134  O6         3.7840   -1.9310  -16.5230 O.2     7  DG7        -0.2633
    135  N1         3.0620    0.1770  -16.0580 N.ar    7  DG7        -0.1709
    136  C2         3.0570    1.5390  -16.2460 C.ar    7  DG7         0.2606
    137  N2         2.2230    2.2400  -15.4660 N.pl3   7  DG7        -0.0859
    138  N3         3.8120    2.1630  -17.1280 N.ar    7  DG7        -0.1918
    139  C4         4.5910    1.3110  -17.8290 C.ar    7  DG7         0.1722
    140  P         10.2330    4.0250  -17.4980 P.3     8  DT8         0.4149
    141  OP1       11.0710    5.2300  -17.3310 O.3     8  DT8        -0.1481
    142  OP2       10.7080    2.7020  -17.0430 O.2     8  DT8        -0.2668
    143  O5'        8.8350    4.3250  -16.8240 O.3     8  DT8        -0.2177
    144  C5'        8.6070    5.5720  -16.2560 C.3     8  DT8         0.2140
    145  C4'        7.6010    5.3550  -15.1560 C.3     8  DT8         0.1776
    146  O4'        6.5980    4.3820  -15.5290 O.3     8  DT8        -0.3326
    147  C3'        8.1870    4.7340  -13.9250 C.3     8  DT8         0.1559
    148  O3'        8.9310    5.7460  -13.3440 O.3     8  DT8        -0.3138
    149  C2'        6.8420    4.5860  -13.2610 C.3     8  DT8         0.0866
    150  C1'        6.0130    3.9040  -14.3400 C.3     8  DT8         0.2106
    151  N1         6.1140    2.3800  -14.3450 N.ar    8  DT8        -0.2559
    152  C2         5.2850    1.6610  -13.5060 C.ar    8  DT8         0.3545
    153  O2         4.5440    2.1860  -12.6940 O.2     8  DT8        -0.2443
    154  N3         5.3550    0.2960  -13.6500 N.ar    8  DT8        -0.1533
    155  C4         6.1530   -0.4050  -14.5300 C.ar    8  DT8         0.2804
    156  O4         6.1050   -1.6330  -14.5430 O.2     8  DT8        -0.2654
    157  C5         6.9850    0.4120  -15.3660 C.ar    8  DT8         0.0534
    158  C6         6.9370    1.7420  -15.2470 C.ar    8  DT8         0.0824
    159  C7         7.8900   -0.2580  -16.3570 C.3     8  DT8         0.0377
    160  P          9.7870    5.3670  -11.9270 P.3     9  DC9         0.2141
    161  OP1       10.8560    6.1910  -11.3170 O.3     9  DC9        -0.4373
    162  OP2       10.1100    4.2240  -12.8100 O.2     9  DC9        -0.5172
    163  O5'        8.9380    4.6900  -10.7520 O.3     9  DC9        -0.3114
    164  C5'        8.7140    5.3650   -9.5230 C.3     9  DC9         0.1811
    165  C4'        7.3900    4.9560   -8.9290 C.3     9  DC9         0.1746
    166  O4'        6.6250    4.2770   -9.9580 O.3     9  DC9        -0.3327
    167  C3'        7.4200    3.9560   -7.7810 C.3     9  DC9         0.1558
    168  O3'        7.6610    4.5630   -6.5230 O.3     9  DC9        -0.3138
    169  C2'        6.0350    3.3380   -7.8700 C.3     9  DC9         0.0866
    170  C1'        5.8330    3.2680   -9.3820 C.3     9  DC9         0.2106
    171  N1         6.2370    1.8720   -9.8090 N.ar    9  DC9        -0.2556
    172  C2         5.4850    0.7480   -9.4500 C.ar    9  DC9         0.3531
    173  O2         4.5900    0.8740   -8.5960 O.2     9  DC9        -0.2443
    174  N3         5.7540   -0.4420  -10.0390 N.ar    9  DC9        -0.1739
    175  C4         6.7250   -0.5310  -10.9490 C.ar    9  DC9         0.1759
    176  N4         6.9540   -1.7240  -11.5030 N.pl3   9  DC9        -0.1070
    177  C5         7.4980    0.5960  -11.3270 C.ar    9  DC9         0.0566
    178  C6         7.2290    1.7690  -10.7430 C.ar    9  DC9         0.0849
    179  P          8.1690    3.6970   -5.1980 P.3    10  DT10        0.2141
    180  OP1        8.0510    4.8330   -4.2220 O.3    10  DT10       -0.4373
    181  OP2        9.4860    3.0000   -5.3760 O.2    10  DT10       -0.5172
    182  O5'        7.0540    2.6170   -4.8480 O.3    10  DT10       -0.3114
    183  C5'        5.7400    3.0540   -4.4780 C.3    10  DT10        0.1811
    184  C4'        4.8920    1.8720   -4.1550 C.3    10  DT10        0.1746
    185  O4'        4.6930    1.1290   -5.3890 O.3    10  DT10       -0.3327
    186  C3'        5.5570    0.8670   -3.2370 C.3    10  DT10        0.1558
    187  O3'        5.5500    1.2310   -1.8450 O.3    10  DT10       -0.3138
    188  C2'        4.7710   -0.3950   -3.5540 C.3    10  DT10        0.0866
    189  C1'        4.6250   -0.2610   -5.0790 C.3    10  DT10        0.2106
    190  N1         5.8130   -0.9430   -5.7880 N.ar   10  DT10       -0.2559
    191  C2         5.6560   -2.2980   -6.0100 C.ar   10  DT10        0.3545
    192  O2         4.6430   -2.9060   -5.7130 O.2    10  DT10       -0.2443
    193  N3         6.7330   -2.9190   -6.5930 N.ar   10  DT10       -0.1533
    194  C4         7.9250   -2.3350   -6.9690 C.ar   10  DT10        0.2804
    195  O4         8.8010   -3.0260   -7.4840 O.2    10  DT10       -0.2654
    196  C5         8.0110   -0.9270   -6.7050 C.ar   10  DT10        0.0534
    197  C6         6.9790   -0.2970   -6.1390 C.ar   10  DT10        0.0824
    198  C7         9.2690   -0.2000   -7.0770 C.3    10  DT10        0.0377
    199  P          6.7160    0.8790   -0.8440 P.3    11  DG11        0.2141
    200  OP1        5.5210    1.5600   -0.2840 O.3    11  DG11       -0.4373
    201  OP2        8.0330    1.5560   -0.7890 O.2    11  DG11       -0.5172
    202  O5'        6.8120   -0.5500   -0.1440 O.3    11  DG11       -0.3114
    203  C5'        7.2290   -1.7160   -0.8700 C.3    11  DG11        0.1811
    204  C4'        6.6540   -2.9640   -0.2320 C.3    11  DG11        0.1746
    205  O4'        7.1240   -3.0760    1.1390 O.3    11  DG11       -0.3327
    206  C3'        5.1410   -3.0070   -0.1170 C.3    11  DG11        0.1558
    207  O3'        4.5550   -3.4760   -1.3160 O.3    11  DG11       -0.3138
    208  C2'        4.9290   -3.9600    1.0510 C.3    11  DG11        0.0865
    209  C1'        6.0920   -3.5860    1.9700 C.3    11  DG11        0.2094
    210  N9         5.6480   -2.5020    2.9100 N.ar   11  DG11       -0.2713
    211  C8         6.1310   -1.2160    2.9470 C.ar   11  DG11        0.1816
    212  N7         5.6410   -0.5100    3.9290 N.ar   11  DG11       -0.2173
    213  C5         4.7850   -1.3780    4.5820 C.ar   11  DG11        0.1748
    214  C6         3.9660   -1.1820    5.7230 C.ar   11  DG11        0.3023
    215  O6         3.8360   -0.1580    6.4060 O.2    11  DG11       -0.2633
    216  N1         3.2510   -2.3300    6.0540 N.ar   11  DG11       -0.1709
    217  C2         3.3170   -3.5200    5.3700 C.ar   11  DG11        0.2606
    218  N2         2.5540   -4.5150    5.8400 N.pl3  11  DG11       -0.0859
    219  N3         4.0730   -3.7160    4.3080 N.ar   11  DG11       -0.1918
    220  C4         4.7760   -2.6150    3.9670 C.ar   11  DG11        0.1722
    221  P          3.3660   -3.0530   -1.5360 P.3    12  DT12        0.2141
    222  OP1        2.9270   -3.7560   -2.7750 O.2    12  DT12       -0.5172
    223  OP2        3.2620   -1.5650   -1.4490 O.3    12  DT12       -0.4373
    224  O5'        2.5470   -3.7180   -0.3470 O.3    12  DT12       -0.3114
    225  C5'        2.6650   -5.1170   -0.1610 C.3    12  DT12        0.1811
    226  C4'        1.5860   -5.6310    0.7320 C.3    12  DT12        0.1746
    227  O4'        1.7950   -5.1410    2.0680 O.3    12  DT12       -0.3327
    228  C3'        0.1690   -5.2740    0.3450 C.3    12  DT12        0.1558
    229  O3'       -0.5500   -6.4560    0.6550 O.3    12  DT12       -0.3138
    230  C2'       -0.1360   -4.0900    1.2530 C.3    12  DT12        0.0866
    231  C1'        0.6470   -4.4590    2.5040 C.3    12  DT12        0.2106
    232  N1         1.2190   -3.3530    3.2090 N.ar   12  DT12       -0.2559
    233  C2         0.6580   -2.9650    4.4110 C.ar   12  DT12        0.3545
    234  O2         0.1350   -3.7490    5.1840 O.2    12  DT12       -0.2443
    235  N3         0.7290   -1.6200    4.6790 N.ar   12  DT12       -0.1533
    236  C4         1.2920   -0.6440    3.8830 C.ar   12  DT12        0.2804
    237  O4         1.2800    0.5250    4.2590 O.2    12  DT12       -0.2654
    238  C5         1.8530   -1.1250    2.6510 C.ar   12  DT12        0.0534
    239  C6         1.7970   -2.4290    2.3660 C.ar   12  DT12        0.0824
    240  C7         2.4890   -0.1400    1.7150 C.3    12  DT12        0.0377
    241  P         -2.1340   -6.4690    0.4340 P.3    13  DT13        0.2141
    242  OP1       -2.3890   -7.7220   -0.3060 O.2    13  DT13       -0.5172
    243  OP2       -1.9080   -5.2070   -0.3060 O.3    13  DT13       -0.4373
    244  O5'       -3.4080   -6.1680    1.3520 O.3    13  DT13       -0.3114
    245  C5'       -3.8770   -7.1900    2.2180 C.3    13  DT13        0.1811
    246  C4'       -4.4350   -6.6340    3.5050 C.3    13  DT13        0.1746
    247  O4'       -3.4670   -5.7580    4.1390 O.3    13  DT13       -0.3327
    248  C3'       -5.6550   -5.7370    3.3820 C.3    13  DT13        0.1558
    249  O3'       -6.8570   -6.4320    3.1040 O.3    13  DT13       -0.3138
    250  C2'       -5.6320   -5.0100    4.7220 C.3    13  DT13        0.0866
    251  C1'       -4.1380   -4.7350    4.8440 C.3    13  DT13        0.2106
    252  N1        -3.7870   -3.4110    4.2090 N.ar   13  DT13       -0.2559
    253  C2        -4.1550   -2.2140    4.7940 C.ar   13  DT13        0.3545
    254  O2        -4.9590   -2.1400    5.7060 O.2    13  DT13       -0.2443
    255  N3        -3.5450   -1.1000    4.2700 N.ar   13  DT13       -0.1533
    256  C4        -2.6250   -1.0630    3.2430 C.ar   13  DT13        0.2804
    257  O4        -2.1640    0.0170    2.8830 O.2    13  DT13       -0.2654
    258  C5        -2.2960   -2.3450    2.6870 C.ar   13  DT13        0.0534
    259  C6        -2.8740   -3.4450    3.1780 C.ar   13  DT13        0.0824
    260  C7        -1.3040   -2.4100    1.5630 C.3    13  DT13        0.0377
    261  P         -7.5010   -6.1360    1.6520 P.3    14  DC14        0.2141
    262  OP1       -8.3710   -7.2440    1.1760 O.3    14  DC14       -0.4373
    263  OP2       -6.7200   -5.3290    0.6790 O.2    14  DC14       -0.5172
    264  O5'       -8.3870   -5.0810    2.4560 O.3    14  DC14       -0.3114
    265  C5'       -9.3380   -5.5110    3.4300 C.3    14  DC14        0.1811
    266  C4'       -9.7180   -4.3620    4.3330 C.3    14  DC14        0.1746
    267  O4'       -8.5080   -3.7060    4.8020 O.3    14  DC14       -0.3327
    268  C3'      -10.4890   -3.1880    3.7480 C.3    14  DC14        0.1558
    269  O3'      -11.8750   -3.4550    3.5500 O.3    14  DC14       -0.3138
    270  C2'      -10.3000   -2.1700    4.8600 C.3    14  DC14        0.0866
    271  C1'       -8.8160   -2.3660    5.1740 C.3    14  DC14        0.2106
    272  N1        -8.0170   -1.4600    4.3800 N.ar   14  DC14       -0.2556
    273  C2        -7.8430   -0.1130    4.7170 C.ar   14  DC14        0.3531
    274  O2        -8.4560    0.3420    5.6970 O.2    14  DC14       -0.2443
    275  N3        -7.0140    0.6520    3.9670 N.ar   14  DC14       -0.1739
    276  C4        -6.3770    0.1200    2.9230 C.ar   14  DC14        0.1759
    277  N4        -5.5700    0.9130    2.2140 N.pl3  14  DC14       -0.1070
    278  C5        -6.5400   -1.2420    2.5650 C.ar   14  DC14        0.0566
    279  C6        -7.3590   -1.9950    3.3080 C.ar   14  DC14        0.0849
    280  P        -12.7360   -2.6740    2.3690 P.3    15  DT15        0.2141
    281  OP1      -13.9430   -3.5090    2.1510 O.3    15  DT15       -0.4373
    282  OP2      -11.8120   -2.4160    1.2360 O.2    15  DT15       -0.5172
    283  O5'      -13.1880   -1.2750    2.9860 O.3    15  DT15       -0.3114
    284  C5'      -13.6450   -1.1990    4.3360 C.3    15  DT15        0.1811
    285  C4'      -13.5090    0.2100    4.8680 C.3    15  DT15        0.1746
    286  O4'      -12.1130    0.6110    4.8780 O.3    15  DT15       -0.3327
    287  C3'      -14.1870    1.2920    4.0490 C.3    15  DT15        0.1558
    288  O3'      -15.5720    1.3610    4.3560 O.3    15  DT15       -0.3138
    289  C2'      -13.4430    2.5450    4.5000 C.3    15  DT15        0.0866
    290  C1'      -12.0190    2.0120    4.6750 C.3    15  DT15        0.2106
    291  N1       -11.2290    2.2840    3.4920 N.ar   15  DT15       -0.2559
    292  C2       -10.6580    3.5390    3.3900 C.ar   15  DT15        0.3545
    293  O2       -10.7600    4.3870    4.2580 O.2    15  DT15       -0.2443
    294  N3        -9.9600    3.7660    2.2290 N.ar   15  DT15       -0.1533
    295  C4        -9.7810    2.8860    1.1830 C.ar   15  DT15        0.2804
    296  O4        -9.1260    3.2350    0.2030 O.2    15  DT15       -0.2654
    297  C5       -10.4050    1.6050    1.3630 C.ar   15  DT15        0.0534
    298  C6       -11.0890    1.3570    2.4830 C.ar   15  DT15        0.0824
    299  C7       -10.2680    0.5770    0.2790 C.3    15  DT15        0.0377
    300  P        -16.4500    2.2440    3.5110 P.3    16  DC16        0.2141
    301  OP1      -17.7300    1.7740    4.0440 O.3    16  DC16       -0.4373
    302  OP2      -16.0580    1.9370    2.1220 O.2    16  DC16       -0.5172
    303  O5'      -16.3620    3.8370    3.6880 O.3    16  DC16       -0.3114
    304  C5'      -16.2840    4.4290    4.9370 C.3    16  DC16        0.1811
    305  C4'      -15.7410    5.8530    4.7980 C.3    16  DC16        0.1746
    306  O4'      -14.3020    5.8290    4.5750 O.3    16  DC16       -0.3327
    307  C3'      -16.2470    6.7050    3.6310 C.3    16  DC16        0.1558
    308  O3'      -17.5850    7.2460    3.8830 O.3    16  DC16       -0.3138
    309  C2'      -15.1710    7.7890    3.5460 C.3    16  DC16        0.0866
    310  C1'      -13.9390    6.9300    3.7420 C.3    16  DC16        0.2106
    311  N1       -13.2890    6.4980    2.5570 N.ar   16  DC16       -0.2556
    312  C2       -12.5370    7.4110    1.8090 C.ar   16  DC16        0.3531
    313  O2       -12.4830    8.5930    2.1880 O.2    16  DC16       -0.2443
    314  N3       -11.8920    6.9810    0.6980 N.ar   16  DC16       -0.1739
    315  C4       -11.9800    5.7030    0.3280 C.ar   16  DC16        0.1759
    316  N4       -11.3270    5.3260   -0.7740 N.pl3  16  DC16       -0.1070
    317  C5       -12.7370    4.7620    1.0720 C.ar   16  DC16        0.0566
    318  C6       -13.3720    5.1910    2.1690 C.ar   16  DC16        0.0849
    319  P        -18.9980    7.5320    2.5690 P.3    17  DC17        0.2141
    320  OP1      -20.4180    7.3940    2.9890 O.3    17  DC17       -0.4373
    321  OP2      -18.4060    6.5340    1.6360 O.2    17  DC17       -0.5172
    322  O5'      -18.7990    8.9780    1.9230 O.3    17  DC17       -0.3114
    323  C5'      -19.0300   10.1700    2.6960 C.3    17  DC17        0.1811
    324  C4'      -18.1110   11.2850    2.2450 C.3    17  DC17        0.1746
    325  O4'      -16.7590   10.7670    2.1210 O.3    17  DC17       -0.3327
    326  C3'      -18.3580   11.9170    0.8820 C.3    17  DC17        0.1558
    327  O3'      -19.4050   12.8870    0.9340 O.3    17  DC17       -0.3138
    328  C2'      -17.0140   12.5850    0.6160 C.3    17  DC17        0.0866
    329  C1'      -16.0450   11.5430    1.1730 C.3    17  DC17        0.2106
    330  N1       -15.5580   10.5430    0.2110 N.ar   17  DC17       -0.2556
    331  C2       -14.5570   10.8980   -0.7010 C.ar   17  DC17        0.3531
    332  O2       -14.1170   12.0610   -0.6820 O.2    17  DC17       -0.2443
    333  N3       -14.1000    9.9700   -1.5740 N.ar   17  DC17       -0.1739
    334  C4       -14.6020    8.7340   -1.5590 C.ar   17  DC17        0.1759
    335  N4       -14.1210    7.8530   -2.4380 N.pl3  17  DC17       -0.1070
    336  C5       -15.6170    8.3540   -0.6430 C.ar   17  DC17        0.0566
    337  C6       -16.0650    9.2740    0.2180 C.ar   17  DC17        0.0849
    338  P        -20.2790   13.6740   -0.7600 P.3    18  DC18        0.2141
    339  OP1      -21.2810   14.6800   -0.3460 O.3    18  DC18       -0.4373
    340  OP2      -20.6310   12.3090   -1.2590 O.2    18  DC18       -0.5172
    341  O5'      -19.3050   14.3340   -1.8040 O.3    18  DC18       -0.3114
    342  C5'      -19.2130   15.7120   -1.7830 C.3    18  DC18        0.1811
    343  C4'      -18.1870   16.0390   -2.8280 C.3    18  DC18        0.1746
    344  O4'      -17.0960   15.1030   -2.7470 O.3    18  DC18       -0.3327
    345  C3'      -18.6160   15.8240   -4.2650 C.3    18  DC18        0.1558
    346  O3'      -19.5490   16.8060   -4.6130 O.3    18  DC18       -0.3138
    347  C2'      -17.2660   16.0240   -4.9200 C.3    18  DC18        0.0866
    348  C1'      -16.4210   15.1810   -3.9810 C.3    18  DC18        0.2106
    349  N1       -16.2520   13.7760   -4.5160 N.ar   18  DC18       -0.2556
    350  C2       -15.3940   13.4700   -5.5790 C.ar   18  DC18        0.3531
    351  O2       -14.8440   14.4010   -6.1900 O.2    18  DC18       -0.2443
    352  N3       -15.1910   12.1720   -5.9090 N.ar   18  DC18       -0.1739
    353  C4       -15.8050   11.2060   -5.2250 C.ar   18  DC18        0.1759
    354  N4       -15.5740    9.9410   -5.5860 N.pl3  18  DC18       -0.1070
    355  C5       -16.6780   11.4950   -4.1450 C.ar   18  DC18        0.0566
    356  C6       -16.8760   12.7780   -3.8220 C.ar   18  DC18        0.0849
    357  P        -20.4990   16.4990   -5.4960 P.3    19  DG19        0.2141
    358  OP1      -21.5710   17.5360   -5.5030 O.2    19  DG19       -0.5172
    359  OP2      -20.7690   15.1620   -4.8960 O.3    19  DG19       -0.4373
    360  O5'      -19.9850   16.2710   -6.9960 O.3    19  DG19       -0.3114
    361  C5'      -19.7350   17.3860   -7.8670 C.3    19  DG19        0.1811
    362  C4'      -18.7020   17.0470   -8.9440 C.3    19  DG19        0.1746
    363  O4'      -17.7140   16.1090   -8.4280 O.3    19  DG19       -0.3327
    364  C3'      -19.1570   16.3470  -10.2160 C.3    19  DG19        0.1558
    365  O3'      -19.7630   17.2020  -11.1630 O.3    19  DG19       -0.3138
    366  C2'      -17.8530   15.8010  -10.7780 C.3    19  DG19        0.0865
    367  C1'      -17.1300   15.3900   -9.5060 C.3    19  DG19        0.2094
    368  N9       -17.2050   14.0240   -9.2510 N.ar   19  DG19       -0.2713
    369  C8       -17.9390   13.4340   -8.2500 C.ar   19  DG19        0.1816
    370  N7       -17.8500   12.1320   -8.2460 N.ar   19  DG19       -0.2173
    371  C5       -17.0080   11.8410   -9.3030 C.ar   19  DG19        0.1748
    372  C6       -16.5390   10.5960   -9.7950 C.ar   19  DG19        0.3023
    373  O6       -16.7910    9.4610   -9.3710 O.2    19  DG19       -0.2633
    374  N1       -15.6980   10.7530  -10.8930 N.ar   19  DG19       -0.1709
    375  C2       -15.3500   11.9620  -11.4480 C.ar   19  DG19        0.2606
    376  N2       -14.5250   11.9120  -12.5030 N.pl3  19  DG19       -0.0859
    377  N3       -15.7770   13.1270  -11.0020 N.ar   19  DG19       -0.1918
    378  C4       -16.5970   12.9980   -9.9370 C.ar   19  DG19        0.1722
    379  P        -20.4960   16.5340  -12.1830 P.3    20  DG20        0.2141
    380  OP1      -21.1990   17.4480  -13.1120 O.2    20  DG20       -0.5172
    381  OP2      -21.2570   15.4650  -11.5000 O.3    20  DG20       -0.4373
    382  O5'      -19.2790   15.8330  -12.9350 O.3    20  DG20       -0.3114
    383  C5'      -18.4530   16.5550  -13.8680 C.3    20  DG20        0.1811
    384  C4'      -17.8090   15.5860  -14.8290 C.3    20  DG20        0.1746
    385  O4'      -16.8590   14.7720  -14.1060 O.3    20  DG20       -0.3327
    386  C3'      -18.7880   14.6030  -15.4440 C.3    20  DG20        0.1558
    387  O3'      -19.3590   15.1290  -16.6230 O.3    20  DG20       -0.3138
    388  C2'      -17.9310   13.3780  -15.7120 C.3    20  DG20        0.0865
    389  C1'      -16.9460   13.4300  -14.5420 C.3    20  DG20        0.2093
    390  N9       -17.2850   12.6100  -13.3910 N.ar   20  DG20       -0.2728
    391  C8       -18.0130   12.9310  -12.2720 C.ar   20  DG20        0.1814
    392  N7       -18.3120   11.8950  -11.5360 N.ar   20  DG20       -0.2177
    393  C5       -17.7480   10.8250  -12.2050 C.ar   20  DG20        0.1711
    394  C6       -17.7400    9.4410  -11.8930 C.2    20  DG20        0.2985
    395  O6       -18.2530    8.8730  -10.9210 O.2    20  DG20       -0.2655
    396  N1       -17.0510    8.6970  -12.8460 N.am   20  DG20       -0.1042
    397  C2       -16.4440    9.2200  -13.9620 C.1    20  DG20        0.1459
    398  N2       -15.8260    8.3440  -14.7650 N.2    20  DG20       -0.0041
    399  N3       -16.4430   10.5030  -14.2660 N.pl3  20  DG20       -0.1259
    400  C4       -17.1080   11.2460  -13.3550 C.ar   20  DG20        0.1688
    401  P        -20.8630   14.7050  -17.0650 P.3    21  DC21        0.2141
    402  OP1      -21.8870   15.5980  -17.6520 O.2    21  DC21       -0.5172
    403  OP2      -21.2100   13.8080  -15.9410 O.3    21  DC21       -0.4373
    404  O5'      -20.3220   13.7160  -18.2010 O.3    21  DC21       -0.3114
    405  C5'      -21.0510   12.5410  -18.5350 C.3    21  DC21        0.1811
    406  C4'      -20.1640   11.3230  -18.4680 C.3    21  DC21        0.1746
    407  O4'      -19.3300   11.4070  -17.2860 O.3    21  DC21       -0.3327
    408  C3'      -20.8660    9.9760  -18.3590 C.3    21  DC21        0.1558
    409  O3'      -21.2710    9.4710  -19.6250 O.3    21  DC21       -0.3138
    410  C2'      -19.8260    9.1120  -17.6510 C.3    21  DC21        0.0866
    411  C1'      -19.1360   10.1240  -16.7320 C.3    21  DC21        0.2106
    412  N1       -19.6900    9.9930  -15.4430 N.ar   21  DC21       -0.2556
    413  C2       -19.3990    8.9140  -14.6000 C.ar   21  DC21        0.3531
    414  O2       -18.8050    7.9300  -15.0730 O.2    21  DC21       -0.2443
    415  N3       -19.7740    8.9730  -13.3000 N.ar   21  DC21       -0.1739
    416  C4       -20.4110   10.0490  -12.8370 C.ar   21  DC21        0.1759
    417  N4       -20.7600   10.0620  -11.5490 N.pl3  21  DC21       -0.1070
    418  C5       -20.7150   11.1530  -13.6750 C.ar   21  DC21        0.0566
    419  C6       -20.3430   11.0910  -14.9580 C.ar   21  DC21        0.0849
    420  P        -22.0820    8.2160  -19.9080 P.3    22  DA22        0.2141
    421  OP1      -21.6130    8.3300  -21.3080 O.2    22  DA22       -0.5172
    422  OP2      -23.4870    8.5170  -19.5540 O.3    22  DA22       -0.4373
    423  O5'      -21.8630    6.7180  -19.3940 O.3    22  DA22       -0.3114
    424  C5'      -20.5440    6.1940  -19.4250 C.3    22  DA22        0.1811
    425  C4'      -20.1780    5.4830  -18.1460 C.3    22  DA22        0.1746
    426  O4'      -20.3600    6.3580  -17.0030 O.3    22  DA22       -0.3327
    427  C3'      -21.0070    4.2550  -17.8090 C.3    22  DA22        0.1558
    428  O3'      -20.5920    3.1100  -18.5310 O.3    22  DA22       -0.3138
    429  C2'      -20.8220    4.1280  -16.3010 C.3    22  DA22        0.0865
    430  C1'      -20.7240    5.5950  -15.8710 C.3    22  DA22        0.2094
    431  N9       -21.8610    6.1520  -15.2640 N.ar   22  DA22       -0.2714
    432  C8       -22.7490    7.0230  -15.8380 C.ar   22  DA22        0.1815
    433  N7       -23.7300    7.3790  -15.0420 N.ar   22  DA22       -0.2193
    434  C5       -23.4680    6.6940  -13.8670 C.ar   22  DA22        0.1518
    435  C6       -24.1380    6.6440  -12.6320 C.ar   22  DA22        0.1919
    436  N6       -25.2560    7.3250  -12.3690 N.pl3  22  DA22       -0.1054
    437  N1       -23.6140    5.8610  -11.6650 N.ar   22  DA22       -0.2040
    438  C2       -22.4930    5.1790  -11.9290 C.ar   22  DA22        0.2016
    439  N3       -21.7730    5.1460  -13.0480 N.ar   22  DA22       -0.2048
    440  C4       -22.3210    5.9330  -13.9890 C.ar   22  DA22        0.1691
    441  P        -21.4380    1.7770  -18.5290 P.3    23  DG23        0.2141
    442  OP1      -20.5730    1.5190  -19.7030 O.2    23  DG23       -0.5172
    443  OP2      -22.9050    1.9090  -18.6850 O.3    23  DG23       -0.4373
    444  O5'      -21.2770    0.5360  -17.5330 O.3    23  DG23       -0.3114
    445  C5'      -22.2060    0.4230  -16.4620 C.3    23  DG23        0.1811
    446  C4'      -21.7580   -0.5590  -15.4100 C.3    23  DG23        0.1746
    447  O4'      -22.3080   -1.8550  -15.7640 O.3    23  DG23       -0.3327
    448  C3'      -20.2440   -0.7360  -15.2880 C.3    23  DG23        0.1558
    449  O3'      -19.6770   -0.2650  -14.0700 O.3    23  DG23       -0.3138
    450  C2'      -19.9870   -2.2350  -15.3710 C.3    23  DG23        0.0865
    451  C1'      -21.3250   -2.8660  -15.7110 C.3    23  DG23        0.2094
    452  N9       -21.0050   -3.4440  -16.9210 N.ar   23  DG23       -0.2713
    453  C8       -21.0770   -2.9230  -18.1900 C.ar   23  DG23        0.1816
    454  N7       -20.5660   -3.7080  -19.0990 N.ar   23  DG23       -0.2173
    455  C5       -20.1320   -4.8140  -18.3920 C.ar   23  DG23        0.1748
    456  C6       -19.4910   -6.0000  -18.8350 C.ar   23  DG23        0.3023
    457  O6       -19.1720   -6.3130  -19.9890 O.2    23  DG23       -0.2633
    458  N1       -19.2200   -6.8700  -17.7830 N.ar   23  DG23       -0.1709
    459  C2       -19.5290   -6.6270  -16.4660 C.ar   23  DG23        0.2623
    460  N2       -19.1900   -7.5860  -15.5930 N.pl3  23  DG23       -0.0859
    461  N3       -20.1230   -5.5300  -16.0390 N.ar   23  DG23       -0.1703
    462  C4       -20.3940   -4.6710  -17.0430 C.ar   23  DG23        0.1744
    463  P        -18.7100   -0.2180  -14.3060 P.3    24  DT24        0.2141
    464  OP1      -18.9730    0.3630  -12.9650 O.3    24  DT24       -0.4373
    465  OP2      -17.8360    0.5110  -15.2580 O.2    24  DT24       -0.5172
    466  O5'      -18.1200   -1.6840  -14.0950 O.3    24  DT24       -0.3114
    467  C5'      -18.3870   -2.4300  -12.9030 C.3    24  DT24        0.1811
    468  C4'      -17.7340   -3.7890  -12.9910 C.3    24  DT24        0.1746
    469  O4'      -18.1000   -4.3370  -14.2870 O.3    24  DT24       -0.3327
    470  C3'      -16.2050   -3.8040  -12.9770 C.3    24  DT24        0.1558
    471  O3'      -15.6780   -4.0190  -11.6660 O.3    24  DT24       -0.3138
    472  C2'      -15.8910   -5.0520  -13.7970 C.3    24  DT24        0.0866
    473  C1'      -17.0020   -5.0280  -14.8470 C.3    24  DT24        0.2106
    474  N1       -16.6880   -4.9890  -16.1480 N.ar   24  DT24       -0.2559
    475  C2       -16.2040   -6.1140  -16.7890 C.ar   24  DT24        0.3545
    476  O2       -15.6460   -7.0230  -16.2020 O.2    24  DT24       -0.2443
    477  N3       -16.3980   -6.1360  -18.1490 N.ar   24  DT24       -0.1533
    478  C4       -17.0130   -5.1680  -18.9160 C.ar   24  DT24        0.2804
    479  O4       -17.1130   -5.3310  -20.1290 O.2    24  DT24       -0.2654
    480  C5       -17.4870   -4.0310  -18.1780 C.ar   24  DT24        0.0534
    481  C6       -17.3120   -3.9840  -16.8550 C.ar   24  DT24        0.0824
    482  C7       -18.1700   -2.9230  -18.9230 C.3    24  DT24        0.0377
    483  P        -14.9870   -2.4210  -10.4790 P.3    25  DG25        0.2141
    484  OP1      -14.6970   -3.4040   -9.4030 O.3    25  DG25       -0.4373
    485  OP2      -15.5440   -1.0930  -10.1230 O.2    25  DG25       -0.5172
    486  O5'      -13.6460   -2.1790  -11.2980 O.3    25  DG25       -0.3114
    487  C5'      -13.0000   -0.9170  -11.2760 C.3    25  DG25        0.1811
    488  C4'      -13.1090   -0.2580  -12.6260 C.3    25  DG25        0.1746
    489  O4'      -14.5180   -0.0800  -12.9530 O.3    25  DG25       -0.3327
    490  C3'      -12.5500    1.1500  -12.6890 C.3    25  DG25        0.1558
    491  O3'      -11.1470    1.1840  -12.8820 O.3    25  DG25       -0.3138
    492  C2'      -13.3130    1.7270  -13.8660 C.3    25  DG25        0.0865
    493  C1'      -14.7080    1.1880  -13.5670 C.3    25  DG25        0.2094
    494  N9       -15.3920    2.2220  -12.7490 N.ar   25  DG25       -0.2713
    495  C8       -16.0260    1.7850  -11.6120 C.ar   25  DG25        0.1816
    496  N7       -16.9050    2.6340  -11.1540 N.ar   25  DG25       -0.2173
    497  C5       -16.8530    3.6940  -12.0390 C.ar   25  DG25        0.1748
    498  C6       -17.5760    4.9150  -12.0630 C.ar   25  DG25        0.3023
    499  O6       -18.4410    5.3080  -11.2690 O.2    25  DG25       -0.2633
    500  N1       -17.2110    5.7150  -13.1410 N.ar   25  DG25       -0.1709
    501  C2       -16.2670    5.3810  -14.0820 C.ar   25  DG25        0.2606
    502  N2       -16.0520    6.2830  -15.0500 N.pl3  25  DG25       -0.0859
    503  N3       -15.5860    4.2520  -14.0730 N.ar   25  DG25       -0.1918
    504  C4       -15.9230    3.4590  -13.0340 C.ar   25  DG25        0.1722
    505  P        -10.4130    2.2190  -12.4220 P.3    26  DT26        0.2141
    506  OP1       -9.0010    2.1220  -12.8310 O.2    26  DT26       -0.5172
    507  OP2      -10.7300    2.8040  -11.1010 O.3    26  DT26       -0.4373
    508  O5'      -11.2100    3.0000  -13.5460 O.3    26  DT26       -0.3114
    509  C5'      -10.6060    3.4460  -14.7000 C.3    26  DT26        0.1811
    510  C4'      -11.1640    4.8040  -14.9560 C.3    26  DT26        0.1746
    511  O4'      -12.5810    4.8190  -14.6940 O.3    26  DT26       -0.3327
    512  C3'      -10.6760    5.8480  -13.9990 C.3    26  DT26        0.1558
    513  O3'       -9.3260    6.1900  -14.2820 O.3    26  DT26       -0.3138
    514  C2'      -11.6910    6.9550  -14.2590 C.3    26  DT26        0.0866
    515  C1'      -12.9630    6.1420  -14.3600 C.3    26  DT26        0.2106
    516  N1       -13.7190    6.0540  -13.2130 N.ar   26  DT26       -0.2573
    517  C2       -14.5540    7.0920  -12.8460 C.ar   26  DT26        0.3344
    518  O2       -14.7500    8.0670  -13.5490 O.3    26  DT26       -0.3054
    519  N3       -15.1530    6.9490  -11.6180 N.ar   26  DT26       -0.1548
    520  C4       -15.0050    5.8960  -10.7400 C.ar   26  DT26        0.2804
    521  O4       -15.6110    5.9090   -9.6710 O.2    26  DT26       -0.2654
    522  C5       -14.1220    4.8580  -11.1930 C.ar   26  DT26        0.0534
    523  C6       -13.5260    4.9720  -12.3830 C.ar   26  DT26        0.0824
    524  C7       -13.8950    3.6680  -10.3080 C.3    26  DT26        0.0377
    525  P         -8.5870    7.1280  -13.2770 P.3    27  DG27        0.2141
    526  OP1       -7.5780    6.7990  -14.3080 O.2    27  DG27       -0.5172
    527  OP2       -8.1430    7.4240  -11.8940 O.3    27  DG27       -0.4373
    528  O5'       -9.4500    8.4100  -13.7060 O.3    27  DG27       -0.3114
    529  C5'       -8.8450    9.5560  -14.2970 C.3    27  DG27        0.1811
    530  C4'       -9.1980   10.8460  -13.5870 C.3    27  DG27        0.1746
    531  O4'      -10.6360   10.9560  -13.4340 O.3    27  DG27       -0.3327
    532  C3'       -8.6490   11.0090  -12.1760 C.3    27  DG27        0.1558
    533  O3'       -7.3190   11.5010  -12.1510 O.3    27  DG27       -0.3138
    534  C2'       -9.6450   11.9530  -11.5170 C.3    27  DG27        0.0865
    535  C1'      -10.9550   11.5530  -12.1970 C.3    27  DG27        0.2094
    536  N9       -11.7250   10.4840  -11.4250 N.ar   27  DG27       -0.2713
    537  C8       -11.6770    9.1110  -11.4360 C.ar   27  DG27        0.1816
    538  N7       -12.3050    8.5650  -10.4300 N.ar   27  DG27       -0.2173
    539  C5       -12.8000    9.6380   -9.7120 C.ar   27  DG27        0.1748
    540  C6       -13.5660    9.6750   -8.5180 C.ar   27  DG27        0.3023
    541  O6       -13.9700    8.7240   -7.8380 O.2    27  DG27       -0.2633
    542  N1       -13.8570   10.9780   -8.1270 N.ar   27  DG27       -0.1709
    543  C2       -13.4610   12.1080   -8.8030 C.ar   27  DG27        0.2606
    544  N2       -13.8390   13.2780   -8.2720 N.pl3  27  DG27       -0.0859
    545  N3       -12.7490   12.0890   -9.9130 N.ar   27  DG27       -0.1918
    546  C4       -12.4530   10.8340  -10.3110 C.ar   27  DG27        0.1722
    547  P         -6.2330   11.1450  -10.8630 P.3    28  DG28        0.2141
    548  OP1       -4.8460   11.5560  -11.2390 O.2    28  DG28       -0.5172
    549  OP2       -6.5030    9.7370  -10.4660 O.3    28  DG28       -0.4373
    550  O5'       -6.7630   12.0660   -9.6700 O.3    28  DG28       -0.3114
    551  C5'       -6.6070   13.4810   -9.7270 C.3    28  DG28        0.1811
    552  C4'       -7.1500   14.1390   -8.4790 C.3    28  DG28        0.1746
    553  O4'       -8.5920   13.9890   -8.4180 O.3    28  DG28       -0.3327
    554  C3'       -6.6750   13.6060   -7.1450 C.3    28  DG28        0.1558
    555  O3'       -5.4160   14.1270   -6.7690 O.3    28  DG28       -0.3138
    556  C2'       -7.7690   14.0960   -6.2040 C.3    28  DG28        0.0865
    557  C1'       -9.0140   13.9280   -7.0660 C.3    28  DG28        0.2094
    558  N9        -9.6550   12.6310   -6.8690 N.ar   28  DG28       -0.2713
    559  C8        -9.5090   11.5000   -7.6350 C.ar   28  DG28        0.1816
    560  N7       -10.1200   10.4590   -7.1390 N.ar   28  DG28       -0.2173
    561  C5       -10.7060   10.9270   -5.9780 C.ar   28  DG28        0.1748
    562  C6       -11.5000   10.2590   -5.0100 C.ar   28  DG28        0.3023
    563  O6       -11.8520    9.0730   -4.9950 O.2    28  DG28       -0.2633
    564  N1       -11.8930   11.1100   -3.9810 N.ar   28  DG28       -0.1709
    565  C2       -11.5610   12.4410   -3.8940 C.ar   28  DG28        0.2606
    566  N2       -12.0340   13.1000   -2.8270 N.pl3  28  DG28       -0.0859
    567  N3       -10.8250   13.0750   -4.7850 N.ar   28  DG28       -0.1918
    568  C4       -10.4310   12.2680   -5.7930 C.ar   28  DG28        0.1722
    569  P         -4.6390   13.4380   -5.4270 P.3    29  DG29        0.2141
    570  OP1       -3.5010   13.7750   -4.5340 O.3    29  DG29       -0.4373
    571  OP2       -4.6500   12.1390   -6.1420 O.2    29  DG29       -0.5172
    572  O5'       -5.9790   13.5570   -4.5760 O.3    29  DG29       -0.3114
    573  C5'       -6.4300   14.8340   -4.1020 C.3    29  DG29        0.1811
    574  C4'       -7.2040   14.6720   -2.8190 C.3    29  DG29        0.1746
    575  O4'       -8.4340   13.9370   -3.0670 O.3    29  DG29       -0.3327
    576  C3'       -6.5290   13.8620   -1.7290 C.3    29  DG29        0.1558
    577  O3'       -5.5600   14.6260   -1.0230 O.3    29  DG29       -0.3138
    578  C2'       -7.7110   13.4940   -0.8480 C.3    29  DG29        0.0865
    579  C1'       -8.7960   13.2260   -1.8940 C.3    29  DG29        0.2094
    580  N9        -8.7410   11.7580   -2.2400 N.ar   29  DG29       -0.2713
    581  C8        -8.0810   11.1540   -3.2830 C.ar   29  DG29        0.1816
    582  N7        -8.1550    9.8520   -3.2550 N.ar   29  DG29       -0.2173
    583  C5        -8.9100    9.5760   -2.1300 C.ar   29  DG29        0.1748
    584  C6        -9.3250    8.3370   -1.5780 C.ar   29  DG29        0.3023
    585  O6        -9.0960    7.1960   -1.9980 O.2    29  DG29       -0.2633
    586  N1       -10.0800    8.5090   -0.4210 N.ar   29  DG29       -0.1709
    587  C2       -10.3970    9.7250    0.1350 C.ar   29  DG29        0.2606
    588  N2       -11.1360    9.6900    1.2520 N.pl3  29  DG29       -0.0859
    589  N3       -10.0170   10.8840   -0.3650 N.ar   29  DG29       -0.1918
    590  C4        -9.2820   10.7420   -1.4880 C.ar   29  DG29        0.1722
    591  P         -4.6150   14.0110   -0.7450 P.3    30  DC30        0.2141
    592  OP1       -3.7560   15.1240   -0.2870 O.3    30  DC30       -0.4373
    593  OP2       -4.0240   12.9030   -1.5480 O.2    30  DC30       -0.5172
    594  O5'       -5.3130   13.3660    0.5350 O.3    30  DC30       -0.3114
    595  C5'       -5.7510   14.1860    1.6170 C.3    30  DC30        0.1811
    596  C4'       -6.7190   13.4350    2.5070 C.3    30  DC30        0.1746
    597  O4'       -7.6210   12.6430    1.6860 O.3    30  DC30       -0.3327
    598  C3'       -6.1680   12.4080    3.4840 C.3    30  DC30        0.1558
    599  O3'       -5.6430   13.0280    4.6580 O.3    30  DC30       -0.3138
    600  C2'       -7.4280   11.6220    3.8120 C.3    30  DC30        0.0866
    601  C1'       -8.0820   11.5310    2.4330 C.3    30  DC30        0.2106
    602  N1        -7.6670   10.2580    1.6860 N.ar   30  DC30       -0.2556
    603  C2        -8.1160    9.0340    2.1960 C.ar   30  DC30        0.3531
    604  O2        -8.8110    9.0350    3.2260 O.2    30  DC30       -0.2443
    605  N3        -7.7800    7.8900    1.5540 N.ar   30  DC30       -0.1739
    606  C4        -7.0310    7.9380    0.4520 C.ar   30  DC30        0.1759
    607  N4        -6.7240    6.7840   -0.1460 N.pl3  30  DC30       -0.1070
    608  C5        -6.5660    9.1680   -0.0800 C.ar   30  DC30        0.0566
    609  C6        -6.9000   10.2960    0.5560 C.ar   30  DC30        0.0849
    610  P         -4.6450   12.2420    5.5210 P.3    31  DG31        0.2141
    611  OP1       -4.0550   13.1960    6.4920 O.3    31  DG31       -0.4373
    612  OP2       -3.7920   11.6120    4.4880 O.2    31  DG31       -0.5172
    613  O5'       -5.3880   11.0820    6.3400 O.3    31  DG31       -0.3114
    614  C5'       -6.0240   11.3410    7.5910 C.3    31  DG31        0.1811
    615  C4'       -6.8650   10.1500    8.0110 C.3    31  DG31        0.1746
    616  O4'       -7.6030    9.6470    6.8680 O.3    31  DG31       -0.3327
    617  C3'       -6.0890    8.9320    8.4790 C.3    31  DG31        0.1558
    618  O3'       -5.7190    9.0600    9.8230 O.3    31  DG31       -0.3138
    619  C2'       -7.1360    7.8420    8.3150 C.3    31  DG31        0.0865
    620  C1'       -7.7620    8.2420    6.9840 C.3    31  DG31        0.2094
    621  N9        -7.0600    7.4750    5.8600 N.ar   31  DG31       -0.2713
    622  C8        -6.2110    7.9580    4.8940 C.ar   31  DG31        0.1816
    623  N7        -5.8330    7.0480    4.0380 N.ar   31  DG31       -0.2173
    624  C5        -6.4690    5.8950    4.4600 C.ar   31  DG31        0.1748
    625  C6        -6.4430    4.5800    3.9290 C.ar   31  DG31        0.3023
    626  O6        -5.8260    4.1650    2.9400 O.2    31  DG31       -0.2633
    627  N1        -7.2350    3.7050    4.6680 N.ar   31  DG31       -0.1709
    628  C2        -7.9620    4.0550    5.7810 C.ar   31  DG31        0.2606
    629  N2        -8.6660    3.0720    6.3590 N.pl3  31  DG31       -0.0859
    630  N3        -7.9950    5.2720    6.2860 N.ar   31  DG31       -0.1918
    631  C4        -7.2330    6.1380    5.5850 C.ar   31  DG31        0.1722
    632  P         -4.4240    8.4440   10.2170 P.3    32  DA32        0.2141
    633  OP1       -4.0540    8.8050   11.6040 O.3    32  DA32       -0.4373
    634  OP2       -3.3770    8.4310    9.1720 O.2    32  DA32       -0.5172
    635  O5'       -5.1380    7.0100   10.2140 O.3    32  DA32       -0.3114
    636  C5'       -6.0560    6.6610   11.2460 C.3    32  DA32        0.1812
    637  C4'       -6.4790    5.2040   11.1530 C.3    32  DA32        0.1775
    638  O4'       -6.8600    4.8870    9.7890 O.3    32  DA32       -0.3326
    639  C3'       -5.3980    4.1820   11.4710 C.3    32  DA32        0.1859
    640  O3'       -5.2500    4.0040   12.8730 O.3    32  DA32       -0.2203
    641  C2'       -5.9710    2.9450   10.7950 C.3    32  DA32        0.0894
    642  C1'       -6.5030    3.5490    9.4960 C.3    32  DA32        0.2095
    643  N9        -5.4660    3.5330    8.4440 N.ar   32  DA32       -0.2714
    644  C8        -4.6560    4.5740    8.0750 C.ar   32  DA32        0.1815
    645  N7        -3.8810    4.3050    7.0510 N.ar   32  DA32       -0.2193
    646  C5        -4.2040    2.9970    6.7260 C.ar   32  DA32        0.1518
    647  C6        -3.7330    2.1260    5.7270 C.ar   32  DA32        0.1919
    648  N6        -2.7960    2.4610    4.8370 N.pl3  32  DA32       -0.1054
    649  N1        -4.2630    0.8860    5.6760 N.ar   32  DA32       -0.2040
    650  C2        -5.2020    0.5520    6.5690 C.ar   32  DA32        0.2016
    651  N3        -5.7270    1.2820    7.5510 N.ar   32  DA32       -0.2048
    652  C4        -5.1780    2.5080    7.5750 C.ar   32  DA32        0.1691
    653  P         -3.5540    3.8380   13.6620 P.3    33  DA33        0.5411
    654  OP1       -2.8640    3.1920   14.8120 O.2    33  DA33       -0.2272
    655  OP2       -2.8090    4.7770   12.7840 O.2    33  DA33       -0.2272
    656  O5'       -4.1960    2.7170   12.7250 O.3    33  DA33       -0.2722
    657  C5'       -5.1210    1.7330   13.2580 C.3    33  DA33        0.1850
    658  C4'       -4.6450    0.3370   12.9220 C.3    33  DA33        0.1748
    659  O4'       -4.7720    0.1020   11.5040 O.3    33  DA33       -0.3327
    660  C3'       -3.1860    0.0970   13.2710 C.3    33  DA33        0.1558
    661  O3'       -3.1390   -0.5120   14.5480 O.3    33  DA33       -0.3138
    662  C2'       -2.7010   -0.8680   12.2030 C.3    33  DA33        0.0865
    663  C1'       -3.6060   -0.5220   11.0160 C.3    33  DA33        0.2094
    664  N9        -2.9800    0.3300    9.9880 N.ar   33  DA33       -0.2714
    665  C8        -2.5810    1.6400   10.0460 C.ar   33  DA33        0.1815
    666  N7        -1.7230    1.9740    9.1110 N.ar   33  DA33       -0.2193
    667  C5        -1.5460    0.8030    8.3910 C.ar   33  DA33        0.1518
    668  C6        -0.7570    0.4940    7.2680 C.ar   33  DA33        0.1919
    669  N6         0.0310    1.3780    6.6520 N.pl3  33  DA33       -0.1054
    670  N1        -0.8080   -0.7700    6.7960 N.ar   33  DA33       -0.2040
    671  C2        -1.5990   -1.6550    7.4140 C.ar   33  DA33        0.2016
    672  N3        -2.3860   -1.4830    8.4740 N.ar   33  DA33       -0.2048
    673  C4        -2.3120   -0.2180    8.9190 C.ar   33  DA33        0.1691
    674  P         -1.7350   -1.0250   15.1900 P.3    34  DT34        0.2141
    675  OP1       -2.4450   -1.7620   16.2540 O.3    34  DT34       -0.4373
    676  OP2       -0.4770   -0.3390   15.5070 O.2    34  DT34       -0.5172
    677  O5'       -1.4890   -2.1140   14.0470 O.3    34  DT34       -0.3114
    678  C5'       -1.6150   -3.5500   14.3180 C.3    34  DT34        0.1811
    679  C4'       -1.0320   -4.4220   13.1590 C.3    34  DT34        0.1746
    680  O4'       -1.2840   -3.7880   11.8670 O.3    34  DT34       -0.3327
    681  C3'        0.4740   -4.7550   13.1360 C.3    34  DT34        0.1558
    682  O3'        0.7350   -5.9730   13.8280 O.3    34  DT34       -0.3138
    683  C2'        0.7510   -5.0140   11.6540 C.3    34  DT34        0.0866
    684  C1'       -0.1820   -3.9950   10.9990 C.3    34  DT34        0.2106
    685  N1         0.3830   -2.6790   10.6030 N.ar   34  DT34       -0.2559
    686  C2         1.0970   -2.6450    9.4200 C.ar   34  DT34        0.3545
    687  O2         1.2200   -3.6140    8.6910 O.2    34  DT34       -0.2443
    688  N3         1.6660   -1.4320    9.1200 N.ar   34  DT34       -0.1533
    689  C4         1.5950   -0.2740    9.8660 C.ar   34  DT34        0.2804
    690  O4         2.1600    0.7400    9.4640 O.2    34  DT34       -0.2654
    691  C5         0.8370   -0.3900   11.0800 C.ar   34  DT34        0.0534
    692  C6         0.2730   -1.5580   11.3970 C.ar   34  DT34        0.0824
    693  C7         0.7010    0.8160   11.9620 C.3    34  DT34        0.0377
    694  P          2.2980   -6.4010   14.1360 P.3    35  DC35        0.2141
    695  OP1        2.3930   -7.6900   14.8700 O.3    35  DC35       -0.4373
    696  OP2        2.9740   -5.1900   14.6810 O.2    35  DC35       -0.5172
    697  O5'        2.7710   -6.6320   12.6340 O.3    35  DC35       -0.3114
    698  C5'        2.2460   -7.7170   11.8760 C.3    35  DC35        0.1811
    699  C4'        3.0360   -7.8930   10.6070 C.3    35  DC35        0.1746
    700  O4'        2.5120   -7.0190    9.5680 O.3    35  DC35       -0.3327
    701  C3'        4.5090   -7.5340   10.7130 C.3    35  DC35        0.1558
    702  O3'        5.2850   -8.5800   11.3270 O.3    35  DC35       -0.3138
    703  C2'        4.8490   -7.2440    9.2500 C.3    35  DC35        0.0866
    704  C1'        3.5800   -6.5310    8.7670 C.3    35  DC35        0.2106
    705  N1         3.8860   -5.0090    9.0570 N.ar   35  DC35       -0.2556
    706  C2         4.6930   -4.2890    8.1680 C.ar   35  DC35        0.3531
    707  O2         5.1880   -4.8840    7.1950 O.2    35  DC35       -0.2443
    708  N3         4.9090   -2.9710    8.3930 N.ar   35  DC35       -0.1739
    709  C4         4.3570   -2.3750    9.4500 C.ar   35  DC35        0.1759
    710  N4         4.5990   -1.0750    9.6310 N.pl3  35  DC35       -0.1070
    711  C5         3.5370   -3.0870   10.3630 C.ar   35  DC35        0.0566
    712  C6         3.3250   -4.3880   10.1370 C.ar   35  DC35        0.0849
    713  P          6.1810   -8.2520   12.9030 P.3    36  DT36        0.2141
    714  OP1        6.1270   -9.3410   13.9410 O.3    36  DT36       -0.4373
    715  OP2        5.5610   -6.9310   13.2900 O.2    36  DT36       -0.5172
    716  O5'        7.6710   -7.8920   12.3700 O.3    36  DT36       -0.3114
    717  C5'        8.1470   -9.0100   11.5420 C.3    36  DT36        0.1812
    718  C4'        9.0070   -8.3760   10.4680 C.3    36  DT36        0.1775
    719  O4'        8.2610   -7.4670    9.6820 O.3    36  DT36       -0.3326
    720  C3'       10.1580   -7.5420   11.0120 C.3    36  DT36        0.1864
    721  O3'       11.2090   -8.3460   11.5200 O.3    36  DT36       -0.2133
    722  C2'       10.5140   -6.7140    9.7920 C.3    36  DT36        0.0895
    723  C1'        9.1290   -6.4480    9.2090 C.3    36  DT36        0.2107
    724  N1         8.7270   -5.1300    9.6180 N.ar   36  DT36       -0.2559
    725  C2         9.1840   -4.0050    8.9570 C.ar   36  DT36        0.3545
    726  O2        10.0040   -4.0510    8.0580 O.2    36  DT36       -0.2443
    727  N3         8.6440   -2.8180    9.3900 N.ar   36  DT36       -0.1533
    728  C4         7.7150   -2.6460   10.3940 C.ar   36  DT36        0.2804
    729  O4         7.3230   -1.5140   10.6690 O.2    36  DT36       -0.2654
    730  C5         7.2910   -3.8600   11.0320 C.ar   36  DT36        0.0534
    731  C6         7.7990   -5.0290   10.6320 C.ar   36  DT36        0.0824
    732  C7         6.2810   -3.7770   12.1380 C.3    36  DT36        0.0377
    733  P         12.3480   -7.7510   12.7170 P.3    37  DA37        0.3939
    734  OP1       12.0350   -9.1960   12.6260 O.3    37  DA37       -0.1496
    735  OP2       11.6590   -6.8910   13.7040 O.3    37  DA37       -0.1425
    736  O5'       13.9010   -7.5620   13.0410 O.3    37  DA37       -0.2926
    737  C5'       14.8410   -7.7900   12.0050 C.3    37  DA37        0.1828
    738  C4'       15.5960   -6.5280   11.6870 C.3    37  DA37        0.1747
    739  O4'       14.8750   -5.7320   10.7100 O.3    37  DA37       -0.3327
    740  C3'       15.7800   -5.5790   12.8540 C.3    37  DA37        0.1558
    741  O3'       16.8010   -5.9910   13.7460 O.3    37  DA37       -0.3138
    742  C2'       16.0530   -4.2570   12.1450 C.3    37  DA37        0.0865
    743  C1'       15.1110   -4.3580   10.9440 C.3    37  DA37        0.2094
    744  N9        13.8300   -3.7040   11.0120 N.ar   37  DA37       -0.2714
    745  C8        12.6050   -4.3050   11.1470 C.ar   37  DA37        0.1815
    746  N7        11.6030   -3.4590   11.1900 N.ar   37  DA37       -0.2193
    747  C5        12.2110   -2.2190   11.0770 C.ar   37  DA37        0.1518
    748  C6        11.6940   -0.9110   11.0550 C.ar   37  DA37        0.1919
    749  N6        10.3930   -0.6280   11.1500 N.pl3  37  DA37       -0.1054
    750  N1        12.5720    0.1070   10.9300 N.ar   37  DA37       -0.2040
    751  C2        13.8760   -0.1770   10.8340 C.ar   37  DA37        0.2016
    752  N3        14.4810   -1.3630   10.8410 N.ar   37  DA37       -0.2048
    753  C4        13.5820   -2.3530   10.9670 C.ar   37  DA37        0.1691
    754  P         16.7630   -5.6700   15.3770 P.3    38  DT38        0.2141
    755  OP1       17.7560   -6.4300   16.1760 O.3    38  DT38       -0.4373
    756  OP2       15.3570   -5.5950   15.8360 O.2    38  DT38       -0.5172
    757  O5'       17.3080   -4.1840   15.2130 O.3    38  DT38       -0.3114
    758  C5'       18.5010   -3.9250   14.4550 C.3    38  DT38        0.1811
    759  C4'       18.5290   -2.4910   13.9850 C.3    38  DT38        0.1746
    760  O4'       17.2900   -2.1780   13.2910 O.3    38  DT38       -0.3327
    761  C3'       18.5910   -1.4140   15.0540 C.3    38  DT38        0.1558
    762  O3'       19.9140   -1.2660   15.5640 O.3    38  DT38       -0.3138
    763  C2'       18.1350   -0.1880   14.2710 C.3    38  DT38        0.0866
    764  C1'       17.0330   -0.7850   13.3960 C.3    38  DT38        0.2106
    765  N1        15.7680   -0.5750   13.8620 N.ar   38  DT38       -0.2559
    766  C2        15.1710    0.6640   13.7300 C.ar   38  DT38        0.3545
    767  O2        15.7350    1.6230   13.2330 O.2    38  DT38       -0.2443
    768  N3        13.8840    0.7420   14.2040 N.ar   38  DT38       -0.1533
    769  C4        13.1510   -0.2720   14.7840 C.ar   38  DT38        0.2804
    770  O4        12.0030   -0.0490   15.1610 O.2    38  DT38       -0.2654
    771  C5        13.8400   -1.5270   14.8860 C.ar   38  DT38        0.0534
    772  C6        15.0920   -1.6310   14.4330 C.ar   38  DT38        0.0824
    773  C7        13.1260   -2.6930   15.5030 C.3    38  DT38        0.0377
    774  P         20.1000   -0.8520   17.0220 P.3    39  DG39        0.2141
    775  OP1       21.5110   -0.9440   17.4600 O.2    39  DG39       -0.5172
    776  OP2       18.9900   -1.1130   17.9670 O.3    39  DG39       -0.4373
    777  O5'       19.8250    0.6270   16.4960 O.3    39  DG39       -0.3114
    778  C5'       20.7150    1.2170   15.5620 C.3    39  DG39        0.1811
    779  C4'       20.3660    2.6690   15.4030 C.3    39  DG39        0.1746
    780  O4'       19.1390    2.7740   14.6430 O.3    39  DG39       -0.3327
    781  C3'       20.0730    3.3810   16.7120 C.3    39  DG39        0.1558
    782  O3'       21.2510    3.8640   17.3340 O.3    39  DG39       -0.3138
    783  C2'       19.0980    4.4770   16.3120 C.3    39  DG39        0.0865
    784  C1'       18.3360    3.8050   15.1700 C.3    39  DG39        0.2094
    785  N9        17.0800    3.2500   15.6120 N.ar   39  DG39       -0.2713
    786  C8        16.8140    1.9480   15.9610 C.ar   39  DG39        0.1816
    787  N7        15.6050    1.7750   16.4200 N.ar   39  DG39       -0.2173
    788  C5        15.0350    3.0340   16.3710 C.ar   39  DG39        0.1748
    789  C6        13.7390    3.4760   16.7400 C.ar   39  DG39        0.3023
    790  O6        12.8050    2.8080   17.2020 O.2    39  DG39       -0.2633
    791  N1        13.5740    4.8420   16.5280 N.ar   39  DG39       -0.1709
    792  C2        14.5400    5.6790   16.0220 C.ar   39  DG39        0.2606
    793  N2        14.1940    6.9660   15.8880 N.pl3  39  DG39       -0.0859
    794  N3        15.7490    5.2830   15.6750 N.ar   39  DG39       -0.1918
    795  C4        15.9310    3.9600   15.8730 C.ar   39  DG39        0.1722
    796  P         21.4770    3.9180   19.0690 P.3    40  DC40        0.2141
    797  OP1       22.7660    4.0660   19.7790 O.3    40  DC40       -0.4373
    798  OP2       20.5190    2.8570   19.4890 O.2    40  DC40       -0.5172
    799  O5'       20.7140    5.3160   19.1320 O.3    40  DC40       -0.3114
    800  C5'       21.4330    6.5440   19.0260 C.3    40  DC40        0.1811
    801  C4'       20.4980    7.6920   18.7100 C.3    40  DC40        0.1746
    802  O4'       19.5050    7.2590   17.7400 O.3    40  DC40       -0.3327
    803  C3'       19.6430    8.2680   19.8290 C.3    40  DC40        0.1558
    804  O3'       20.3890    9.1640   20.6520 O.3    40  DC40       -0.3138
    805  C2'       18.5960    9.0250   19.0250 C.3    40  DC40        0.0866
    806  C1'       18.3320    8.0390   17.8880 C.3    40  DC40        0.2106
    807  N1        17.2680    7.1330   18.1970 N.ar   40  DC40       -0.2556
    808  C2        15.9410    7.5600   18.0800 C.ar   40  DC40        0.3531
    809  O2        15.7170    8.7200   17.6950 O.2    40  DC40       -0.2443
    810  N3        14.9420    6.6990   18.3900 N.ar   40  DC40       -0.1739
    811  C4        15.2290    5.4630   18.8010 C.ar   40  DC40        0.1759
    812  N4        14.2110    4.6510   19.0950 N.pl3  40  DC40       -0.1070
    813  C5        16.5670    5.0110   18.9260 C.ar   40  DC40        0.0566
    814  C6        17.5510    5.8640   18.6190 C.ar   40  DC40        0.0849
    815  P         19.8500    9.5470   22.2630 P.3    41  DG41        0.2141
    816  OP1       20.9410   10.3630   22.8540 O.3    41  DG41       -0.4373
    817  OP2       19.5280    8.1870   22.7690 O.2    41  DG41       -0.5172
    818  O5'       18.4520   10.3360   22.3900 O.3    41  DG41       -0.3114
    819  C5'       18.4140   11.7420   22.1760 C.3    41  DG41        0.1811
    820  C4'       17.0220   12.3330   22.0860 C.3    41  DG41        0.1746
    821  O4'       16.2930   11.7820   20.9610 O.3    41  DG41       -0.3327
    822  C3'       16.0980   12.1070   23.2700 C.3    41  DG41        0.1558
    823  O3'       16.3510   12.9950   24.3400 O.3    41  DG41       -0.3138
    824  C2'       14.7170   12.3030   22.6590 C.3    41  DG41        0.0865
    825  C1'       14.9190   11.6950   21.2760 C.3    41  DG41        0.2094
    826  N9        14.5310   10.2450   21.3010 N.ar   41  DG41       -0.2713
    827  C8        15.3620    9.1720   21.5160 C.ar   41  DG41        0.1816
    828  N7        14.7310    8.0300   21.5470 N.ar   41  DG41       -0.2173
    829  C5        13.4060    8.3640   21.3390 C.ar   41  DG41        0.1748
    830  C6        12.2480    7.5470   21.2690 C.ar   41  DG41        0.3023
    831  O6        12.1690    6.3180   21.3830 O.2    41  DG41       -0.2633
    832  N1        11.0960    8.2960   21.0430 N.ar   41  DG41       -0.1709
    833  C2        11.0640    9.6620   20.9000 C.ar   41  DG41        0.2606
    834  N2         9.8580   10.2060   20.6860 N.pl3  41  DG41       -0.0859
    835  N3        12.1310   10.4340   20.9630 N.ar   41  DG41       -0.1918
    836  C4        13.2610    9.7290   21.1840 C.ar   41  DG41        0.1722
    837  P         15.8860   12.5470   25.7430 P.3    42  DT42        0.2141
    838  OP1       16.0970   13.8800   26.3420 O.3    42  DT42       -0.4373
    839  OP2       16.7440   11.4210   26.1670 O.2    42  DT42       -0.5172
    840  O5'       14.3520   12.1510   25.9690 O.3    42  DT42       -0.3114
    841  C5'       13.4070   13.1620   26.3050 C.3    42  DT42        0.1811
    842  C4'       11.9800   12.7520   25.9780 C.3    42  DT42        0.1746
    843  O4'       11.9140   11.9190   24.7870 O.3    42  DT42       -0.3327
    844  C3'       11.2990   11.9080   27.0410 C.3    42  DT42        0.1558
    845  O3'       10.8730   12.7020   28.1280 O.3    42  DT42       -0.3138
    846  C2'       10.1280   11.3700   26.2330 C.3    42  DT42        0.0866
    847  C1'       10.8700   10.9710   24.9550 C.3    42  DT42        0.2106
    848  N1        11.5180    9.6080   25.0850 N.ar   42  DT42       -0.2559
    849  C2        10.7990    8.4580   24.8190 C.ar   42  DT42        0.3545
    850  O2         9.5820    8.4160   24.8410 O.2    42  DT42       -0.2443
    851  N3        11.5600    7.3520   24.5260 N.ar   42  DT42       -0.1533
    852  C4        12.9360    7.2830   24.4730 C.ar   42  DT42        0.2804
    853  O4        13.4780    6.2160   24.1940 O.2    42  DT42       -0.2654
    854  C5        13.6100    8.5170   24.7620 C.ar   42  DT42        0.0534
    855  C6        12.8950    9.6080   25.0500 C.ar   42  DT42        0.0824
    856  C7        15.1090    8.5440   24.7310 C.3    42  DT42        0.0377
    857  P         11.3780   12.2450   29.5970 P.3    43  DA43        0.2141
    858  OP1       11.4060   13.3340   30.5980 O.3    43  DA43       -0.4373
    859  OP2       12.6270   11.5280   29.2490 O.2    43  DA43       -0.5172
    860  O5'       10.3900   11.0910   30.1020 O.3    43  DA43       -0.3114
    861  C5'        9.0460   11.4300   30.4040 C.3    43  DA43        0.1811
    862  C4'        8.1270   10.2320   30.3700 C.3    43  DA43        0.1746
    863  O4'        8.1080    9.6190   29.0560 O.3    43  DA43       -0.3327
    864  C3'        8.5020    9.0870   31.2890 C.3    43  DA43        0.1558
    865  O3'        8.1290    9.3470   32.6220 O.3    43  DA43       -0.3138
    866  C2'        7.7710    7.9050   30.6640 C.3    43  DA43        0.0865
    867  C1'        7.8990    8.2290   29.1760 C.3    43  DA43        0.2094
    868  N9         9.0470    7.5130   28.5150 N.ar   43  DA43       -0.2714
    869  C8        10.2230    7.9820   27.9910 C.ar   43  DA43        0.1815
    870  N7        10.9300    7.0660   27.3720 N.ar   43  DA43       -0.2193
    871  C5        10.1660    5.9160   27.5000 C.ar   43  DA43        0.1518
    872  C6        10.3630    4.5960   27.0580 C.ar   43  DA43        0.1919
    873  N6        11.4350    4.1990   26.3690 N.pl3  43  DA43       -0.1054
    874  N1         9.4080    3.6880   27.3520 N.ar   43  DA43       -0.2040
    875  C2         8.3330    4.0870   28.0420 C.ar   43  DA43        0.2016
    876  N3         8.0360    5.2970   28.5100 N.ar   43  DA43       -0.2048
    877  C4         9.0050    6.1760   28.2020 C.ar   43  DA43        0.1691
    878  P          9.2240    9.2430   33.7460 P.3    44  DC44        0.2141
    879  OP1        9.0230   10.0600   34.9680 O.3    44  DC44       -0.4373
    880  OP2       10.5460    8.6560   33.4210 O.2    44  DC44       -0.5172
    881  O5'        8.2040    8.0080   33.6940 O.3    44  DC44       -0.3114
    882  C5'        8.0440    7.0710   34.7410 C.3    44  DC44        0.1811
    883  C4'        7.4350    5.8050   34.2120 C.3    44  DC44        0.1746
    884  O4'        7.4840    5.8010   32.7640 O.3    44  DC44       -0.3327
    885  C3'        8.2070    4.5590   34.5850 C.3    44  DC44        0.1558
    886  O3'        7.9390    4.1210   35.8970 O.3    44  DC44       -0.3138
    887  C2'        7.8170    3.5680   33.5040 C.3    44  DC44        0.0866
    888  C1'        7.7610    4.4950   32.2950 C.3    44  DC44        0.2106
    889  N1         9.0510    4.4830   31.5880 N.ar   44  DC44       -0.2556
    890  C2         9.4830    3.3810   30.8400 C.ar   44  DC44        0.3531
    891  O2         8.8370    2.3220   30.9100 O.2    44  DC44       -0.2443
    892  N3        10.5880    3.5010   30.0670 N.ar   44  DC44       -0.1739
    893  C4        11.2500    4.6580   30.0240 C.ar   44  DC44        0.1759
    894  N4        12.3340    4.7290   29.2470 N.pl3  44  DC44       -0.1070
    895  C5        10.8290    5.7860   30.7740 C.ar   44  DC44        0.0566
    896  C6         9.7370    5.6630   31.5370 C.ar   44  DC44        0.0849
    897  P          9.2920    3.7480   36.6590 P.3    45  DC45        0.2141
    898  OP1        8.7470    3.6550   38.0490 O.3    45  DC45       -0.4373
    899  OP2       10.4290    4.6740   36.3690 O.2    45  DC45       -0.5172
    900  O5'        9.6970    2.2900   36.1490 O.3    45  DC45       -0.3114
    901  C5'        8.7540    1.2330   36.2290 C.3    45  DC45        0.1811
    902  C4'        9.0410    0.1490   35.2160 C.3    45  DC45        0.1746
    903  O4'        9.2490    0.7400   33.9010 O.3    45  DC45       -0.3327
    904  C3'       10.3370   -0.5970   35.4390 C.3    45  DC45        0.1558
    905  O3'       10.2330   -1.5530   36.4680 O.3    45  DC45       -0.3138
    906  C2'       10.6230   -1.1910   34.0650 C.3    45  DC45        0.0866
    907  C1'       10.1710   -0.0520   33.1630 C.3    45  DC45        0.2106
    908  N1        11.3530    0.6870   32.8180 N.ar   45  DC45       -0.2556
    909  C2        12.2690    0.2170   31.8690 C.ar   45  DC45        0.3531
    910  O2        12.1330   -0.9370   31.4280 O.2    45  DC45       -0.2443
    911  N3        13.2730    1.0300   31.4620 N.ar   45  DC45       -0.1739
    912  C4        13.3800    2.2610   31.9640 C.ar   45  DC45        0.1759
    913  N4        14.3850    3.0260   31.5330 N.pl3  45  DC45       -0.1070
    914  C5        12.4620    2.7560   32.9260 C.ar   45  DC45        0.0566
    915  C6        11.4730    1.9500   33.3250 C.ar   45  DC45        0.0849
    916  P         11.6480   -2.2820   37.0250 P.3    46  DG46        0.2141
    917  OP1       11.1530   -2.9690   38.2320 O.3    46  DG46       -0.4373
    918  OP2       12.4370   -1.0520   37.2520 O.2    46  DG46       -0.5172
    919  O5'       12.4770   -3.3590   36.1710 O.3    46  DG46       -0.3114
    920  C5'       11.7790   -4.4830   35.6340 C.3    46  DG46        0.1811
    921  C4'       12.0960   -4.7700   34.1710 C.3    46  DG46        0.1746
    922  O4'       12.0180   -3.5990   33.3050 O.3    46  DG46       -0.3327
    923  C3'       13.5020   -5.2610   33.9370 C.3    46  DG46        0.1558
    924  O3'       13.6000   -6.5810   34.2800 O.3    46  DG46       -0.3138
    925  C2'       13.7610   -4.9780   32.4710 C.3    46  DG46        0.0865
    926  C1'       13.1040   -3.5950   32.3830 C.3    46  DG46        0.2093
    927  N9        14.1370   -2.5430   32.6730 N.ar   46  DG46       -0.2728
    928  C8        13.7930   -1.4910   33.4870 C.ar   46  DG46        0.1814
    929  N7        14.6660   -0.5210   33.4720 N.ar   46  DG46       -0.2177
    930  C5        15.6450   -0.9540   32.5970 C.ar   46  DG46        0.1711
    931  C6        16.8480   -0.3320   32.1760 C.2    46  DG46        0.2985
    932  O6        17.2980    0.7710   32.5100 O.2    46  DG46       -0.2655
    933  N1        17.5560   -1.1230   31.2750 N.am   46  DG46       -0.1042
    934  C2        17.1540   -2.3610   30.8330 C.1    46  DG46        0.1459
    935  N2        17.9690   -2.9720   29.9630 N.2    46  DG46       -0.0041
    936  N3        16.0390   -2.9520   31.2160 N.pl3  46  DG46       -0.1259
    937  C4        15.3360   -2.2030   32.0920 C.ar   46  DG46        0.1688
    938  P         14.4340   -6.5810   35.3570 P.3    47  DT47        0.2141
    939  OP1       14.2230   -7.6160   36.3920 O.3    47  DT47       -0.4373
    940  OP2       15.5250   -5.5920   35.5000 O.2    47  DT47       -0.5172
    941  O5'       14.7400   -7.2980   33.9580 O.3    47  DT47       -0.3114
    942  C5'       16.0520   -7.7590   33.6620 C.3    47  DT47        0.1811
    943  C4'       16.5240   -7.2170   32.3360 C.3    47  DT47        0.1746
    944  O4'       16.1540   -5.8190   32.2360 O.3    47  DT47       -0.3327
    945  C3'       18.0270   -7.2440   32.0860 C.3    47  DT47        0.1558
    946  O3'       18.4720   -8.5040   31.6000 O.3    47  DT47       -0.3138
    947  C2'       18.2230   -6.0960   31.1010 C.3    47  DT47        0.0866
    948  C1'       17.1530   -5.0960   31.5500 C.3    47  DT47        0.2106
    949  N1        17.7460   -4.1040   32.5680 N.ar   47  DT47       -0.2573
    950  C2        18.7100   -3.2080   32.1480 C.ar   47  DT47        0.3344
    951  O2        19.1800   -3.2170   31.0240 O.3    47  DT47       -0.3054
    952  N3        19.1090   -2.2960   33.0950 N.ar   47  DT47       -0.1548
    953  C4        18.6500   -2.1920   34.3920 C.ar   47  DT47        0.2804
    954  O4        19.1040   -1.3180   35.1260 O.2    47  DT47       -0.2654
    955  C5        17.6510   -3.1580   34.7530 C.ar   47  DT47        0.0534
    956  C6        17.2450   -4.0560   33.8510 C.ar   47  DT47        0.0824
    957  C7        17.0890   -3.1280   36.1430 C.3    47  DT47        0.0377
    958  P         19.9200   -8.8690   31.0430 P.3    48  DT48        0.2141
    959  OP1       19.9600  -10.0810   30.1810 O.2    48  DT48       -0.5172
    960  OP2       20.1680   -8.9890   32.5070 O.3    48  DT48       -0.4373
    961  O5'       20.9340   -7.7910   30.4520 O.3    48  DT48       -0.3114
    962  C5'       20.9400   -7.5020   29.0610 C.3    48  DT48        0.1811
    963  C4'       21.3210   -6.0530   28.7970 C.3    48  DT48        0.1746
    964  O4'       20.6960   -5.1550   29.7640 O.3    48  DT48       -0.3327
    965  C3'       22.7900   -5.6670   28.8760 C.3    48  DT48        0.1558
    966  O3'       23.5280   -6.0160   27.7150 O.3    48  DT48       -0.3138
    967  C2'       22.7240   -4.1510   29.0190 C.3    48  DT48        0.0866
    968  C1'       21.4780   -3.9650   29.8890 C.3    48  DT48        0.2106
    969  N1        22.0270   -3.9420   31.2500 N.ar   48  DT48       -0.2559
    970  C2        22.4120   -2.7250   31.7800 C.ar   48  DT48        0.3545
    971  O2        22.5090   -1.7110   31.1120 O.2    48  DT48       -0.2443
    972  N3        22.6830   -2.7380   33.1270 N.ar   48  DT48       -0.1533
    973  C4        22.6090   -3.8210   33.9780 C.ar   48  DT48        0.2804
    974  O4        22.8820   -3.6750   35.1670 O.2    48  DT48       -0.2654
    975  C5        22.2030   -5.0480   33.3530 C.ar   48  DT48        0.0534
    976  C6        21.9340   -5.0640   32.0440 C.ar   48  DT48        0.0824
    977  C7        22.0930   -6.2840   34.1960 C.3    48  DT48        0.0377
    978  P         24.8770   -5.5830   27.3280 P.3    49  DC49        0.2141
    979  OP1       25.2600   -5.6080   25.8880 O.2    49  DC49       -0.5172
    980  OP2       25.6700   -6.3560   28.3140 O.3    49  DC49       -0.4373
    981  O5'       24.8090   -4.0570   27.7710 O.3    49  DC49       -0.3114
    982  C5'       24.8530   -3.0050   26.7920 C.3    49  DC49        0.1812
    983  C4'       23.4610   -2.5000   26.5020 C.3    49  DC49        0.1775
    984  O4'       22.8160   -2.0760   27.7420 O.3    49  DC49       -0.3326
    985  C3'       23.3910   -1.3000   25.5600 C.3    49  DC49        0.1864
    986  O3'       22.1940   -1.3590   24.7790 O.3    49  DC49       -0.2133
    987  C2'       23.2720   -0.1350   26.5400 C.3    49  DC49        0.0895
    988  C1'       22.3620   -0.7470   27.5950 C.3    49  DC49        0.2107
    989  N1        21.8110   -0.1090   28.6200 N.ar   49  DC49       -0.2556
    990  C2        22.7980    0.7870   29.0480 C.ar   49  DC49        0.3531
    991  O2        23.8600    0.8570   28.4080 O.2    49  DC49       -0.2443
    992  N3        22.5670    1.5480   30.1440 N.ar   49  DC49       -0.1739
    993  C4        21.4110    1.4390   30.8010 C.ar   49  DC49        0.1759
    994  N4        21.2280    2.2090   31.8760 N.pl3  49  DC49       -0.1070
    995  C5        20.3990    0.5370   30.3830 C.ar   49  DC49        0.0566
    996  C6        20.6310   -0.2120   29.3000 C.ar   49  DC49        0.0849
    997  P         21.9000   -2.0990   23.2530 P.3    50  DG50        0.3939
    998  OP1       22.2960   -2.8480   22.0530 O.3    50  DG50       -0.1425
    999  OP2       22.0330   -0.6270   23.2670 O.3    50  DG50       -0.1496
   1000  O5'       20.3850   -2.4730   23.5280 O.3    50  DG50       -0.2926
   1001  C5'       19.9620   -3.8170   23.3130 C.3    50  DG50        0.1828
   1002  C4'       18.8850   -4.2140   24.2890 C.3    50  DG50        0.1747
   1003  O4'       19.1330   -3.6590   25.6060 O.3    50  DG50       -0.3327
   1004  C3'       17.4760   -3.7420   24.0140 C.3    50  DG50        0.1558
   1005  O3'       16.9250   -4.4970   22.9460 O.3    50  DG50       -0.3138
   1006  C2'       16.8270   -4.0930   25.3450 C.3    50  DG50        0.0865
   1007  C1'       17.9140   -3.6500   26.3270 C.3    50  DG50        0.2094
   1008  N9        17.7000   -2.3650   26.9060 N.ar   50  DG50       -0.2713
   1009  C8        18.5170   -1.2730   26.7390 C.ar   50  DG50        0.1816
   1010  N7        18.1530   -0.2420   27.4510 N.ar   50  DG50       -0.2173
   1011  C5        17.0300   -0.6750   28.1320 C.ar   50  DG50        0.1748
   1012  C6        16.1920    0.0010   29.0560 C.ar   50  DG50        0.3023
   1013  O6        16.2880    1.1630   29.4680 O.2    50  DG50       -0.2633
   1014  N1        15.1560   -0.8110   29.5100 N.ar   50  DG50       -0.1709
   1015  C2        14.9520   -2.1130   29.1210 C.ar   50  DG50        0.2606
   1016  N2        13.8990   -2.7350   29.6690 N.pl3  50  DG50       -0.0859
   1017  N3        15.7210   -2.7540   28.2630 N.ar   50  DG50       -0.1918
   1018  C4        16.7330   -1.9860   27.8090 C.ar   50  DG50        0.1722
   1019  P         15.6960   -3.8590   21.9670 P.3    51  DA51        0.2141
   1020  OP1       15.3340   -4.7790   20.8540 O.2    51  DA51       -0.5172
   1021  OP2       15.8650   -2.4070   21.6790 O.3    51  DA51       -0.4373
   1022  O5'       14.5940   -3.9810   23.1170 O.3    51  DA51       -0.3114
   1023  C5'       14.0840   -5.2520   23.4790 C.3    51  DA51        0.1811
   1024  C4'       12.9910   -5.1050   24.4930 C.3    51  DA51        0.1746
   1025  O4'       13.4480   -4.3520   25.6300 O.3    51  DA51       -0.3327
   1026  C3'       11.8150   -4.3150   23.9970 C.3    51  DA51        0.1558
   1027  O3'       10.9940   -5.1840   23.2610 O.3    51  DA51       -0.3138
   1028  C2'       11.1580   -3.8310   25.2800 C.3    51  DA51        0.0865
   1029  C1'       12.3650   -3.6670   26.1910 C.3    51  DA51        0.2094
   1030  N9        12.5990   -2.2850   26.1830 N.ar   51  DA51       -0.2714
   1031  C8        13.5380   -1.7190   25.3610 C.ar   51  DA51        0.1815
   1032  N7        13.6500   -0.4190   25.5010 N.ar   51  DA51       -0.2193
   1033  C5        12.7210   -0.1100   26.4810 C.ar   51  DA51        0.1518
   1034  C6        12.3500    1.1050   27.0840 C.ar   51  DA51        0.1919
   1035  N6        12.8970    2.2820   26.7710 N.pl3  51  DA51       -0.1054
   1036  N1        11.3870    1.0670   28.0290 N.ar   51  DA51       -0.2040
   1037  C2        10.8400   -0.1130   28.3420 C.ar   51  DA51        0.2016
   1038  N3        11.1050   -1.3200   27.8470 N.ar   51  DA51       -0.2048
   1039  C4        12.0650   -1.2490   26.9100 C.ar   51  DA51        0.1691
   1040  P         10.3490   -4.6150   22.3260 P.3    52  DT52        0.2141
   1041  OP1       10.2210   -5.7670   21.3920 O.2    52  DT52       -0.5172
   1042  OP2       11.2050   -3.4490   21.9650 O.3    52  DT52       -0.4373
   1043  O5'        8.8940   -4.1450   22.7090 O.3    52  DT52       -0.3114
   1044  C5'        8.1690   -4.9120   23.6530 C.3    52  DT52        0.1811
   1045  C4'        7.2430   -4.0220   24.4190 C.3    52  DT52        0.1746
   1046  O4'        7.9210   -3.3090   25.4810 O.3    52  DT52       -0.3327
   1047  C3'        6.7510   -2.9040   23.5530 C.3    52  DT52        0.1558
   1048  O3'        5.7530   -3.3850   22.7510 O.3    52  DT52       -0.3138
   1049  C2'        6.2720   -1.8900   24.5640 C.3    52  DT52        0.0866
   1050  C1'        7.4130   -1.9780   25.5640 C.3    52  DT52        0.2106
   1051  N1         8.4030   -1.0070   25.2020 N.ar   52  DT52       -0.2559
   1052  C2         8.4390    0.2550   25.7630 C.ar   52  DT52        0.3545
   1053  O2         7.5920    0.6610   26.5390 O.2    52  DT52       -0.2443
   1054  N3         9.5080    1.0300   25.3830 N.ar   52  DT52       -0.1533
   1055  C4        10.5220    0.6770   24.5160 C.ar   52  DT52        0.2804
   1056  O4        11.4160    1.4830   24.2720 O.2    52  DT52       -0.2654
   1057  C5        10.4130   -0.6480   23.9740 C.ar   52  DT52        0.0534
   1058  C6         9.3840   -1.4230   24.3270 C.ar   52  DT52        0.0824
   1059  C7        11.4680   -1.1250   23.0200 C.3    52  DT52        0.0377
   1060  P          5.5260   -2.7490   21.4320 P.3    53  DA53        0.2141
   1061  OP1        4.3520   -3.3350   20.7410 O.2    53  DA53       -0.5172
   1062  OP2        6.8750   -2.8320   20.8170 O.3    53  DA53       -0.4373
   1063  O5'        5.1810   -1.2200   21.7520 O.3    53  DA53       -0.3114
   1064  C5'        4.0240   -0.9350   22.5260 C.3    53  DA53        0.1811
   1065  C4'        3.9230    0.5540   22.8000 C.3    53  DA53        0.1746
   1066  O4'        4.9530    0.9740   23.7290 O.3    53  DA53       -0.3327
   1067  C3'        4.1390    1.4220   21.5790 C.3    53  DA53        0.1558
   1068  O3'        2.8990    1.5340   20.8970 O.3    53  DA53       -0.3138
   1069  C2'        4.5730    2.7420   22.2100 C.3    53  DA53        0.0865
   1070  C1'        5.3720    2.2890   23.4310 C.3    53  DA53        0.2094
   1071  N9         6.8250    2.2490   23.3730 N.ar   53  DA53       -0.2714
   1072  C8         7.6520    1.2630   22.9020 C.ar   53  DA53        0.1815
   1073  N7         8.9140    1.6160   22.8380 N.ar   53  DA53       -0.2193
   1074  C5         8.9160    2.9230   23.2980 C.ar   53  DA53        0.1518
   1075  C6         9.9480    3.8620   23.4750 C.ar   53  DA53        0.1919
   1076  N6        11.2300    3.6130   23.1980 N.pl3  53  DA53       -0.1054
   1077  N1         9.6110    5.0800   23.9520 N.ar   53  DA53       -0.2040
   1078  C2         8.3270    5.3280   24.2310 C.ar   53  DA53        0.2016
   1079  N3         7.2700    4.5280   24.1070 N.ar   53  DA53       -0.2048
   1080  C4         7.6370    3.3270   23.6300 C.ar   53  DA53        0.1691
   1081  P          2.6960    2.3730   19.0170 P.3    54  DT54        0.2141
   1082  OP1        1.3880    2.4870   18.3320 O.2    54  DT54       -0.5172
   1083  OP2        3.7670    1.5080   18.4810 O.3    54  DT54       -0.4373
   1084  O5'        3.3720    3.8200   19.1150 O.3    54  DT54       -0.3114
   1085  C5'        2.5550    4.9310   19.4530 C.3    54  DT54        0.1811
   1086  C4'        3.3810    6.1540   19.7430 C.3    54  DT54        0.1746
   1087  O4'        4.3310    5.8530   20.7920 O.3    54  DT54       -0.3327
   1088  C3'        4.2630    6.6410   18.6120 C.3    54  DT54        0.1558
   1089  O3'        3.5620    7.4100   17.6650 O.3    54  DT54       -0.3138
   1090  C2'        5.3340    7.4360   19.3360 C.3    54  DT54        0.0866
   1091  C1'        5.5280    6.5710   20.5760 C.3    54  DT54        0.2106
   1092  N1         6.6540    5.6020   20.3900 N.ar   54  DT54       -0.2559
   1093  C2         7.9360    6.0520   20.6400 C.ar   54  DT54        0.3545
   1094  O2         8.1930    7.2120   20.9080 O.2    54  DT54       -0.2443
   1095  N3         8.9150    5.0900   20.5630 N.ar   54  DT54       -0.1533
   1096  C4         8.7430    3.7540   20.2680 C.ar   54  DT54        0.2804
   1097  O4         9.7210    3.0110   20.2370 O.2    54  DT54       -0.2654
   1098  C5         7.3830    3.3650   20.0200 C.ar   54  DT54        0.0534
   1099  C6         6.4120    4.2790   20.0890 C.ar   54  DT54        0.0824
   1100  C7         7.0920    1.9310   19.6900 C.3    54  DT54        0.0377
   1101  P          3.9990    7.1860   16.4030 P.3    55  DC55        0.2141
   1102  OP1        2.9960    7.8300   15.5270 O.2    55  DC55       -0.5172
   1103  OP2        4.3740    5.7750   16.1720 O.3    55  DC55       -0.4373
   1104  O5'        5.3160    8.0850   16.3780 O.3    55  DC55       -0.3114
   1105  C5'        5.2740    9.4040   16.8900 C.3    55  DC55        0.1811
   1106  C4'        6.6660    9.9930   16.9040 C.3    55  DC55        0.1746
   1107  O4'        7.4260    9.4750   18.0240 O.3    55  DC55       -0.3327
   1108  C3'        7.4990    9.6350   15.6880 C.3    55  DC55        0.1558
   1109  O3'        7.1720   10.4740   14.5940 O.3    55  DC55       -0.3138
   1110  C2'        8.8850    9.9410   16.2300 C.3    55  DC55        0.0866
   1111  C1'        8.7700    9.3080   17.6080 C.3    55  DC55        0.2106
   1112  N1         9.1180    7.7820   17.5390 N.ar   55  DC55       -0.2556
   1113  C2        10.4660    7.4140   17.4600 C.ar   55  DC55        0.3531
   1114  O2        11.3290    8.3080   17.4290 O.2    55  DC55       -0.2443
   1115  N3        10.7890    6.0990   17.4180 N.ar   55  DC55       -0.1739
   1116  C4         9.8290    5.1750   17.4520 C.ar   55  DC55        0.1759
   1117  N4        10.1950    3.8920   17.4080 N.pl3  55  DC55       -0.1070
   1118  C5         8.4570    5.5270   17.5320 C.ar   55  DC55        0.0566
   1119  C6         8.1420    6.8270   17.5730 C.ar   55  DC55        0.0849
   1120  P          6.9370    9.8420   13.3290 P.3    56  DG56        0.2141
   1121  OP1        6.1370   10.8600   12.5840 O.2    56  DG56       -0.5172
   1122  OP2        6.5050    8.4130   13.3400 O.3    56  DG56       -0.4373
   1123  O5'        8.4360    9.9080   12.7990 O.3    56  DG56       -0.3114
   1124  C5'        9.1210   11.1640   12.6980 C.3    56  DG56        0.1811
   1125  C4'       10.5810   10.9330   12.4320 C.3    56  DG56        0.1746
   1126  O4'       11.1510   10.2060   13.5470 O.3    56  DG56       -0.3327
   1127  C3'       10.8780   10.0620   11.2220 C.3    56  DG56        0.1558
   1128  O3'       10.8800   10.8000   10.0070 O.3    56  DG56       -0.3138
   1129  C2'       12.2380    9.4690   11.5590 C.3    56  DG56        0.0865
   1130  C1'       12.1260    9.2940   13.0730 C.3    56  DG56        0.2094
   1131  N9        11.6460    7.9730   13.3950 N.ar   56  DG56       -0.2713
   1132  C8        10.3480    7.5880   13.6250 C.ar   56  DG56        0.1816
   1133  N7        10.2040    6.2940   13.7210 N.ar   56  DG56       -0.2173
   1134  C5        11.4800    5.7930   13.5460 C.ar   56  DG56        0.1748
   1135  C6        11.9550    4.4560   13.5440 C.ar   56  DG56        0.3023
   1136  O6        11.3080    3.4130   13.7040 O.2    56  DG56       -0.2633
   1137  N1        13.3280    4.3910   13.3280 N.ar   56  DG56       -0.1709
   1138  C2        14.1450    5.4810   13.1380 C.ar   56  DG56        0.2606
   1139  N2        15.4450    5.2190   12.9460 N.pl3  56  DG56       -0.0859
   1140  N3        13.7180    6.7280   13.1370 N.ar   56  DG56       -0.1918
   1141  C4        12.3870    6.8150   13.3430 C.ar   56  DG56        0.1722
   1142  P         10.7940   10.0010    8.6590 P.3    57  DT57        0.2141
   1143  OP1       11.2550   11.0450    7.7180 O.2    57  DT57       -0.5172
   1144  OP2        9.6350    9.1540    8.3020 O.3    57  DT57       -0.4373
   1145  O5'       12.0100    9.0240    9.0080 O.3    57  DT57       -0.3114
   1146  C5'       13.3460    9.5060    9.0900 C.3    57  DT57        0.1811
   1147  C4'       14.3150    8.3500    8.9450 C.3    57  DT57        0.1746
   1148  O4'       14.3150    7.5420   10.1490 O.3    57  DT57       -0.3327
   1149  C3'       13.9450    7.3390    7.8720 C.3    57  DT57        0.1558
   1150  O3'       14.2290    7.8160    6.5650 O.3    57  DT57       -0.3138
   1151  C2'       14.8050    6.1540    8.2950 C.3    57  DT57        0.0866
   1152  C1'       14.5790    6.1910    9.8050 C.3    57  DT57        0.2106
   1153  N1        13.4450    5.3060   10.1070 N.ar   57  DT57       -0.2559
   1154  C2        13.5830    3.9570   10.3700 C.ar   57  DT57        0.3545
   1155  O2        14.6230    3.3480   10.1940 O.2    57  DT57       -0.2443
   1156  N3        12.4520    3.3390   10.8470 N.ar   57  DT57       -0.1533
   1157  C4        11.2250    3.9240   11.0840 C.ar   57  DT57        0.2804
   1158  O4        10.3010    3.2380   11.5160 O.2    57  DT57       -0.2654
   1159  C5        11.1620    5.3270   10.7860 C.ar   57  DT57        0.0534
   1160  C6        12.2470    5.9520   10.3200 C.ar   57  DT57        0.0824
   1161  C7         9.8690    6.0540   11.0100 C.3    57  DT57        0.0377
   1162  P         13.1160    7.4190    5.2440 P.3    58  DG58        0.2141
   1163  OP1       13.4550    8.2930    4.0910 O.2    58  DG58       -0.5172
   1164  OP2       11.7540    7.4730    5.8350 O.3    58  DG58       -0.4373
   1165  O5'       13.4520    5.8910    4.9080 O.3    58  DG58       -0.3114
   1166  C5'       14.6760    5.5200    4.2720 C.3    58  DG58        0.1811
   1167  C4'       14.8170    4.0070    4.2060 C.3    58  DG58        0.1746
   1168  O4'       14.8930    3.4570    5.5480 O.3    58  DG58       -0.3327
   1169  C3'       13.7130    3.1870    3.5530 C.3    58  DG58        0.1558
   1170  O3'       13.7430    3.1720    2.1220 O.3    58  DG58       -0.3138
   1171  C2'       13.9780    1.7990    4.1290 C.3    58  DG58        0.0865
   1172  C1'       14.4140    2.1200    5.5530 C.3    58  DG58        0.2094
   1173  N9        13.2690    2.0480    6.2990 N.ar   58  DG58       -0.2713
   1174  C8        12.5200    3.1370    6.6740 C.ar   58  DG58        0.1816
   1175  N7        11.4990    2.8260    7.4250 N.ar   58  DG58       -0.2173
   1176  C5        11.5770    1.4520    7.5580 C.ar   58  DG58        0.1748
   1177  C6        10.7420    0.5430    8.2580 C.ar   58  DG58        0.3023
   1178  O6         9.7300    0.7920    8.9260 O.2    58  DG58       -0.2633
   1179  N1        11.1810   -0.7720    8.1310 N.ar   58  DG58       -0.1709
   1180  C2        12.2880   -1.1630    7.4160 C.ar   58  DG58        0.2606
   1181  N2        12.5530   -2.4760    7.4100 N.pl3  58  DG58       -0.0859
   1182  N3        13.0720   -0.3310    6.7590 N.ar   58  DG58       -0.1918
   1183  C4        12.6640    0.9510    6.8690 C.ar   58  DG58        0.1722
   1184  P         12.4990    2.4490    1.3790 P.3    59  DG59        0.2141
   1185  OP1       12.9410    2.6260   -0.0230 O.2    59  DG59       -0.5172
   1186  OP2       11.3480    3.1730    1.9780 O.3    59  DG59       -0.4373
   1187  O5'       12.0930    0.9240    1.5830 O.3    59  DG59       -0.3114
   1188  C5'       13.0120   -0.1220    1.3170 C.3    59  DG59        0.1811
   1189  C4'       12.3450   -1.4050    1.7150 C.3    59  DG59        0.1746
   1190  O4'       11.7540   -1.2090    3.0160 O.3    59  DG59       -0.3327
   1191  C3'       11.2310   -1.8390    0.7770 C.3    59  DG59        0.1558
   1192  O3'       11.5720   -3.1200    0.2860 O.3    59  DG59       -0.3138
   1193  C2'        9.9410   -1.8420    1.5970 C.3    59  DG59        0.0865
   1194  C1'       10.4440   -1.7040    3.0420 C.3    59  DG59        0.2094
   1195  N9         9.7290   -0.9940    4.0640 N.ar   59  DG59       -0.2713
   1196  C8         9.9050    0.3360    4.3610 C.ar   59  DG59        0.1816
   1197  N7         9.1790    0.7400    5.3670 N.ar   59  DG59       -0.2173
   1198  C5         8.4820   -0.3870    5.7620 C.ar   59  DG59        0.1748
   1199  C6         7.5350   -0.5700    6.8020 C.ar   59  DG59        0.3023
   1200  O6         7.1150    0.2660    7.6110 O.2    59  DG59       -0.2633
   1201  N1         7.0680   -1.8810    6.8560 N.ar   59  DG59       -0.1709
   1202  C2         7.4640   -2.8900    6.0120 C.ar   59  DG59        0.2606
   1203  N2         6.9030   -4.0890    6.2200 N.pl3  59  DG59       -0.0859
   1204  N3         8.3410   -2.7350    5.0400 N.ar   59  DG59       -0.1918
   1205  C4         8.8080   -1.4700    4.9680 C.ar   59  DG59        0.1722
   1206  P         11.2010   -3.6610   -1.4180 P.3    60  DG60        0.2141
   1207  OP1       10.9420   -2.4040   -2.1690 O.2    60  DG60       -0.5172
   1208  OP2       10.0610   -4.4310   -0.8530 O.3    60  DG60       -0.4373
   1209  O5'       12.0240   -4.6590   -2.3520 O.3    60  DG60       -0.3114
   1210  C5'       12.1610   -6.0360   -2.0090 C.3    60  DG60        0.1811
   1211  C4'       13.4220   -6.6060   -2.6150 C.3    60  DG60        0.1746
   1212  O4'       14.0340   -7.5030   -1.6500 O.3    60  DG60       -0.3327
   1213  C3'       13.2050   -7.4490   -3.8560 C.3    60  DG60        0.1558
   1214  O3'       13.4340   -6.9790   -5.1760 O.3    60  DG60       -0.3138
   1215  C2'       13.2220   -8.9110   -3.4350 C.3    60  DG60        0.0865
   1216  C1'       13.8650   -8.8590   -2.0460 C.3    60  DG60        0.2094
   1217  N9        12.7050   -9.6110   -1.4090 N.ar   60  DG60       -0.2713
   1218  C8        11.4990   -9.2070   -0.8910 C.ar   60  DG60        0.1816
   1219  N7        10.6740  -10.1950   -0.6750 N.ar   60  DG60       -0.2173
   1220  C5        11.3740  -11.3190   -1.0720 C.ar   60  DG60        0.1748
   1221  C6        10.9990  -12.6870   -1.0760 C.ar   60  DG60        0.3023
   1222  O6         9.9270  -13.1880   -0.7110 O.2    60  DG60       -0.2633
   1223  N1        12.0140  -13.5050   -1.5640 N.ar   60  DG60       -0.1709
   1224  C2        13.2410  -13.0590   -1.9950 C.ar   60  DG60        0.2606
   1225  N2        14.0910  -13.9990   -2.4300 N.pl3  60  DG60       -0.0859
   1226  N3        13.6040  -11.7920   -1.9980 N.ar   60  DG60       -0.1918
   1227  C4        12.6330  -10.9790   -1.5290 C.ar   60  DG60        0.1722
   1228  P         12.2430   -6.9330   -6.1380 P.3    61  DG61        0.2141
   1229  OP1       12.9900   -6.1020   -7.1180 O.2    61  DG61       -0.5172
   1230  OP2       10.7950   -6.7130   -5.9370 O.3    61  DG61       -0.4373
   1231  O5'       12.4360   -8.4760   -6.4900 O.3    61  DG61       -0.3114
   1232  C5'       13.7010   -8.9510   -6.9550 C.3    61  DG61        0.1811
   1233  C4'       13.8010  -10.4540   -6.8340 C.3    61  DG61        0.1746
   1234  O4'       13.5910  -10.8750   -5.4590 O.3    61  DG61       -0.3327
   1235  C3'       12.8270  -11.3100   -7.6240 C.3    61  DG61        0.1558
   1236  O3'       13.1850  -11.4620   -8.9920 O.3    61  DG61       -0.3138
   1237  C2'       12.9470  -12.6440   -6.9030 C.3    61  DG61        0.0865
   1238  C1'       13.0930  -12.2010   -5.4470 C.3    61  DG61        0.2094
   1239  N9        11.7560  -12.3720   -4.9340 N.ar   61  DG61       -0.2713
   1240  C8        10.7710  -11.4170   -4.8670 C.ar   61  DG61        0.1816
   1241  N7         9.6610  -11.8580   -4.3390 N.ar   61  DG61       -0.2173
   1242  C5         9.9270  -13.1810   -4.0380 C.ar   61  DG61        0.1748
   1243  C6         9.1060  -14.1760   -3.4490 C.ar   61  DG61        0.3023
   1244  O6         7.9340  -14.0730   -3.0640 O.2    61  DG61       -0.2633
   1245  N1         9.7710  -15.3930   -3.3230 N.ar   61  DG61       -0.1709
   1246  C2        11.0680  -15.6210   -3.7150 C.ar   61  DG61        0.2606
   1247  N2        11.5370  -16.8600   -3.5110 N.pl3  61  DG61       -0.0859
   1248  N3        11.8430  -14.7070   -4.2640 N.ar   61  DG61       -0.1918
   1249  C4        11.2180  -13.5180   -4.3970 C.ar   61  DG61        0.1722
   1250  P         12.1850  -11.2620   -9.8230 P.3    62  DA62        0.2141
   1251  OP1       12.7930  -12.0130  -10.9580 O.2    62  DA62       -0.5172
   1252  OP2       12.2320   -9.7790   -9.8150 O.3    62  DA62       -0.4373
   1253  O5'       10.6760  -11.7390   -9.6710 O.3    62  DA62       -0.3114
   1254  C5'       10.3700  -13.1250   -9.6150 C.3    62  DA62        0.1811
   1255  C4'        9.1320  -13.3370   -8.8020 C.3    62  DA62        0.1746
   1256  O4'        9.2970  -12.5980   -7.5840 O.3    62  DA62       -0.3327
   1257  C3'        7.8530  -12.8150   -9.4290 C.3    62  DA62        0.1558
   1258  O3'        7.2650  -13.9280  -10.0830 O.3    62  DA62       -0.3138
   1259  C2'        6.9960  -12.4440   -8.2270 C.3    62  DA62        0.0865
   1260  C1'        8.0560  -12.0700   -7.1820 C.3    62  DA62        0.2094
   1261  N9         8.2850  -10.6840   -6.9630 N.ar   62  DA62       -0.2714
   1262  C8         9.1820   -9.9030   -7.6430 C.ar   62  DA62        0.1815
   1263  N7         9.0970   -8.6260   -7.3540 N.ar   62  DA62       -0.2193
   1264  C5         8.0740   -8.5640   -6.4220 C.ar   62  DA62        0.1518
   1265  C6         7.4950   -7.4910   -5.7220 C.ar   62  DA62        0.1919
   1266  N6         7.8850   -6.2220   -5.8610 N.pl3  62  DA62       -0.1054
   1267  N1         6.4900   -7.7710   -4.8650 N.ar   62  DA62       -0.2040
   1268  C2         6.1000   -9.0430   -4.7260 C.ar   62  DA62        0.2016
   1269  N3         6.5670  -10.1360   -5.3270 N.ar   62  DA62       -0.2048
   1270  C4         7.5630   -9.8240   -6.1720 C.ar   62  DA62        0.1691
   1271  P          6.0380  -13.7690  -10.9020 P.3    63  DA63        0.2141
   1272  OP1        5.0440  -14.7420  -11.4350 O.3    63  DA63       -0.4373
   1273  OP2        6.4870  -12.6380  -11.7570 O.2    63  DA63       -0.5172
   1274  O5'        5.4190  -13.1410   -9.5880 O.3    63  DA63       -0.3114
   1275  C5'        4.5800  -13.9120   -8.7290 C.3    63  DA63        0.1811
   1276  C4'        3.7750  -12.9950   -7.8540 C.3    63  DA63        0.1746
   1277  O4'        4.6820  -12.2330   -7.0180 O.3    63  DA63       -0.3327
   1278  C3'        2.9320  -11.9540   -8.5760 C.3    63  DA63        0.1558
   1279  O3'        1.6650  -12.4990   -8.9180 O.3    63  DA63       -0.3138
   1280  C2'        2.7970  -10.8820   -7.5100 C.3    63  DA63        0.0865
   1281  C1'        4.1730  -10.9310   -6.8380 C.3    63  DA63        0.2094
   1282  N9         5.1140   -9.9770   -7.4480 N.ar   63  DA63       -0.2714
   1283  C8         6.0090  -10.1890   -8.4640 C.ar   63  DA63        0.1815
   1284  N7         6.7050   -9.1240   -8.7860 N.ar   63  DA63       -0.2193
   1285  C5         6.2350   -8.1470   -7.9240 C.ar   63  DA63        0.1518
   1286  C6         6.5700   -6.7910   -7.7570 C.ar   63  DA63        0.1919
   1287  N6         7.4970   -6.1640   -8.4850 N.pl3  63  DA63       -0.1054
   1288  N1         5.9110   -6.0950   -6.8070 N.ar   63  DA63       -0.2040
   1289  C2         4.9830   -6.7250   -6.0770 C.ar   63  DA63        0.2016
   1290  N3         4.5820   -7.9930   -6.1400 N.ar   63  DA63       -0.2048
   1291  C4         5.2540   -8.6560   -7.0940 C.ar   63  DA63        0.1691
   1292  P          0.6530  -11.7110  -10.0240 P.3    64  DG64        0.2141
   1293  OP1       -0.7500  -12.1930  -10.1040 O.3    64  DG64       -0.4373
   1294  OP2        1.4670  -11.5690  -11.2590 O.2    64  DG64       -0.5172
   1295  O5'        0.6480  -10.3050   -9.2420 O.3    64  DG64       -0.3114
   1296  C5'        0.0810  -10.1990   -7.9400 C.3    64  DG64        0.1811
   1297  C4'        0.2810   -8.8080   -7.3690 C.3    64  DG64        0.1746
   1298  O4'        1.6820   -8.4730   -7.2740 O.3    64  DG64       -0.3327
   1299  C3'       -0.2610   -7.6860   -8.2290 C.3    64  DG64        0.1558
   1300  O3'       -1.6600   -7.6150   -8.0610 O.3    64  DG64       -0.3138
   1301  C2'        0.4560   -6.4770   -7.6340 C.3    64  DG64        0.0865
   1302  C1'        1.8290   -7.0640   -7.3530 C.3    64  DG64        0.2094
   1303  N9         2.7640   -6.5810   -8.2870 N.ar   64  DG64       -0.2713
   1304  C8         3.2910   -7.2770   -9.3470 C.ar   64  DG64        0.1816
   1305  N7         4.0820   -6.5570  -10.0950 N.ar   64  DG64       -0.2173
   1306  C5         4.0800   -5.3110   -9.4960 C.ar   64  DG64        0.1748
   1307  C6         4.7510   -4.1130   -9.8530 C.ar   64  DG64        0.3023
   1308  O6         5.5100   -3.9170  -10.8110 O.2    64  DG64       -0.2633
   1309  N1         4.4700   -3.0750   -8.9690 N.ar   64  DG64       -0.1709
   1310  C2         3.6450   -3.1780   -7.8750 C.ar   64  DG64        0.2606
   1311  N2         3.4980   -2.0680   -7.1390 N.pl3  64  DG64       -0.0859
   1312  N3         3.0150   -4.2840   -7.5310 N.ar   64  DG64       -0.1918
   1313  C4         3.2710   -5.3050   -8.3750 C.ar   64  DG64        0.1722
   1314  P         -2.6470   -6.9310   -9.3000 P.3    65  DA65        0.2141
   1315  OP1       -4.0560   -7.3240   -9.0780 O.3    65  DA65       -0.4373
   1316  OP2       -2.0830   -7.1090  -10.6470 O.2    65  DA65       -0.5172
   1317  O5'       -2.4260   -5.4000   -8.9350 O.3    65  DA65       -0.3114
   1318  C5'       -2.8900   -4.9010   -7.6990 C.3    65  DA65        0.1811
   1319  C4'       -2.5470   -3.4320   -7.6020 C.3    65  DA65        0.1746
   1320  O4'       -1.1030   -3.3080   -7.4790 O.3    65  DA65       -0.3327
   1321  C3'       -2.9230   -2.6170   -8.8390 C.3    65  DA65        0.1558
   1322  O3'       -4.2770   -2.1370   -8.8130 O.3    65  DA65       -0.3138
   1323  C2'       -1.9130   -1.4810   -8.7680 C.3    65  DA65        0.0865
   1324  C1'       -0.6650   -2.2010   -8.2470 C.3    65  DA65        0.2094
   1325  N9         0.2000   -2.6970   -9.2760 N.ar   65  DA65       -0.2714
   1326  C8         0.2610   -3.9930   -9.7160 C.ar   65  DA65        0.1815
   1327  N7         1.1240   -4.1820  -10.6860 N.ar   65  DA65       -0.2193
   1328  C5         1.6660   -2.9240  -10.8980 C.ar   65  DA65        0.1518
   1329  C6         2.6400   -2.4520  -11.7940 C.ar   65  DA65        0.1919
   1330  N6         3.2670   -3.2290  -12.6810 N.pl3  65  DA65       -0.1054
   1331  N1         2.9520   -1.1390  -11.7470 N.ar   65  DA65       -0.2040
   1332  C2         2.3240   -0.3620  -10.8580 C.ar   65  DA65        0.2016
   1333  N3         1.3930   -0.6890   -9.9640 N.ar   65  DA65       -0.2048
   1334  C4         1.1050   -1.9990  -10.0370 C.ar   65  DA65        0.1691
   1335  P         -5.1530   -1.9420  -10.2710 P.3    66  DC66        0.2141
   1336  OP1       -6.5430   -1.4470  -10.2050 O.3    66  DC66       -0.4373
   1337  OP2       -4.8000   -3.1390  -11.0740 O.2    66  DC66       -0.5172
   1338  O5'       -4.2640   -0.6770  -10.6480 O.3    66  DC66       -0.3114
   1339  C5'       -4.5780    0.5600  -10.0310 C.3    66  DC66        0.1811
   1340  C4'       -3.6150    1.6330  -10.4830 C.3    66  DC66        0.1746
   1341  O4'       -2.2720    1.1240  -10.3550 O.3    66  DC66       -0.3327
   1342  C3'       -3.7090    1.9660  -11.9480 C.3    66  DC66        0.1558
   1343  O3'       -4.7170    2.9010  -12.1830 O.3    66  DC66       -0.3138
   1344  C2'       -2.3450    2.5700  -12.1780 C.3    66  DC66        0.0866
   1345  C1'       -1.4630    1.6100  -11.4040 C.3    66  DC66        0.2106
   1346  N1        -0.9520    0.4690  -12.2230 N.ar   66  DC66       -0.2556
   1347  C2         0.1100    0.7080  -13.1030 C.ar   66  DC66        0.3531
   1348  O2         0.5930    1.8510  -13.1610 O.2    66  DC66       -0.2443
   1349  N3         0.5790   -0.3110  -13.8630 N.ar   66  DC66       -0.1739
   1350  C4         0.0290   -1.5220  -13.7670 C.ar   66  DC66        0.1759
   1351  N4         0.5230   -2.4950  -14.5360 N.pl3  66  DC66       -0.1070
   1352  C5        -1.0480   -1.7840  -12.8820 C.ar   66  DC66        0.0566
   1353  C6        -1.5080   -0.7760  -12.1330 C.ar   66  DC66        0.0849
   1354  P         -5.5220    2.7470  -13.4840 P.3    67  DA67        0.2141
   1355  OP1       -6.4980    3.8470  -13.2230 O.3    67  DA67       -0.4373
   1356  OP2       -5.9680    1.4610  -14.1020 O.2    67  DA67       -0.5172
   1357  O5'       -4.3530    3.3120  -14.4080 O.3    67  DA67       -0.3114
   1358  C5'       -4.0760    4.7060  -14.4840 C.3    67  DA67        0.1811
   1359  C4'       -3.1550    4.9880  -15.6560 C.3    67  DA67        0.1746
   1360  O4'       -1.8700    4.3380  -15.4370 O.3    67  DA67       -0.3327
   1361  C3'       -3.6350    4.4840  -17.0100 C.3    67  DA67        0.1558
   1362  O3'       -4.5120    5.4390  -17.6220 O.3    67  DA67       -0.3138
   1363  C2'       -2.3270    4.2950  -17.7810 C.3    67  DA67        0.0865
   1364  C1'       -1.3420    3.8960  -16.6750 C.3    67  DA67        0.2094
   1365  N9        -1.1310    2.4380  -16.5930 N.ar   67  DA67       -0.2714
   1366  C8        -1.8950    1.4700  -15.9950 C.ar   67  DA67        0.1815
   1367  N7        -1.4780    0.2480  -16.2280 N.ar   67  DA67       -0.2193
   1368  C5        -0.3640    0.4260  -17.0330 C.ar   67  DA67        0.1518
   1369  C6         0.5310   -0.4840  -17.6230 C.ar   67  DA67        0.1919
   1370  N6         0.4380   -1.8090  -17.4830 N.pl3  67  DA67       -0.1054
   1371  N1         1.5360    0.0210  -18.3700 N.ar   67  DA67       -0.2040
   1372  C2         1.6280    1.3480  -18.5080 C.ar   67  DA67        0.2016
   1373  N3         0.8500    2.3030  -18.0030 N.ar   67  DA67       -0.2048
   1374  C4        -0.1390    1.7690  -17.2680 C.ar   67  DA67        0.1691
   1375  P         -5.4510    5.0020  -18.9800 P.3    68  DA68        0.2141
   1376  OP1       -6.3390    6.1800  -18.8610 O.2    68  DA68       -0.5172
   1377  OP2       -6.0000    3.6480  -18.7490 O.3    68  DA68       -0.4373
   1378  O5'       -4.8720    4.8590  -20.4710 O.3    68  DA68       -0.3114
   1379  C5'       -3.8520    5.6980  -21.0050 C.3    68  DA68        0.1811
   1380  C4'       -3.2800    5.1600  -22.2980 C.3    68  DA68        0.1746
   1381  O4'       -2.0610    4.4350  -21.9840 O.3    68  DA68       -0.3327
   1382  C3'       -4.1950    4.2040  -23.0680 C.3    68  DA68        0.1558
   1383  O3'       -4.4610    4.5890  -24.4140 O.3    68  DA68       -0.3138
   1384  C2'       -3.4620    2.8710  -23.1040 C.3    68  DA68        0.0865
   1385  C1'       -2.0720    3.1410  -22.5530 C.3    68  DA68        0.2094
   1386  N9        -1.9090    2.1480  -21.4550 N.ar   68  DA68       -0.2714
   1387  C8        -2.6450    1.9150  -20.3220 C.ar   68  DA68        0.1815
   1388  N7        -2.5080    0.7020  -19.8420 N.ar   68  DA68       -0.2193
   1389  C5        -1.6230    0.0960  -20.7200 C.ar   68  DA68        0.1518
   1390  C6        -1.0710   -1.1970  -20.7650 C.ar   68  DA68        0.1919
   1391  N6        -1.3420   -2.1480  -19.8680 N.pl3  68  DA68       -0.1054
   1392  N1        -0.2210   -1.4800  -21.7750 N.ar   68  DA68       -0.2040
   1393  C2         0.0510   -0.5260  -22.6720 C.ar   68  DA68        0.2016
   1394  N3        -0.4040    0.7230  -22.7350 N.ar   68  DA68       -0.2048
   1395  C4        -1.2470    0.9730  -21.7190 C.ar   68  DA68        0.1691
   1396  P         -5.9610    3.9650  -25.0620 P.3    69  DG69        0.2141
   1397  OP1       -6.4720    4.8400  -26.1490 O.2    69  DG69       -0.5172
   1398  OP2       -6.8570    3.6110  -23.9210 O.3    69  DG69       -0.4373
   1399  O5'       -5.5550    2.6270  -25.7990 O.3    69  DG69       -0.3114
   1400  C5'       -4.3320    2.5860  -26.5210 C.3    69  DG69        0.1811
   1401  C4'       -3.8760    1.1750  -26.6680 C.3    69  DG69        0.1746
   1402  O4'       -3.1810    0.7140  -25.5020 O.3    69  DG69       -0.3327
   1403  C3'       -4.9950    0.1740  -26.8610 C.3    69  DG69        0.1558
   1404  O3'       -5.2630    0.1980  -28.2620 O.3    69  DG69       -0.3138
   1405  C2'       -4.3750   -1.1450  -26.3940 C.3    69  DG69        0.0865
   1406  C1'       -3.1790   -0.6910  -25.5390 C.3    69  DG69        0.2093
   1407  N9        -3.0120   -1.1180  -24.3950 N.ar   69  DG69       -0.2728
   1408  C8        -3.7860   -0.6550  -23.3590 C.ar   69  DG69        0.1814
   1409  N7        -4.0880   -1.5780  -22.4870 N.ar   69  DG69       -0.2177
   1410  C5        -3.4770   -2.7200  -22.9720 C.ar   69  DG69        0.1711
   1411  C6        -3.4500   -4.0420  -22.4570 C.2    69  DG69        0.2985
   1412  O6        -3.9840   -4.4740  -21.4280 O.2    69  DG69       -0.2655
   1413  N1        -2.7120   -4.9000  -23.2670 N.am   69  DG69       -0.1042
   1414  C2        -2.0770   -4.5310  -24.4290 C.1    69  DG69        0.1460
   1415  N2        -1.4120   -5.5000  -25.0730 N.2    69  DG69       -0.0024
   1416  N3        -2.0940   -3.3070  -24.9200 N.pl3  69  DG69       -0.1259
   1417  C4        -2.8060   -2.4570  -24.1510 C.ar   69  DG69        0.1688
   1418  P         -6.4570   -0.5510  -28.8480 P.3    70  DC70        0.2141
   1419  OP1       -6.5480    0.1380  -30.1570 O.2    70  DC70       -0.5172
   1420  OP2       -7.4920   -0.3290  -27.8150 O.3    70  DC70       -0.4373
   1421  O5'       -6.4670   -2.1350  -29.0800 O.3    70  DC70       -0.3114
   1422  C5'       -5.6990   -2.6910  -30.1310 C.3    70  DC70        0.1811
   1423  C4'       -5.0100   -3.9550  -29.6930 C.3    70  DC70        0.1746
   1424  O4'       -4.4790   -3.7820  -28.3560 O.3    70  DC70       -0.3327
   1425  C3'       -5.8910   -5.1880  -29.5800 C.3    70  DC70        0.1558
   1426  O3'       -6.1120   -5.8130  -30.8290 O.3    70  DC70       -0.3138
   1427  C2'       -5.1160   -6.0560  -28.5960 C.3    70  DC70        0.0866
   1428  C1'       -4.5490   -5.0000  -27.6500 C.3    70  DC70        0.2106
   1429  N1        -5.4630   -4.8320  -26.4600 N.ar   70  DC70       -0.2556
   1430  C2        -5.7280   -5.8270  -25.5120 C.ar   70  DC70        0.3531
   1431  O2        -5.3790   -6.9940  -25.7570 O.2    70  DC70       -0.2443
   1432  N3        -6.3550   -5.4900  -24.3600 N.ar   70  DC70       -0.1739
   1433  C4        -6.7120   -4.2240  -24.1410 C.ar   70  DC70        0.1759
   1434  N4        -7.3280   -3.9390  -22.9910 N.pl3  70  DC70       -0.1070
   1435  C5        -6.4530   -3.2010  -25.0890 C.ar   70  DC70        0.0566
   1436  C6        -5.8330   -3.5380  -26.2250 C.ar   70  DC70        0.0849
   1437  P         -7.5220   -6.0460  -31.2500 P.3    71  DA71        0.2141
   1438  OP1       -7.2730   -6.6530  -32.5780 O.2    71  DA71       -0.5172
   1439  OP2       -8.6370   -5.0970  -31.0270 O.3    71  DA71       -0.4373
   1440  O5'       -7.7660   -7.2060  -30.1750 O.3    71  DA71       -0.3114
   1441  C5'       -7.4340   -8.5170  -30.5980 C.3    71  DA71        0.1811
   1442  C4'       -7.2050   -9.4650  -29.4480 C.3    71  DA71        0.1746
   1443  O4'       -6.8620   -8.7210  -28.2530 O.3    71  DA71       -0.3327
   1444  C3'       -8.3930  -10.3150  -29.0240 C.3    71  DA71        0.1558
   1445  O3'       -8.5980  -11.4470  -29.8560 O.3    71  DA71       -0.3138
   1446  C2'       -8.0200  -10.6950  -27.6020 C.3    71  DA71        0.0865
   1447  C1'       -7.2840   -9.4450  -27.1170 C.3    71  DA71        0.2094
   1448  N9        -8.2480   -8.6380  -26.3290 N.ar   71  DA71       -0.2714
   1449  C8        -8.8060   -7.4380  -26.6870 C.ar   71  DA71        0.1815
   1450  N7        -9.5230   -6.8830  -25.7390 N.ar   71  DA71       -0.2193
   1451  C5        -9.4310   -7.7800  -24.6860 C.ar   71  DA71        0.1518
   1452  C6        -9.9700   -7.7720  -23.3870 C.ar   71  DA71        0.1919
   1453  N6       -10.7400   -6.7910  -22.9120 N.pl3  71  DA71       -0.1054
   1454  N1        -9.6860   -8.8210  -22.5850 N.ar   71  DA71       -0.2040
   1455  C2        -8.9130   -9.8030  -23.0620 C.ar   71  DA71        0.2016
   1456  N3        -8.3490   -9.9220  -24.2620 N.ar   71  DA71       -0.2048
   1457  C4        -8.6500   -8.8660  -25.0350 C.ar   71  DA71        0.1691
   1458  P         -9.9990  -11.8320  -30.1470 P.3    72  DG72        0.2141
   1459  OP1       -9.8510  -12.4160  -31.4980 O.2    72  DG72       -0.5172
   1460  OP2      -11.1250  -10.9080  -29.8780 O.3    72  DG72       -0.4373
   1461  O5'      -10.1800  -12.9940  -29.0500 O.3    72  DG72       -0.3114
   1462  C5'      -11.2680  -13.0470  -28.1270 C.3    72  DG72        0.1811
   1463  C4'      -10.7960  -13.1380  -26.6910 C.3    72  DG72        0.1746
   1464  O4'      -10.1720  -11.8830  -26.3240 O.3    72  DG72       -0.3327
   1465  C3'      -11.8590  -13.3640  -25.6200 C.3    72  DG72        0.1558
   1466  O3'      -12.1370  -14.7410  -25.4160 O.3    72  DG72       -0.3138
   1467  C2'      -11.2730  -12.6910  -24.3800 C.3    72  DG72        0.0865
   1468  C1'      -10.4460  -11.5550  -24.9810 C.3    72  DG72        0.2093
   1469  N9       -11.1230  -10.2890  -24.8900 N.ar   72  DG72       -0.2728
   1470  C8       -11.5190   -9.4670  -25.9170 C.ar   72  DG72        0.1814
   1471  N7       -12.1260   -8.3870  -25.5080 N.ar   72  DG72       -0.2177
   1472  C5       -12.1310   -8.4970  -24.1300 C.ar   72  DG72        0.1711
   1473  C6       -12.6520   -7.6290  -23.1360 C.2    72  DG72        0.2985
   1474  O6       -13.2340   -6.5480  -23.2910 O.2    72  DG72       -0.2655
   1475  N1       -12.4450   -8.1250  -21.8520 N.am   72  DG72       -0.1056
   1476  C2       -11.8130   -9.3100  -21.5610 C.1    72  DG72        0.1248
   1477  N2       -11.7060   -9.6190  -20.2610 N.2    72  DG72       -0.1048
   1478  N3       -11.3240  -10.1270  -22.4730 N.pl3  72  DG72       -0.1273
   1479  C4       -11.5150   -9.6660  -23.7280 C.ar   72  DG72        0.1687
   1480  P        -13.2570  -15.2730  -24.5560 P.3    73  DA73        0.2141
   1481  OP1      -13.3120  -16.7460  -24.5760 O.3    73  DA73       -0.4373
   1482  OP2      -14.2470  -14.4910  -25.3410 O.2    73  DA73       -0.5172
   1483  O5'      -13.2820  -14.7770  -23.0440 O.3    73  DA73       -0.3114
   1484  C5'      -12.3490  -15.3180  -22.1030 C.3    73  DA73        0.1811
   1485  C4'      -12.4790  -14.6200  -20.7750 C.3    73  DA73        0.1746
   1486  O4'      -12.0460  -13.2370  -20.8690 O.3    73  DA73       -0.3327
   1487  C3'      -13.8860  -14.4690  -20.2710 C.3    73  DA73        0.1558
   1488  O3'      -14.4020  -15.6800  -19.7930 O.3    73  DA73       -0.3138
   1489  C2'      -13.7120  -13.3970  -19.2110 C.3    73  DA73        0.0865
   1490  C1'      -12.7700  -12.4410  -19.9420 C.3    73  DA73        0.2094
   1491  N9       -13.5340  -11.4740  -20.6690 N.ar   73  DA73       -0.2714
   1492  C8       -13.8460  -11.4440  -22.0030 C.ar   73  DA73        0.1815
   1493  N7       -14.6030  -10.4290  -22.3480 N.ar   73  DA73       -0.2193
   1494  C5       -14.8030   -9.7460  -21.1580 C.ar   73  DA73        0.1518
   1495  C6       -15.5200   -8.5770  -20.8480 C.ar   73  DA73        0.1919
   1496  N6       -16.1950   -7.8620  -21.7510 N.pl3  73  DA73       -0.1054
   1497  N1       -15.5180   -8.1640  -19.5630 N.ar   73  DA73       -0.2040
   1498  C2       -14.8410   -8.8810  -18.6590 C.ar   73  DA73        0.2016
   1499  N3       -14.1300   -9.9930  -18.8290 N.ar   73  DA73       -0.2048
   1500  C4       -14.1520  -10.3780  -20.1160 C.ar   73  DA73        0.1691
   1501  P        -16.0160  -15.9770  -19.9300 P.3    74  DC74        0.2141
   1502  OP1      -15.6020  -17.3600  -19.5680 O.3    74  DC74       -0.4373
   1503  OP2      -16.9730  -15.7600  -21.0450 O.2    74  DC74       -0.5172
   1504  O5'      -16.5930  -15.2720  -18.6240 O.3    74  DC74       -0.3114
   1505  C5'      -15.9180  -15.4000  -17.3620 C.3    74  DC74        0.1811
   1506  C4'      -16.2800  -14.2520  -16.4510 C.3    74  DC74        0.1746
   1507  O4'      -15.8410  -12.9990  -17.0370 O.3    74  DC74       -0.3327
   1508  C3'      -17.7600  -14.0200  -16.2100 C.3    74  DC74        0.1558
   1509  O3'      -18.2730  -14.9230  -15.2440 O.3    74  DC74       -0.3138
   1510  C2'      -17.7620  -12.5820  -15.7080 C.3    74  DC74        0.0866
   1511  C1'      -16.7020  -11.9540  -16.6130 C.3    74  DC74        0.2106
   1512  N1       -17.3170  -11.3330  -17.7860 N.ar   74  DC74       -0.2556
   1513  C2       -17.8640  -10.0490  -17.6760 C.ar   74  DC74        0.3531
   1514  O2       -17.8420   -9.4820  -16.5700 O.2    74  DC74       -0.2443
   1515  N3       -18.4010   -9.4650  -18.7730 N.ar   74  DC74       -0.1739
   1516  C4       -18.4040  -10.1110  -19.9390 C.ar   74  DC74        0.1759
   1517  N4       -18.9440   -9.4960  -20.9940 N.pl3  74  DC74       -0.1070
   1518  C5       -17.8550  -11.4120  -20.0720 C.ar   74  DC74        0.0566
   1519  C6       -17.3260  -11.9860  -18.9850 C.ar   74  DC74        0.0849
   1520  P        -19.7140  -15.4680  -15.3680 P.3    75  DG75        0.2141
   1521  OP1      -19.9310  -16.8370  -14.8420 O.3    75  DG75       -0.4373
   1522  OP2      -20.5820  -14.9350  -16.4450 O.2    75  DG75       -0.5172
   1523  O5'      -19.7310  -14.4700  -14.1200 O.3    75  DG75       -0.3114
   1524  C5'      -20.9320  -13.8350  -13.7230 C.3    75  DG75        0.1812
   1525  C4'      -20.6520  -12.4250  -13.2370 C.3    75  DG75        0.1775
   1526  O4'      -19.8900  -11.6990  -14.2350 O.3    75  DG75       -0.3326
   1527  C3'      -21.9040  -11.5920  -13.0250 C.3    75  DG75        0.1864
   1528  O3'      -22.4370  -11.8160  -11.7280 O.3    75  DG75       -0.2133
   1529  C2'      -21.3890  -10.1660  -13.2280 C.3    75  DG75        0.0894
   1530  C1'      -20.3600  -10.3690  -14.3360 C.3    75  DG75        0.2094
   1531  N9       -21.2910  -10.0530  -15.5820 N.ar   75  DG75       -0.2728
   1532  C8       -21.4780  -10.9700  -16.5880 C.ar   75  DG75        0.1814
   1533  N7       -21.8780  -10.4320  -17.7080 N.ar   75  DG75       -0.2177
   1534  C5       -21.9600   -9.0810  -17.4290 C.ar   75  DG75        0.1711
   1535  C6       -22.3410   -7.9900  -18.2520 C.2    75  DG75        0.2985
   1536  O6       -22.6930   -8.0110  -19.4380 O.2    75  DG75       -0.2655
   1537  N1       -22.2860   -6.7780  -17.5690 N.am   75  DG75       -0.1054
   1538  C2       -21.9090   -6.6350  -16.2550 C.1    75  DG75        0.1273
   1539  N2       -21.9170   -5.3860  -15.7700 N.2    75  DG75       -0.0930
   1540  N3       -21.5540   -7.6390  -15.4780 N.pl3  75  DG75       -0.1271
   1541  C4       -21.6010   -8.8260  -16.1200 C.ar   75  DG75        0.1688
   1542  P        -23.8510  -11.5780  -11.1120 P.3    76  DT76        0.3939
   1543  OP1      -22.4560  -11.4490  -10.6130 O.3    76  DT76       -0.1496
   1544  OP2      -24.9130  -12.0950  -10.2050 O.3    76  DT76       -0.1425
   1545  O5'      -24.3440  -10.1710  -11.6800 O.3    76  DT76       -0.2926
   1546  C5'      -24.2950   -9.0160  -10.8580 C.3    76  DT76        0.1828
   1547  C4'      -24.3870   -7.7590  -11.6900 C.3    76  DT76        0.1754
   1548  O4'      -25.7760   -7.5090  -12.0490 O.3    76  DT76       -0.3510
   1549  C3'      -23.9740   -6.5260  -10.9050 C.3    76  DT76        0.1839
   1550  O3'      -22.5660   -6.3460  -10.9370 O.3    76  DT76       -0.2204
   1551  C2'      -24.7710   -5.4120  -11.5680 C.3    76  DT76        0.0676
   1552  C1'      -26.0850   -6.1330  -11.8750 C.3    76  DT76        0.1450
   1553  N1       -25.0630   -7.6380  -15.0340 N.2    76  DT76       -0.1608
   1554  C2       -25.5640   -7.1120  -16.2100 C.1    76  DT76        0.2395
   1555  O2       -26.0470   -5.9960  -16.2850 O.2    76  DT76       -0.2041
   1556  N3       -25.4820   -7.9440  -17.3000 N.am   76  DT76       -0.0881
   1557  C4       -24.9590   -9.2200  -17.3330 C.2    76  DT76        0.2768
   1558  O4       -24.9540   -9.8450  -18.3910 O.2    76  DT76       -0.2676
   1559  C5       -24.4600   -9.6950  -16.0730 C.2    76  DT76        0.0541
   1560  C6       -24.5280   -8.9070  -14.9970 C.2    76  DT76        0.1126
   1561  C7       -23.8720  -11.0730  -16.0050 C.3    76  DT76        0.0376
@<TRIPOS>BOND
     1  1438  1437    2
     2  1459  1458    2
     3  1437  1439    1
     4  1437  1426    1
     5  1437  1440    1
     6  1426  1425    1
     7  1441  1440    1
     8  1441  1442    1
     9  1419  1418    2
    10  1458  1460    1
    11  1458  1445    1
    12  1458  1461    1
    13  1422  1423    1
    14  1422  1421    1
    15  1445  1444    1
    16  1423  1425    1
    17  1423  1424    1
    18  1425  1427    1
    19  1442  1444    1
    20  1442  1443    1
    21  1421  1418    1
    22  1461  1462    1
    23  1444  1446    1
    24  1418  1404    1
    25  1418  1420    1
    26  1427  1428    1
    27  1424  1428    1
    28  1404  1403    1
    29  1443  1447    1
    30  1462  1463    1
    31  1428  1429    1
    32  1446  1447    1
    33  1447  1448    1
    34  1403  1401    1
    35  1403  1405    1
    36  1463  1464    1
    37  1463  1465    1
    38  1449  1448   ar
    39  1449  1450   ar
    40  1401  1400    1
    41  1401  1402    1
    42  1400  1399    1
    43  1429  1436   ar
    44  1429  1430   ar
    45  1405  1406    1
    46  1448  1457   ar
    47  1464  1468    1
    48  1436  1435   ar
    49  1397  1396    2
    50  1470  1471   ar
    51  1470  1469   ar
    52  1399  1396    1
    53  1431  1430    2
    54  1450  1451   ar
    55  1465  1466    1
    56  1465  1467    1
    57    85    84    1
    58    85    89    1
    59  1406  1402    1
    60  1406  1407    1
    61  1430  1432   ar
    62  1471  1472   ar
    63  1466  1480    1
    64    84    83    1
    65    84    86    1
    66  1482  1480    2
    67    83    82    1
    68  1435  1433   ar
    69  1415    73    1
    70  1415  1414    2
    71  1396  1383    1
    72  1396  1398    1
    73  1457  1451   ar
    74  1457  1456   ar
    75  1468  1469    1
    76  1468  1467    1
    77    89    88    1
    78    89    90    1
    79    73    72    1
    80  1416  1414    1
    81  1416  1417    1
    82  1469  1479   ar
    83  1451  1452   ar
    84  1481  1480    1
    85    70    69    1
    86    70    66    1
    87    70    71    1
    88  1480  1483    1
    89    88    86    1
    90    69    67    1
    91    66    65    1
    92  1414  1413    2
    93  1383  1382    1
    94  1407  1417   ar
    95  1407  1408   ar
    96  1432  1433   ar
    97    87    86    1
    98    87    99    1
    99   104   103    1
   100   104   105    1
   101   104   106    1
   102   103   102    1
   103   105   109    1
   104  1456  1455   ar
   105  1417  1410   ar
   106  1433  1434    1
   107    92    91    2
   108  1472  1479   ar
   109  1472  1473    1
   110    65    67    1
   111    65    64    1
   112    68    67    1
   113    68    79    1
   114    38    37    1
   115    90    91   ar
   116    90    97   ar
   117    82    79    1
   118    72    71    1
   119    72    74    2
   120  1479  1478    1
   121    80    79    2
   122    54    53    2
   123    91    93   ar
   124    71    78    1
   125   109   108    1
   126   109   110    1
   127  1452  1453    1
   128  1452  1454   ar
   129  1408  1409   ar
   130   100    99    2
   131  1474  1473    2
   132    79    81    1
   133    97    96   ar
   134  1413  1411    1
   135   107   106    1
   136   107   118    1
   137   102    99    1
   138  1473  1475    1
   139  1384  1382    1
   140  1384  1385    1
   141   106   108    1
   142  1382  1380    1
   143  1455  1454   ar
   144  1483  1484    1
   145  1410  1409   ar
   146  1410  1411    1
   147    74    75    1
   148    99   101    1
   149    64    63    1
   150  1394  1393   ar
   151  1394  1395   ar
   152    37    36   ar
   153    37    39   ar
   154  1393  1392   ar
   155  1385  1381    1
   156  1385  1386    1
   157    53    55   ar
   158    53    52   ar
   159  1478  1476    1
   160  1411  1412    2
   161    93    94   ar
   162    51    50    1
   163    51    47    1
   164    51    52    1
   165    78    77    1
   166    36    34   ar
   167   110   117   ar
   168   110   111   ar
   169  1493  1492   ar
   170  1493  1494   ar
   171  1380  1381    1
   172  1380  1379    1
   173    96    94   ar
   174    96    98    1
   175   119   118    2
   176    50    48    1
   177  1484  1485    1
   178   112   111    2
   179  1492  1491   ar
   180   117   116   ar
   181    39    40   ar
   182   118   120    1
   183   118   121    1
   184    47    46    1
   185  1475  1476    2
   186    55    56   ar
   187  1392  1390   ar
   188    75    77    2
   189    75    76    1
   190  1496  1495    1
   191    52    59   ar
   192  1395  1386   ar
   193  1395  1389   ar
   194    94    95    2
   195    63    60    1
   196   111   113   ar
   197  1476  1477    2
   198  1386  1387   ar
   199   421   420    2
   200    46    48    1
   201    46    45    1
   202  1494  1495   ar
   203  1494  1500   ar
   204    34    35    2
   205    34    33   ar
   206   122   121    1
   207   122   123    1
   208  1503  1501    2
   209  1379  1378    1
   210  1517  1516    1
   211   116   114   ar
   212    48    49    1
   213  1486  1485    1
   214  1486  1490    1
   215  1495  1497   ar
   216    49    60    1
   217  1485  1487    1
   218  1390  1389   ar
   219  1390  1391    1
   220    40    33   ar
   221    40    30   ar
   222  1389  1388   ar
   223    61    60    2
   224   113   114   ar
   225  1491  1500   ar
   226  1491  1490    1
   227    60    62    1
   228    16    15    2
   229    16    17    1
   230    56    57    1
   231    56    58   ar
   232  1378  1375    1
   233   124   123    1
   234   124   128    1
   235    59    58   ar
   236    15    13    1
   237   114   115    1
   238  1387  1388   ar
   239   123   125    1
   240    33    32   ar
   241  1487  1488    1
   242  1487  1489    1
   243  1477    17    1
   244    45    44    1
   245   479   478    2
   246  1500  1499   ar
   247  1518  1516   ar
   248  1518  1519   ar
   249   457   456    2
   250  1490  1489    1
   251  1516  1515   ar
   252    28    29    1
   253    28    26    1
   254  1501  1488    1
   255  1501  1502    1
   256  1501  1504    1
   257   420   409    1
   258   420   422    1
   259   420   423    1
   260    17    18    1
   261    30    29    1
   262    30    31   ar
   263   442   441    2
   264   409   408    1
   265    29    25    1
   266  1497  1498   ar
   267  1536  1535    2
   268   424   423    1
   269   424   425    1
   270    44    41    1
   271   128   129    1
   272   128   127    1
   273   130   129   ar
   274   130   131   ar
   275    13    14    1
   276    13    12    2
   277   454   455   ar
   278   454   453   ar
   279    32    31   ar
   280  1519  1512   ar
   281  1375  1376    2
   282  1375  1377    1
   283  1375  1362    1
   284   482   480    1
   285   478   480   ar
   286   478   477   ar
   287   456   455   ar
   288   456   458   ar
   289  1499  1498   ar
   290   129   139   ar
   291   125   126    1
   292   125   127    1
   293  1515  1513   ar
   294   443   441    1
   295  1504  1505    1
   296   131   132   ar
   297    18    12    1
   298    18     9    1
   299   405   406    1
   300   405   404    1
   301    26    27    1
   302    26    24    1
   303    26    43    1
   304   428   441    1
   305   428   427    1
   306   441   444    1
   307  1372  1371   ar
   308  1372  1373   ar
   309    27    41    1
   310   406   408    1
   311   406   407    1
   312   455   462   ar
   313  1558  1557    2
   314    25    24    1
   315   126   143    1
   316  1371  1369   ar
   317   408   410    1
   318  1535  1537    1
   319  1535  1534    1
   320    12    11    1
   321   404   401    1
   322   453   452   ar
   323   480   481   ar
   324   477   475   ar
   325   425   427    1
   326   425   426    1
   327  1373  1374   ar
   328    41    42    2
   329    41    43    1
   330   139   132   ar
   331   139   138   ar
   332    24    23    1
   333   427   429    1
   334  1512  1513   ar
   335  1512  1511    1
   336   458   459   ar
   337  1363  1361    1
   338  1363  1364    1
   339   132   133   ar
   340  1533  1534   ar
   341  1533  1532   ar
   342  1513  1514    2
   343   402   401    2
   344   410   411    1
   345  1369  1370    1
   346  1369  1368   ar
   347  1362  1361    1
   348  1537  1538    2
   349   444   445    1
   350   140   141    1
   351   140   142    2
   352     9     8    1
   353     9    10    1
   354  1534  1541   ar
   355     8     7    1
   356     8     4    1
   357  1505  1506    1
   358  1557  1556   am
   359  1557  1559    1
   360  1556  1554   am
   361   407   411    1
   362  1374  1368   ar
   363  1374  1365   ar
   364   138   136   ar
   365   401   387    1
   366   401   403    1
   367   462   452   ar
   368   462   461   ar
   369  1507  1511    1
   370  1507  1506    1
   371  1368  1367   ar
   372  1361  1359    1
   373   426   430    1
   374     7     5    1
   375    11    10    2
   376   452   451    1
   377   481   474   ar
   378   143   144    1
   379   475   476    2
   380   475   474   ar
   381   133   134    2
   382   133   135   ar
   383   411   412    1
   384  1364  1365    1
   385  1364  1360    1
   386   387   386    1
   387  1511  1510    1
   388  1365  1366   ar
   389  1532  1531   ar
   390   459   461   ar
   391   459   460    1
   392   445   446    1
   393  1506  1508    1
   394  1522  1520    2
   395   159   157    1
   396    23    22    1
   397   429   430    1
   398     4     3    1
   399  1555  1554    2
   400   144   145    1
   401  1538  1539    2
   402  1538  1540    1
   403   136   135   ar
   404   136   137    1
   405  1367  1366   ar
   406  1508  1510    1
   407  1508  1509    1
   408  1554  1553    2
   409   474   473    1
   410  1541  1531   ar
   411  1541  1540    1
   412  1559  1561    1
   413  1559  1560    2
   414   461  1539    1
   415    22    19    1
   416   430   431    1
   417   432   431   ar
   418   432   433   ar
   419   447   451    1
   420   447   446    1
   421   388   386    1
   422   388   389    1
   423   451   450    1
   424  1359  1360    1
   425  1359  1358    1
   426  1531  1530    1
   427   146   145    1
   428   146   150    1
   429   386   384    1
   430   412   419   ar
   431   412   413   ar
   432     5     3    1
   433     5     6    1
   434   446   448    1
   435   450   448    1
   436  1520  1509    1
   437  1520  1521    1
   438  1520  1523    1
   439   157   158   ar
   440   157   155   ar
   441   448   449    1
   442   431   440   ar
   443   465   463    2
   444   158   151   ar
   445     3     2    1
   446   145   147    1
   447   414   413    2
   448   502   501    1
   449   433   434   ar
   450  1553  1560    1
   451   419   418   ar
   452   510   509    1
   453   510   511    1
   454   510   512    1
   455   473   469    1
   456   473   472    1
   457   384   385    1
   458   384   383    1
   459   398   397    2
   460   398   518    1
   461    21    19    2
   462   509   508    1
   463   511   515    1
   464     6    19    1
   465   413   415   ar
   466   156   155    2
   467   389   385    1
   468   389   390    1
   469  1351  1350    1
   470   155   154   ar
   471    19    20    1
   472  1358  1357    1
   473  1357  1354    1
   474   515   514    1
   475   515   516    1
   476   151   150    1
   477   151   152   ar
   478   150   149    1
   479  1530  1526    1
   480  1530  1529    1
   481   526   525    2
   482   463   466    1
   483   463   449    1
   484   463   464    1
   485   529   528    1
   486   529   530    1
   487   469   468    1
   488   513   512    1
   489   513   525    1
   490   399   397    1
   491   399   400    1
   492   514   512    1
   493  1526  1525    1
   494  1523  1524    1
   495  1356  1354    2
   496   466   467    1
   497   501   503   ar
   498   501   500   ar
   499   503   504   ar
   500     1     2    1
   501   440   434   ar
   502   440   439   ar
   503   397   396    2
   504   147   148    1
   505   147   149    1
   506   383   382    1
   507   434   435   ar
   508   492   493    1
   509   492   490    1
   510  1349  1350   ar
   511  1349  1347   ar
   512   472   470    1
   513  1350  1352   ar
   514  1524  1525    1
   515   528   525    1
   516   418   416   ar
   517   154   152   ar
   518   530   531    1
   519   530   532    1
   520   493   489    1
   521   493   494    1
   522   518   517    1
   523   508   505    1
   524   152   153    2
   525  1354  1355    1
   526  1354  1343    1
   527   531   535    1
   528   390   400   ar
   529   390   391   ar
   530   400   393   ar
   531   148   160    1
   532   415   416   ar
   533   525   527    1
   534  1525  1527    1
   535  1529  1527    1
   536   516   517   ar
   537   516   523   ar
   538  1348  1347    2
   539   500   498   ar
   540   380   379    2
   541  1347  1346   ar
   542   439   438   ar
   543   504   494   ar
   544   504   497   ar
   545  1527  1528    1
   546   468   470    1
   547   468   467    1
   548   470   471    1
   549   489   488    1
   550   382   379    1
   551   491   490    1
   552   491   505    1
   553  1352  1353   ar
   554   396   394    1
   555   517   519   ar
   556   416   417    1
   557   506   505    2
   558   162   160    2
   559   494   495   ar
   560   490   488    1
   561  1330  1329    1
   562   435   436    1
   563   435   437   ar
   564   488   487    1
   565   376   375    1
   566   505   507    1
   567   523   522   ar
   568   391   392   ar
   569  1346  1353   ar
   570  1346  1345    1
   571   393   394    1
   572   393   392   ar
   573   535   534    1
   574   535   536    1
   575   379   381    1
   576   379   365    1
   577  1343  1342    1
   578  1344  1342    1
   579  1344  1345    1
   580   532   533    1
   581   532   534    1
   582   533   547    1
   583   498   497   ar
   584   498   499    2
   585  1548  1552    1
   586  1548  1547    1
   587   497   496   ar
   588  1342  1340    1
   589   438   437   ar
   590   160   161    1
   591   160   163    1
   592   394   395    2
   593  1552  1551    1
   594  1329  1331   ar
   595  1329  1328   ar
   596  1273  1271    2
   597  1331  1332   ar
   598  1528  1543    1
   599  1547  1549    1
   600  1547  1546    1
   601  1545  1542    1
   602  1545  1546    1
   603   471   483    1
   604   519   520   ar
   605   495   496   ar
   606  1551  1549    1
   607   176   175    1
   608   375   377   ar
   609   375   374   ar
   610   537   536   ar
   611   537   538   ar
   612  1272  1271    1
   613   536   546   ar
   614  1345  1341    1
   615   177   175   ar
   616   177   178   ar
   617   486   487    1
   618   486   483    1
   619  1294  1292    2
   620   548   547    2
   621   522   520   ar
   622   522   524    1
   623   365   364    1
   624  1542  1543    1
   625  1542  1544    1
   626  1337  1335    2
   627   377   378   ar
   628  1251  1250    2
   629   175   174   ar
   630  1550  1549    1
   631  1271  1258    1
   632  1271  1274    1
   633  1328  1327   ar
   634  1328  1334   ar
   635   374   372   ar
   636   547   549    1
   637   547   550    1
   638  1332  1333   ar
   639  1308  1307    2
   640   366   364    1
   641   366   367    1
   642   163   164    1
   643   178   171   ar
   644   520   521    2
   645  1327  1326   ar
   646  1338  1335    1
   647  1338  1339    1
   648  1316  1314    2
   649  1340  1341    1
   650  1340  1339    1
   651   483   485    2
   652   483   484    1
   653   538   539   ar
   654   546   545   ar
   655   546   539   ar
   656  1335  1336    1
   657  1335  1322    1
   658   364   362    1
   659  1293  1292    1
   660  1305  1306   ar
   661  1305  1304   ar
   662  1258  1257    1
   663   174   172   ar
   664  1334  1333   ar
   665  1334  1325   ar
   666  1292  1295    1
   667  1292  1279    1
   668   166   170    1
   669   166   165    1
   670   378   371   ar
   671   378   368   ar
   672   545   543   ar
   673  1307  1306   ar
   674  1307  1309   ar
   675  1250  1252    1
   676  1250  1253    1
   677  1250  1236    1
   678   171   172   ar
   679   171   170    1
   680   372   373    2
   681   372   371   ar
   682   551   550    1
   683   551   552    1
   684  1326  1325   ar
   685   539   540   ar
   686  1253  1254    1
   687  1254  1255    1
   688  1274  1275    1
   689   164   165    1
   690   367   368    1
   691   367   363    1
   692  1306  1313   ar
   693   172   173    2
   694  1257  1255    1
   695  1257  1259    1
   696   170   169    1
   697  1304  1303   ar
   698   371   370   ar
   699  1314  1315    1
   700  1314  1317    1
   701  1314  1300    1
   702  1325  1324    1
   703   368   369   ar
   704  1295  1296    1
   705  1236  1235    1
   706  1309  1310   ar
   707   362   363    1
   708   362   361    1
   709  1317  1318    1
   710   165   167    1
   711  1279  1278    1
   712  1321  1322    1
   713  1321  1323    1
   714  1321  1319    1
   715   543   544    1
   716   543   542   ar
   717  1255  1256    1
   718  1284  1283   ar
   719  1284  1285   ar
   720  1323  1324    1
   721  1275  1276    1
   722  1278  1276    1
   723  1278  1280    1
   724   540   542   ar
   725   540   541    2
   726  1287  1286    1
   727   552   553    1
   728   552   554    1
   729  1283  1282   ar
   730   553   557    1
   731  1313  1303   ar
   732  1313  1312   ar
   733  1303  1302    1
   734   369   370   ar
   735  1324  1320    1
   736  1299  1300    1
   737  1299  1301    1
   738  1299  1297    1
   739  1259  1260    1
   740  1296  1297    1
   741  1285  1286   ar
   742  1285  1291   ar
   743  1310  1312   ar
   744  1310  1311    1
   745   169   167    1
   746   361   360    1
   747  1276  1277    1
   748   167   168    1
   749  1286  1288   ar
   750  1318  1319    1
   751  1262  1263   ar
   752  1262  1261   ar
   753   559   560   ar
   754   559   558   ar
   755  1301  1302    1
   756  1235  1237    1
   757  1235  1233    1
   758  1319  1320    1
   759  1256  1260    1
   760  1280  1281    1
   761   195   194    2
   762  1282  1291   ar
   763  1282  1281    1
   764  1297  1298    1
   765  1263  1264   ar
   766  1302  1298    1
   767  1260  1261    1
   768   554   555    1
   769   554   556    1
   770   560   561   ar
   771  1229  1228    2
   772  1291  1290   ar
   773   198   196    1
   774   557   558    1
   775   557   556    1
   776  1277  1281    1
   777   360   357    1
   778   194   196   ar
   779   194   193   ar
   780  1261  1270   ar
   781  1232  1233    1
   782  1232  1231    1
   783  1237  1238    1
   784   558   568   ar
   785  1233  1234    1
   786  1288  1289   ar
   787   555   569    1
   788   196   197   ar
   789   193   191   ar
   790   168   179    1
   791  1231  1228    1
   792  1264  1270   ar
   793  1264  1265   ar
   794   351   350    2
   795  1270  1269   ar
   796   571   569    2
   797  1290  1289   ar
   798   197   190   ar
   799  1228  1230    1
   800  1228  1214    1
   801   191   190   ar
   802   191   192    2
   803   561   568   ar
   804   561   562   ar
   805   352   350   ar
   806   352   353   ar
   807  1266  1265    1
   808   568   567   ar
   809   190   189    1
   810  1265  1267   ar
   811   354   353    1
   812   350   349   ar
   813   358   357    2
   814   357   359    1
   815   357   346    1
   816  1234  1238    1
   817  1238  1239    1
   818   569   572    1
   819   569   570    1
   820   185   189    1
   821   185   184    1
   822   181   179    2
   823  1269  1268   ar
   824   353   355   ar
   825   179   182    1
   826   179   180    1
   827  1214  1213    1
   828   189   188    1
   829   562   563    2
   830   562   564   ar
   831  1239  1240   ar
   832  1239  1249   ar
   833   347   345    1
   834   347   348    1
   835  1240  1241   ar
   836  1267  1268   ar
   837   182   183    1
   838   567   565   ar
   839   346   345    1
   840   572   573    1
   841   349   348    1
   842   349   356   ar
   843   183   184    1
   844  1249  1248   ar
   845  1249  1242   ar
   846  1241  1242   ar
   847   345   343    1
   848  1248  1246   ar
   849   184   186    1
   850   355   356   ar
   851   573   574    1
   852  1242  1243   ar
   853   348   344    1
   854   564   565   ar
   855   565   566    1
   856  1213  1215    1
   857  1213  1211    1
   858  1246  1247    1
   859  1246  1245   ar
   860   188   186    1
   861  1243  1245   ar
   862  1243  1244    2
   863  1215  1216    1
   864   581   582   ar
   865   581   580   ar
   866   582   583   ar
   867   186   187    1
   868   575   574    1
   869   575   579    1
   870   343   344    1
   871   343   342    1
   872   574   576    1
   873   222   221    2
   874  1211  1210    1
   875  1211  1212    1
   876   335   334    1
   877  1225  1224    1
   878  1209  1210    1
   879  1209  1206    1
   880   580   579    1
   881   580   590   ar
   882  1207  1206    2
   883   583   584   ar
   884   583   590   ar
   885  1216  1212    1
   886  1216  1217    1
   887   585   584    2
   888  1226  1224   ar
   889  1226  1227   ar
   890  1224  1223   ar
   891   579   578    1
   892   187   199    1
   893   341   342    1
   894   341   338    1
   895   576   577    1
   896   576   578    1
   897   584   586   ar
   898   333   334   ar
   899   333   331   ar
   900  1223  1221   ar
   901   334   336   ar
   902   593   591    2
   903   221   223    1
   904   221   207    1
   905   221   224    1
   906  1227  1217   ar
   907  1227  1220   ar
   908   590   589   ar
   909  1206  1208    1
   910  1206  1192    1
   911  1217  1218   ar
   912   207   206    1
   913   340   338    2
   914  1221  1220   ar
   915  1221  1222    2
   916  1220  1219   ar
   917   577   591    1
   918  1218  1219   ar
   919   203   204    1
   920   203   202    1
   921   199   201    2
   922   199   200    1
   923   199   202    1
   924   316   315    1
   925   338   339    1
   926   338   327    1
   927   591   592    1
   928   591   594    1
   929   331   332    2
   930   331   330   ar
   931   336   337   ar
   932   586   587   ar
   933   589   587   ar
   934   224   225    1
   935   242   241    2
   936   243   241    1
   937   204   206    1
   938   204   205    1
   939   225   226    1
   940   607   606    1
   941   206   208    1
   942   608   606   ar
   943   608   609   ar
   944  1185  1184    2
   945   587   588    1
   946   296   295    2
   947   330   337   ar
   948   330   329    1
   949   299   297    1
   950  1192  1191    1
   951   315   314   ar
   952   315   317   ar
   953   228   229    1
   954   228   226    1
   955   228   230    1
   956   241   229    1
   957   241   244    1
   958   606   605   ar
   959   594   595    1
   960   609   602   ar
   961   328   326    1
   962   328   329    1
   963   263   261    2
   964   314   312   ar
   965   226   227    1
   966  1191  1193    1
   967  1191  1189    1
   968   326   327    1
   969   326   324    1
   970   208   209    1
   971   317   318   ar
   972   205   209    1
   973   329   325    1
   974   262   261    1
   975   295   297   ar
   976   295   294   ar
   977   282   280    2
   978   230   231    1
   979  1188  1187    1
   980  1188  1189    1
   981   244   245    1
   982   297   298   ar
   983  1184  1187    1
   984  1184  1186    1
   985  1184  1170    1
   986   605   603   ar
   987   260   258    1
   988  1193  1194    1
   989   595   596    1
   990   321   319    2
   991   261   264    1
   992   261   249    1
   993   597   601    1
   994   597   596    1
   995   602   603   ar
   996   602   601    1
   997  1189  1190    1
   998   240   238    1
   999   312   313    2
  1000   312   311   ar
  1001   322   319    1
  1002   322   323    1
  1003   209   210    1
  1004   227   231    1
  1005   325   324    1
  1006  1170  1169    1
  1007   302   300    2
  1008   281   280    1
  1009   318   311   ar
  1010   603   604    2
  1011   277   276    1
  1012   245   246    1
  1013   294   292   ar
  1014   324   323    1
  1015   239   238   ar
  1016   239   232   ar
  1017   280   283    1
  1018   280   269    1
  1019   601   600    1
  1020   264   265    1
  1021   298   291   ar
  1022   231   232    1
  1023   596   598    1
  1024   311   310    1
  1025   278   276   ar
  1026   278   279   ar
  1027   319   320    1
  1028   319   308    1
  1029   238   236   ar
  1030   258   259   ar
  1031   258   256   ar
  1032   257   256    2
  1033   210   211   ar
  1034   210   220   ar
  1035   276   275   ar
  1036   626   625    2
  1037   211   212   ar
  1038   283   284    1
  1039  1190  1194    1
  1040  1194  1195    1
  1041   249   248    1
  1042   259   252   ar
  1043   232   233   ar
  1044   256   255   ar
  1045   279   272   ar
  1046   248   246    1
  1047   248   250    1
  1048   292   291   ar
  1049   292   293    2
  1050   265   266    1
  1051   598   600    1
  1052   598   599    1
  1053   291   290    1
  1054   246   247    1
  1055   300   303    1
  1056   300   301    1
  1057   300   288    1
  1058   309   307    1
  1059   309   310    1
  1060   269   268    1
  1061  1169  1171    1
  1062  1169  1167    1
  1063   307   308    1
  1064   307   305    1
  1065   303   304    1
  1066   310   306    1
  1067   268   266    1
  1068   268   270    1
  1069   236   237    2
  1070   236   235   ar
  1071   212   213   ar
  1072   625   624   ar
  1073   625   627   ar
  1074   220   219   ar
  1075   220   213   ar
  1076   275   273   ar
  1077   623   624   ar
  1078   623   622   ar
  1079   287   288    1
  1080   287   289    1
  1081   287   285    1
  1082  1195  1196   ar
  1083  1195  1205   ar
  1084  1163  1162    2
  1085  1171  1172    1
  1086   247   251    1
  1087  1167  1166    1
  1088  1167  1168    1
  1089   252   253   ar
  1090   252   251    1
  1091   255   253   ar
  1092  1166  1165    1
  1093   219   217   ar
  1094   266   267    1
  1095   284   285    1
  1096  1196  1197   ar
  1097   272   273   ar
  1098   272   271    1
  1099   233   235   ar
  1100   233   234    2
  1101   624   631   ar
  1102   612   610    2
  1103   289   290    1
  1104   306   305    1
  1105   213   214   ar
  1106   599   610    1
  1107   627   628   ar
  1108   290   286    1
  1109   273   274    2
  1110   250   251    1
  1111   253   254    2
  1112   305   304    1
  1113   267   271    1
  1114   648   647    1
  1115   270   271    1
  1116   285   286    1
  1117   622   621   ar
  1118  1165  1162    1
  1119  1205  1204   ar
  1120  1205  1198   ar
  1121  1204  1202   ar
  1122  1162  1164    1
  1123  1162  1150    1
  1124  1197  1198   ar
  1125   217   218    1
  1126   217   216   ar
  1127   610   613    1
  1128   610   611    1
  1129  1168  1172    1
  1130  1172  1173    1
  1131   631   621   ar
  1132   631   630   ar
  1133   649   647   ar
  1134   649   650   ar
  1135   214   216   ar
  1136   214   215    2
  1137   647   646   ar
  1138  1198  1199   ar
  1139   628   630   ar
  1140   628   629    1
  1141   621   620    1
  1142  1202  1203    1
  1143  1202  1201   ar
  1144  1173  1174   ar
  1145  1173  1183   ar
  1146   613   614    1
  1147  1150  1149    1
  1148   650   651   ar
  1149   669   668    1
  1150  1174  1175   ar
  1151   646   645   ar
  1152   646   652   ar
  1153  1182  1183   ar
  1154  1182  1180   ar
  1155   670   668   ar
  1156   670   671   ar
  1157  1199  1201   ar
  1158  1199  1200    2
  1159   616   620    1
  1160   616   615    1
  1161  1183  1176   ar
  1162   620   619    1
  1163   645   644   ar
  1164   707   706    2
  1165   668   667   ar
  1166  1181  1180    1
  1167   671   672   ar
  1168  1180  1179   ar
  1169  1175  1176   ar
  1170   651   652   ar
  1171  1176  1177   ar
  1172   652   643   ar
  1173   614   615    1
  1174  1143  1142    2
  1175  1149  1151    1
  1176  1149  1147    1
  1177   615   617    1
  1178   726   725    2
  1179   644   643   ar
  1180  1179  1177   ar
  1181   706   708   ar
  1182   706   705   ar
  1183  1177  1178    2
  1184  1151  1152    1
  1185  1144  1142    1
  1186   619   617    1
  1187   667   673   ar
  1188   667   666   ar
  1189   708   709   ar
  1190   643   642    1
  1191   672   673   ar
  1192   617   618    1
  1193  1142  1145    1
  1194  1142  1128    1
  1195   687   686    2
  1196   704   705    1
  1197   704   703    1
  1198   704   700    1
  1199   673   664   ar
  1200  1147  1146    1
  1201  1147  1148    1
  1202   725   727   ar
  1203   725   724   ar
  1204  1145  1146    1
  1205   705   712   ar
  1206   666   665   ar
  1207   688   686   ar
  1208   688   689   ar
  1209   634   632    2
  1210   723   724    1
  1211   723   719    1
  1212   723   722    1
  1213   703   701    1
  1214   727   728   ar
  1215   686   685   ar
  1216   709   710    1
  1217   709   711   ar
  1218   690   689    2
  1219   642   638    1
  1220   642   641    1
  1221   700   699    1
  1222   724   731   ar
  1223   719   718    1
  1224   638   637    1
  1225   722   720    1
  1226  1152  1153    1
  1227  1152  1148    1
  1228   618   632    1
  1229   689   691   ar
  1230   664   665   ar
  1231   664   663    1
  1232  1128  1127    1
  1233  1153  1160   ar
  1234  1153  1154   ar
  1235   712   711   ar
  1236  1155  1154    2
  1237   635   632    1
  1238   635   636    1
  1239   632   633    1
  1240  1160  1159   ar
  1241  1154  1156   ar
  1242   728   729    2
  1243   728   730   ar
  1244   718   720    1
  1245   718   717    1
  1246   685   684    1
  1247   685   692   ar
  1248   699   701    1
  1249   699   698    1
  1250   731   730   ar
  1251   739   743    1
  1252   739   738    1
  1253   701   702    1
  1254  1159  1161    1
  1255  1159  1157   ar
  1256   641   639    1
  1257   751   752   ar
  1258   751   750   ar
  1259   752   753   ar
  1260  1156  1157   ar
  1261   750   748   ar
  1262   743   744    1
  1263   743   742    1
  1264   753   744   ar
  1265   753   747   ar
  1266   684   683    1
  1267   684   680    1
  1268   720   721    1
  1269   744   745   ar
  1270   663   659    1
  1271   663   662    1
  1272   730   732    1
  1273   748   747   ar
  1274   748   749    1
  1275   747   746   ar
  1276   691   692   ar
  1277   691   693    1
  1278  1157  1158    2
  1279   745   746   ar
  1280   637   636    1
  1281   637   639    1
  1282  1127  1129    1
  1283  1127  1125    1
  1284   702   713    1
  1285   639   640    1
  1286   659   658    1
  1287   721   734    1
  1288   717   716    1
  1289  1129  1130    1
  1290   683   681    1
  1291   738   737    1
  1292   738   740    1
  1293   680   679    1
  1294   698   697    1
  1295   737   736    1
  1296   742   740    1
  1297   662   660    1
  1298   716   713    1
  1299  1125  1124    1
  1300  1125  1126    1
  1301  1121  1120    2
  1302   734   733    1
  1303   697   694    1
  1304  1124  1123    1
  1305   733   736    1
  1306   733   735    1
  1307   656   657    1
  1308   656   653    1
  1309   655   653    2
  1310  1123  1120    1
  1311   740   741    1
  1312   713   715    2
  1313   713   714    1
  1314   658   657    1
  1315   658   660    1
  1316  1139  1138    1
  1317  1130  1131    1
  1318  1130  1126    1
  1319   681   679    1
  1320   681   682    1
  1321  1140  1138   ar
  1322  1140  1141   ar
  1323  1138  1137   ar
  1324   679   678    1
  1325   767   766    2
  1326   660   661    1
  1327   760   764    1
  1328   760   759    1
  1329  1137  1135   ar
  1330  1120  1122    1
  1331  1120  1109    1
  1332  1141  1131   ar
  1333  1141  1134   ar
  1334  1131  1132   ar
  1335   764   765    1
  1336   764   763    1
  1337  1135  1134   ar
  1338  1135  1136    2
  1339  1134  1133   ar
  1340  1132  1133   ar
  1341   653   654    2
  1342   766   765   ar
  1343   766   768   ar
  1344   741   754    1
  1345   682   694    1
  1346   765   772   ar
  1347   759   758    1
  1348   759   761    1
  1349   677   678    1
  1350   677   674    1
  1351   694   696    2
  1352   694   695    1
  1353   768   769   ar
  1354   763   761    1
  1355   772   771   ar
  1356   758   757    1
  1357   661   674    1
  1358  1109  1108    1
  1359   780   784    1
  1360   780   779    1
  1361   769   771   ar
  1362   769   770    2
  1363   771   773    1
  1364   761   762    1
  1365   784   785    1
  1366   784   783    1
  1367   674   676    2
  1368   674   675    1
  1369   757   754    1
  1370   754   756    2
  1371   754   755    1
  1372   779   778    1
  1373   779   781    1
  1374  1102  1101    2
  1375   778   777    1
  1376   762   774    1
  1377   785   795   ar
  1378   785   786   ar
  1379   794   795   ar
  1380   794   792   ar
  1381  1108  1110    1
  1382  1108  1106    1
  1383   795   788   ar
  1384   793   792    1
  1385   786   787   ar
  1386   792   791   ar
  1387  1103  1101    1
  1388  1110  1111    1
  1389   783   781    1
  1390   788   787   ar
  1391   788   789   ar
  1392  1104  1101    1
  1393  1104  1105    1
  1394  1101  1089    1
  1395   777   774    1
  1396   791   789   ar
  1397   781   782    1
  1398   789   790    2
  1399  1105  1106    1
  1400  1106  1107    1
  1401   774   775    2
  1402   774   776    1
  1403   782   796    1
  1404  1117  1116    1
  1405  1115  1116   ar
  1406  1115  1113   ar
  1407  1114  1113    2
  1408  1116  1118   ar
  1409  1113  1112   ar
  1410  1118  1119   ar
  1411  1112  1119   ar
  1412  1112  1111    1
  1413  1111  1107    1
  1414  1089  1088    1
  1415   809   808    2
  1416   802   806    1
  1417   802   801    1
  1418   806   807    1
  1419   806   805    1
  1420   808   807   ar
  1421   808   810   ar
  1422   807   814   ar
  1423  1082  1081    2
  1424   810   811   ar
  1425  1083  1081    1
  1426  1088  1090    1
  1427  1088  1086    1
  1428   814   813   ar
  1429   801   800    1
  1430   801   803    1
  1431   811   813   ar
  1432   811   812    1
  1433  1081  1084    1
  1434  1081  1068    1
  1435   805   803    1
  1436   800   799    1
  1437   796   799    1
  1438   796   798    2
  1439   796   797    1
  1440  1084  1085    1
  1441  1090  1091    1
  1442  1085  1086    1
  1443  1100  1098    1
  1444  1086  1087    1
  1445   803   804    1
  1446  1098  1099   ar
  1447  1098  1096   ar
  1448  1099  1092   ar
  1449  1097  1096    2
  1450  1096  1095   ar
  1451  1092  1091    1
  1452  1092  1093   ar
  1453  1095  1093   ar
  1454  1091  1087    1
  1455  1093  1094    2
  1456   804   815    1
  1457   834   833    1
  1458  1061  1060    2
  1459  1062  1060    1
  1460  1020  1019    2
  1461  1068  1067    1
  1462   833   835   ar
  1463   833   832   ar
  1464   821   825    1
  1465   821   820    1
  1466   835   836   ar
  1467   832   830   ar
  1468   836   826   ar
  1469   836   829   ar
  1470   830   829   ar
  1471   830   831    2
  1472   825   826    1
  1473   825   824    1
  1474   826   827   ar
  1475   829   828   ar
  1476  1041  1040    2
  1477  1060  1063    1
  1478  1060  1048    1
  1479   827   828   ar
  1480  1067  1069    1
  1481  1067  1065    1
  1482  1021  1019    1
  1483  1063  1064    1
  1484  1042  1040    1
  1485  1019  1005    1
  1486  1019  1022    1
  1487   998   997    1
  1488   820   819    1
  1489   820   822    1
  1490   819   818    1
  1491  1069  1070    1
  1492   815   818    1
  1493   815   817    2
  1494   815   816    1
  1495  1040  1043    1
  1496  1040  1027    1
  1497  1064  1065    1
  1498   824   822    1
  1499  1043  1044    1
  1500  1048  1047    1
  1501  1065  1066    1
  1502  1073  1072   ar
  1503  1073  1074   ar
  1504  1072  1071   ar
  1505  1005  1004    1
  1506  1059  1057    1
  1507  1022  1023    1
  1508  1076  1075    1
  1509   997   999    1
  1510   997  1000    1
  1511  1027  1026    1
  1512   999   986    1
  1513   822   823    1
  1514  1074  1075   ar
  1515  1074  1080   ar
  1516  1001  1000    1
  1517  1001  1002    1
  1518  1071  1070    1
  1519  1071  1080   ar
  1520  1070  1066    1
  1521  1075  1077   ar
  1522  1023  1024    1
  1523  1047  1045    1
  1524  1047  1049    1
  1525  1080  1079   ar
  1526  1044  1045    1
  1527  1077  1078   ar
  1528  1057  1058   ar
  1529  1057  1055   ar
  1530  1026  1024    1
  1531  1026  1028    1
  1532  1004  1002    1
  1533  1004  1006    1
  1534  1079  1078   ar
  1535   853   852    2
  1536  1056  1055    2
  1537  1002  1003    1
  1538  1058  1051   ar
  1539   823   837    1
  1540  1045  1046    1
  1541   852   851   ar
  1542   852   854   ar
  1543  1024  1025    1
  1544  1055  1054   ar
  1545   851   849   ar
  1546  1049  1050    1
  1547   856   854    1
  1548   854   855   ar
  1549   986   985    1
  1550   843   847    1
  1551   843   842    1
  1552   849   850    2
  1553   849   848   ar
  1554   847   848    1
  1555   847   846    1
  1556   855   848   ar
  1557  1051  1050    1
  1558  1051  1052   ar
  1559  1028  1029    1
  1560  1006  1007    1
  1561  1031  1032   ar
  1562  1031  1030   ar
  1563  1054  1052   ar
  1564  1046  1050    1
  1565  1032  1033   ar
  1566   985   983    1
  1567   985   987    1
  1568  1003  1007    1
  1569  1025  1029    1
  1570   837   840    1
  1571   837   839    2
  1572   837   838    1
  1573  1052  1053    2
  1574   979   978    2
  1575   840   841    1
  1576   842   841    1
  1577   842   844    1
  1578  1030  1029    1
  1579  1030  1039   ar
  1580   846   844    1
  1581  1007  1008    1
  1582   873   872    1
  1583  1033  1039   ar
  1584  1033  1034   ar
  1585   983   982    1
  1586   983   984    1
  1587   987   988    1
  1588  1009  1008   ar
  1589  1009  1010   ar
  1590  1035  1034    1
  1591   982   981    1
  1592  1008  1018   ar
  1593  1039  1038   ar
  1594   844   845    1
  1595   872   874   ar
  1596   872   871   ar
  1597  1034  1036   ar
  1598   978   966    1
  1599   978   981    1
  1600   978   980    1
  1601   874   875   ar
  1602   870   871   ar
  1603   870   869   ar
  1604  1010  1011   ar
  1605   871   877   ar
  1606   988   984    1
  1607   988   989    1
  1608   966   965    1
  1609  1018  1011   ar
  1610  1018  1017   ar
  1611  1038  1037   ar
  1612   869   868   ar
  1613  1036  1037   ar
  1614   875   876   ar
  1615   845   857    1
  1616  1011  1012   ar
  1617   877   876   ar
  1618   877   868   ar
  1619  1017  1015   ar
  1620   991   990    2
  1621   868   867    1
  1622   989   990   ar
  1623   989   996   ar
  1624   963   965    1
  1625   963   962    1
  1626   963   964    1
  1627   965   967    1
  1628   967   968    1
  1629   990   992   ar
  1630   863   867    1
  1631   863   862    1
  1632  1012  1013    2
  1633  1012  1014   ar
  1634   962   961    1
  1635  1015  1014   ar
  1636  1015  1016    1
  1637   867   866    1
  1638   894   893    1
  1639   859   857    2
  1640   996   995   ar
  1641   857   860    1
  1642   857   858    1
  1643   964   968    1
  1644   968   969    1
  1645   935   934    2
  1646   935   951    1
  1647   893   892   ar
  1648   893   895   ar
  1649   892   890   ar
  1650   860   861    1
  1651   992   993   ar
  1652   959   958    2
  1653   862   861    1
  1654   862   864    1
  1655   995   993   ar
  1656   961   958    1
  1657   866   864    1
  1658   895   896   ar
  1659   993   994    1
  1660   934   936    1
  1661   934   933    2
  1662   890   891    2
  1663   890   889   ar
  1664   951   950    1
  1665   958   946    1
  1666   958   960    1
  1667   947   948    1
  1668   947   945    1
  1669   971   970    2
  1670   936   937    1
  1671   969   970   ar
  1672   969   976   ar
  1673   933   931    1
  1674   864   865    1
  1675   910   909    2
  1676   911   909   ar
  1677   911   912   ar
  1678   913   912    1
  1679   896   889   ar
  1680   948   944    1
  1681   948   949    1
  1682   889   888    1
  1683   946   945    1
  1684   970   972   ar
  1685   909   908   ar
  1686   912   914   ar
  1687   976   975   ar
  1688   945   943    1
  1689   937   930   ar
  1690   937   927   ar
  1691   950   949   ar
  1692   950   952   ar
  1693   931   932    2
  1694   931   930    1
  1695   944   943    1
  1696   888   884    1
  1697   888   887    1
  1698   943   942    1
  1699   926   925    1
  1700   926   927    1
  1701   926   922    1
  1702   925   923    1
  1703   949   956   ar
  1704   930   929   ar
  1705   865   878    1
  1706   927   928   ar
  1707   884   883    1
  1708   908   907    1
  1709   908   915   ar
  1710   914   915   ar
  1711   952   953   ar
  1712   972   973   ar
  1713   907   903    1
  1714   907   906    1
  1715   922   921    1
  1716   975   973   ar
  1717   975   977    1
  1718   880   878    2
  1719   929   928   ar
  1720   887   885    1
  1721   942   941    1
  1722   881   878    1
  1723   881   882    1
  1724   878   879    1
  1725   956   955   ar
  1726   903   902    1
  1727   923   921    1
  1728   923   924    1
  1729   941   938    1
  1730   973   974    2
  1731   906   904    1
  1732   921   920    1
  1733   883   885    1
  1734   883   882    1
  1735   924   938    1
  1736   953   955   ar
  1737   953   954    2
  1738   885   886    1
  1739   955   957    1
  1740   902   904    1
  1741   902   901    1
  1742   938   940    2
  1743   938   939    1
  1744   904   905    1
  1745   920   919    1
  1746   886   897    1
  1747   900   901    1
  1748   900   897    1
  1749   919   916    1
  1750   899   897    2
  1751   905   916    1
  1752   897   898    1
  1753   916   918    2
  1754   916   917    1
