@<TRIPOS>MOLECULE
dna.pdb
 1573 1753 0 0 0
SMALL
GASTEIGER

@<TRIPOS>ATOM
      1  O5'        5.0480    6.3760  -13.3030 O.3     1  DA1        -0.2176
      2  C5'        4.7340    6.9280  -14.5820 C.3     1  DA1         0.2140
      3  C4'        3.2440    7.1110  -14.7130 C.3     1  DA1         0.1776
      4  O4'        2.6070    5.8160  -14.8460 O.3     1  DA1        -0.3326
      5  C3'        2.6040    7.7350  -13.4850 C.3     1  DA1         0.1559
      6  O3'        2.6510    9.1500  -13.5220 O.3     1  DA1        -0.3138
      7  C2'        1.1890    7.1790  -13.5000 C.3     1  DA1         0.0865
      8  C1'        1.4170    5.7810  -14.0670 C.3     1  DA1         0.2094
      9  N9         1.5630    4.8100  -12.9720 N.ar    1  DA1        -0.2714
     10  C8         2.6930    4.4070  -12.3110 C.ar    1  DA1         0.1815
     11  N7         2.4550    3.6380  -11.2750 N.ar    1  DA1        -0.2193
     12  C5         1.0730    3.5290  -11.2540 C.ar    1  DA1         0.1518
     13  C6         0.1910    2.8470  -10.3980 C.ar    1  DA1         0.1919
     14  N6         0.5910    2.1140   -9.3560 N.pl3   1  DA1        -0.1054
     15  N1        -1.1310    2.9450  -10.6530 N.ar    1  DA1        -0.2040
     16  C2        -1.5300    3.6780  -11.6980 C.ar    1  DA1         0.2016
     17  N3        -0.7980    4.3640  -12.5730 N.ar    1  DA1        -0.2048
     18  C4         0.5100    4.2470  -12.2920 C.ar    1  DA1         0.1691
     19  P          3.2100   10.1520  -12.0640 P.3     2  DT2         0.2141
     20  OP1        3.5430   11.5030  -12.5790 O.2     2  DT2        -0.5172
     21  OP2        3.9070    9.6170  -10.8710 O.3     2  DT2        -0.4373
     22  O5'        1.6340   10.1200  -11.8070 O.3     2  DT2        -0.3114
     23  C5'        0.7930   10.5030  -12.8830 C.3     2  DT2         0.1811
     24  C4'       -0.5410    9.7880  -12.8370 C.3     2  DT2         0.1746
     25  O4'       -0.3660    8.3500  -12.8120 O.3     2  DT2        -0.3327
     26  C3'       -1.3660   10.0440  -11.5920 C.3     2  DT2         0.1558
     27  O3'       -1.9300   11.3500  -11.6210 O.3     2  DT2        -0.3138
     28  C2'       -2.3980    8.9360  -11.7580 C.3     2  DT2         0.0866
     29  C1'       -1.4860    7.7780  -12.1600 C.3     2  DT2         0.2106
     30  N1        -1.0030    7.0030  -11.0380 N.ar    2  DT2        -0.2559
     31  C2        -1.7970    6.0620  -10.4090 C.ar    2  DT2         0.3545
     32  O2        -2.9940    5.9610  -10.6140 O.2     2  DT2        -0.2443
     33  N3        -1.1380    5.2410   -9.5270 N.ar    2  DT2        -0.1533
     34  C4         0.2060    5.2640   -9.2170 C.ar    2  DT2         0.2804
     35  O4         0.6530    4.4600   -8.4040 O.2     2  DT2        -0.2654
     36  C5         0.9630    6.2690   -9.9100 C.ar    2  DT2         0.0534
     37  C6         0.3470    7.0810  -10.7730 C.ar    2  DT2         0.0824
     38  C7         2.4350    6.3750   -9.6400 C.3     2  DT2         0.0377
     39  P         -2.1760   12.1120  -10.3170 P.3     3  DA3         0.2141
     40  OP1       -2.1450   13.5650  -10.6050 O.2     3  DA3        -0.5172
     41  OP2       -1.0110   11.4190   -9.7150 O.3     3  DA3        -0.4373
     42  O5'       -3.3470   11.7910   -9.2760 O.3     3  DA3        -0.3114
     43  C5'       -4.6440   12.3080   -9.5250 C.3     3  DA3         0.1811
     44  C4'       -5.6840   11.5460   -8.7500 C.3     3  DA3         0.1746
     45  O4'       -5.5330   10.1270   -9.0110 O.3     3  DA3        -0.3327
     46  C3'       -5.6020   11.6700   -7.2360 C.3     3  DA3         0.1558
     47  O3'       -6.2690   12.8240   -6.7580 O.3     3  DA3        -0.3138
     48  C2'       -6.2460   10.3790   -6.7610 C.3     3  DA3         0.0865
     49  C1'       -5.8220    9.3920   -7.8450 C.3     3  DA3         0.2094
     50  N9        -4.6600    8.6470   -7.5230 N.ar    3  DA3        -0.2714
     51  C8        -3.3980    8.8440   -8.0200 C.ar    3  DA3         0.1815
     52  N7        -2.4970    8.0370   -7.5110 N.ar    3  DA3        -0.2193
     53  C5        -3.2170    7.2580   -6.6180 C.ar    3  DA3         0.1518
     54  C6        -2.8390    6.2110   -5.7590 C.ar    3  DA3         0.1919
     55  N6        -1.5890    5.7520   -5.6580 N.pl3   3  DA3        -0.1054
     56  N1        -3.8020    5.6460   -4.9990 N.ar    3  DA3        -0.2040
     57  C2        -5.0540    6.1060   -5.1020 C.ar    3  DA3         0.2016
     58  N3        -5.5300    7.0820   -5.8720 N.ar    3  DA3        -0.2048
     59  C4        -4.5490    7.6230   -6.6140 C.ar    3  DA3         0.1691
     60  P         -5.7670   13.6170   -5.3490 P.3     4  DC4         0.2141
     61  OP1       -6.2610   14.9110   -4.8290 O.3     4  DC4        -0.4373
     62  OP2       -4.3720   13.4780   -5.8310 O.2     4  DC4        -0.5172
     63  O5'       -5.8940   12.5250   -4.1850 O.3     4  DC4        -0.3114
     64  C5'       -6.9990   12.5440   -3.2940 C.3     4  DC4         0.1811
     65  C4'       -7.1930   11.1950   -2.6530 C.3     4  DC4         0.1746
     66  O4'       -6.8490   10.1730   -3.6210 O.3     4  DC4        -0.3327
     67  C3'       -6.3100   10.8870   -1.4540 C.3     4  DC4         0.1558
     68  O3'       -6.8240   11.3980   -0.2370 O.3     4  DC4        -0.3138
     69  C2'       -6.2180    9.3660   -1.4790 C.3     4  DC4         0.0866
     70  C1'       -6.2170    9.0880   -2.9800 C.3     4  DC4         0.2106
     71  N1        -4.8030    8.9650   -3.5010 N.ar    4  DC4        -0.2556
     72  C2        -3.9880    7.8660   -3.2040 C.ar    4  DC4         0.3531
     73  O2        -4.3760    7.0460   -2.3550 O.2     4  DC4        -0.2443
     74  N3        -2.8040    7.7310   -3.8470 N.ar    4  DC4        -0.1739
     75  C4        -2.4280    8.6360   -4.7510 C.ar    4  DC4         0.1759
     76  N4        -1.2520    8.4610   -5.3590 N.pl3   4  DC4        -0.1070
     77  C5        -3.2390    9.7560   -5.0660 C.ar    4  DC4         0.0566
     78  C6        -4.4080    9.8870   -4.4290 C.ar    4  DC4         0.0849
     79  P         -5.9190   11.8030    0.8330 P.3     5  DC5         0.2141
     80  OP1       -6.9650   12.4630    1.6410 O.3     5  DC5        -0.4373
     81  OP2       -4.7670   12.5660    0.3050 O.2     5  DC5        -0.5172
     82  O5'       -5.2920   10.5980    1.6740 O.3     5  DC5        -0.3114
     83  C5'       -6.2010    9.5410    1.9390 C.3     5  DC5         0.1811
     84  C4'       -5.5430    8.1900    1.9370 C.3     5  DC5         0.1746
     85  O4'       -4.9830    7.9010    0.6350 O.3     5  DC5        -0.3327
     86  C3'       -4.3520    8.0500    2.8590 C.3     5  DC5         0.1558
     87  O3'       -4.7210    7.9180    4.2130 O.3     5  DC5        -0.3138
     88  C2'       -3.6770    6.8190    2.2940 C.3     5  DC5         0.0866
     89  C1'       -3.8410    7.0830    0.8030 C.3     5  DC5         0.2106
     90  N1        -2.6840    7.6440    0.2250 N.ar    5  DC5        -0.2556
     91  C2        -1.4700    6.9650    0.0730 C.ar    5  DC5         0.3531
     92  O2        -1.3430    5.8440    0.5930 O.2     5  DC5        -0.2443
     93  N3        -0.4720    7.5480   -0.6330 N.ar    5  DC5        -0.1739
     94  C4        -0.6530    8.7550   -1.1720 C.ar    5  DC5         0.1759
     95  N4         0.3590    9.2900   -1.8600 N.pl3   5  DC5        -0.1070
     96  C5        -1.8760    9.4590   -1.0300 C.ar    5  DC5         0.0566
     97  C6        -2.8590    8.8800   -0.3320 C.ar    5  DC5         0.0849
     98  P         -4.2940    8.6050    4.4170 P.3     6  DA6         0.2141
     99  OP1       -4.6490    8.2540    5.8080 O.3     6  DA6        -0.4373
    100  OP2       -3.7210    9.9400    4.1400 O.2     6  DA6        -0.5172
    101  O5'       -3.1950    7.5570    3.9000 O.3     6  DA6        -0.3114
    102  C5'       -2.9730    6.3590    4.6510 C.3     6  DA6         0.1811
    103  C4'       -1.5330    5.8720    4.7570 C.3     6  DA6         0.1746
    104  O4'       -0.8490    6.0030    3.4750 O.3     6  DA6        -0.3327
    105  C3'       -0.6390    6.5850    5.7690 C.3     6  DA6         0.1558
    106  O3'       -0.4880    5.9070    7.0070 O.3     6  DA6        -0.3138
    107  C2'        0.7330    6.6740    5.1050 C.3     6  DA6         0.0865
    108  C1'        0.4610    6.5190    3.6220 C.3     6  DA6         0.2094
    109  N9         0.4400    7.8530    3.0890 N.ar    6  DA6        -0.2714
    110  C8        -0.5620    8.7770    3.2290 C.ar    6  DA6         0.1815
    111  N7        -0.2220    9.9870    2.8510 N.ar    6  DA6        -0.2193
    112  C5         1.0920    9.8480    2.4360 C.ar    6  DA6         0.1518
    113  C6         2.0240   10.7660    1.9200 C.ar    6  DA6         0.1919
    114  N6         1.7570   12.0600    1.7270 N.pl3   6  DA6        -0.1054
    115  N1         3.2520   10.3030    1.6050 N.ar    6  DA6        -0.2040
    116  C2         3.5180    9.0060    1.7980 C.ar    6  DA6         0.2016
    117  N3         2.7270    8.0470    2.2740 N.ar    6  DA6        -0.2048
    118  C4         1.5150    8.5400    2.5780 C.ar    6  DA6         0.1691
    119  P         -0.4900    6.9360    8.0080 P.3     7  DG7         0.2141
    120  OP1       -1.2940    6.6960    9.2260 O.3     7  DG7        -0.4373
    121  OP2       -0.1260    8.3180    7.6260 O.2     7  DG7        -0.5172
    122  O5'        0.9110    6.1820    8.1310 O.3     7  DG7        -0.3114
    123  C5'        1.9910    6.8150    8.7950 C.3     7  DG7         0.1811
    124  C4'        3.2900    6.5580    8.0780 C.3     7  DG7         0.1746
    125  O4'        3.1320    6.8110    6.6580 O.3     7  DG7        -0.3327
    126  C3'        4.4370    7.4650    8.4850 C.3     7  DG7         0.1558
    127  O3'        5.0570    7.0640    9.6910 O.3     7  DG7        -0.3138
    128  C2'        5.3360    7.4150    7.2610 C.3     7  DG7         0.0865
    129  C1'        4.2830    7.4500    6.1560 C.3     7  DG7         0.2094
    130  N9         3.9120    8.8540    5.8520 N.ar    7  DG7        -0.2713
    131  C8         2.6570    9.3920    6.0040 C.ar    7  DG7         0.1816
    132  N7         2.5740   10.6290    5.5960 N.ar    7  DG7        -0.2173
    133  C5         3.8470   10.9280    5.1460 C.ar    7  DG7         0.1748
    134  C6         4.3720   12.1230    4.5900 C.ar    7  DG7         0.3023
    135  O6         3.7860   13.1920    4.3780 O.2     7  DG7        -0.2633
    136  N1         5.7210   11.9980    4.2680 N.ar    7  DG7        -0.1709
    137  C2         6.4710   10.8620    4.4580 C.ar    7  DG7         0.2606
    138  N2         7.7550   10.9320    4.0850 N.pl3   7  DG7        -0.0859
    139  N3         5.9960    9.7450    4.9750 N.ar    7  DG7        -0.1918
    140  C4         4.6890    9.8430    5.2960 C.ar    7  DG7         0.1722
    141  P          4.8100    8.0270   11.0060 P.3     8  DC8         0.2141
    142  OP1        4.9450    6.9100   11.9710 O.3     8  DC8        -0.4373
    143  OP2        3.5660    8.8450   10.9990 O.2     8  DC8        -0.5172
    144  O5'        6.0500    9.0120   11.2150 O.3     8  DC8        -0.3114
    145  C5'        7.3660    8.4970   11.4290 C.3     8  DC8         0.1811
    146  C4'        8.4030    9.4440   10.8650 C.3     8  DC8         0.1746
    147  O4'        8.0670    9.7840    9.4930 O.3     8  DC8        -0.3327
    148  C3'        8.5080   10.8070   11.5280 C.3     8  DC8         0.1558
    149  O3'        9.2370   10.7530   12.7470 O.3     8  DC8        -0.3138
    150  C2'        9.2450   11.5940   10.4560 C.3     8  DC8         0.0866
    151  C1'        8.5180   11.1040    9.2070 C.3     8  DC8         0.2106
    152  N1         7.4210   11.9290    8.8730 N.ar    8  DC8        -0.2556
    153  C2         7.5750   13.1360    8.1810 C.ar    8  DC8         0.3531
    154  O2         8.7160   13.6140    8.0590 O.2     8  DC8        -0.2443
    155  N3         6.4810   13.7470    7.6680 N.ar    8  DC8        -0.1739
    156  C4         5.2760   13.1980    7.8250 C.ar    8  DC8         0.1759
    157  N4         4.2260   13.8350    7.3020 N.pl3   8  DC8        -0.1070
    158  C5         5.0980   11.9760    8.5230 C.ar    8  DC8         0.0566
    159  C6         6.1820   11.3760    9.0280 C.ar    8  DC8         0.0849
    160  P          8.9140   11.7900   13.9660 P.3     9  DT9         0.2141
    161  OP1        9.2880   10.9290   15.1120 O.3     9  DT9        -0.4373
    162  OP2        7.5230   12.2740   13.7960 O.2     9  DT9        -0.5172
    163  O5'        9.7920   13.1240   14.0080 O.3     9  DT9        -0.3114
    164  C5'       10.2210   13.5130   12.7080 C.3     9  DT9         0.1811
    165  C4'       11.0660   14.7560   12.6910 C.3     9  DT9         0.1746
    166  O4'       11.0450   15.2130   11.3170 O.3     9  DT9        -0.3327
    167  C3'       10.5420   15.9010   13.5500 C.3     9  DT9         0.1558
    168  O3'       11.4700   16.2880   14.5620 O.3     9  DT9        -0.3138
    169  C2'       10.2530   17.0540   12.5830 C.3     9  DT9         0.0866
    170  C1'       10.4160   16.4710   11.1880 C.3     9  DT9         0.2106
    171  N1         9.0360   16.0450   10.4500 N.ar    9  DT9        -0.2559
    172  C2         8.6470   17.0890    9.6330 C.ar    9  DT9         0.3545
    173  O2         9.4390   17.8540    9.1110 O.2     9  DT9        -0.2443
    174  N3         7.2910   17.2090    9.4490 N.ar    9  DT9        -0.1533
    175  C4         6.3060   16.4070    9.9870 C.ar    9  DT9         0.2804
    176  O4         5.1280   16.6400    9.7280 O.2     9  DT9        -0.2654
    177  C5         6.7890   15.3460   10.8240 C.ar    9  DT9         0.0534
    178  C6         8.1030   15.2060   11.0210 C.ar    9  DT9         0.0824
    179  C7         5.7940   14.4190   11.4570 C.3     9  DT9         0.0377
    180  P         10.8310   16.3740   16.3520 P.3    10  DT10        0.2141
    181  OP1       12.0530   16.4460   17.1940 O.3    10  DT10       -0.4373
    182  OP2        9.9280   15.1970   16.4440 O.2    10  DT10       -0.5172
    183  O5'        9.9710   17.7080   16.6150 O.3    10  DT10       -0.3114
    184  C5'       10.5500   18.9950   16.4250 C.3    10  DT10        0.1811
    185  C4'        9.5240   20.0920   16.6370 C.3    10  DT10        0.1746
    186  O4'        8.4160   19.9610   15.7210 O.3    10  DT10       -0.3327
    187  C3'        8.8340   20.0630   17.9840 C.3    10  DT10        0.1558
    188  O3'        9.7010   20.6090   18.9550 O.3    10  DT10       -0.3138
    189  C2'        7.6240   20.9540   17.7220 C.3    10  DT10        0.0866
    190  C1'        7.2600   20.5400   16.3060 C.3    10  DT10        0.2106
    191  N1         5.9500   19.4490   16.1990 N.ar   10  DT10       -0.2559
    192  C2         4.6780   19.9890   16.2250 C.ar   10  DT10        0.3545
    193  O2         4.4660   21.1850   16.3190 O.2    10  DT10       -0.2443
    194  N3         3.6560   19.0740   16.1360 N.ar   10  DT10       -0.1533
    195  C4         3.7760   17.7040   16.0280 C.ar   10  DT10        0.2804
    196  O4         2.7640   17.0120   15.9560 O.2    10  DT10       -0.2654
    197  C5         5.1280   17.2210   16.0090 C.ar   10  DT10        0.0534
    198  C6         6.1400   18.0880   16.0930 C.ar   10  DT10        0.0824
    199  C7         5.3630   15.7440   15.8940 C.3    10  DT10        0.0377
    200  P          9.4740   20.2390   20.4540 P.3    11  DA11        0.2141
    201  OP1       10.6540   20.5030   21.3090 O.3    11  DA11       -0.4373
    202  OP2        8.9020   18.8610   20.3870 O.2    11  DA11       -0.5172
    203  O5'        8.3160   21.2480   20.8780 O.3    11  DA11       -0.3114
    204  C5'        8.4720   22.6610   20.7440 C.3    11  DA11        0.1811
    205  C4'        7.1260   23.3250   20.8710 C.3    11  DA11        0.1746
    206  O4'        6.3410   23.0390   19.6810 O.3    11  DA11       -0.3327
    207  C3'        6.3070   22.7830   22.0320 C.3    11  DA11        0.1558
    208  O3'        6.6130   23.4840   23.2290 O.3    11  DA11       -0.3138
    209  C2'        4.8760   22.9730   21.5440 C.3    11  DA11        0.0865
    210  C1'        5.0220   22.6680   20.0480 C.3    11  DA11        0.2094
    211  N9         4.7590   21.2450   19.6250 N.ar   11  DA11       -0.2714
    212  C8         5.6370   20.2430   19.3050 C.ar   11  DA11        0.1815
    213  N7         5.0650   19.0770   19.1190 N.ar   11  DA11       -0.2193
    214  C5         3.7190   19.3310   19.3320 C.ar   11  DA11        0.1518
    215  C6         2.5820   18.5050   19.2850 C.ar   11  DA11        0.1919
    216  N6         2.6260   17.2020   18.9950 N.pl3  11  DA11       -0.1054
    217  N1         1.3850   19.0710   19.5490 N.ar   11  DA11       -0.2040
    218  C2         1.3430   20.3770   19.8390 C.ar   11  DA11        0.2016
    219  N3         2.3400   21.2550   19.9120 N.ar   11  DA11       -0.2048
    220  C4         3.5150   20.6610   19.6450 C.ar   11  DA11        0.1691
    221  P          6.9960   22.5300   24.8390 P.3    12  DT12        0.2141
    222  OP1        7.5800   23.4840   25.8000 O.3    12  DT12       -0.4373
    223  OP2        7.3180   21.0870   24.9440 O.2    12  DT12       -0.5172
    224  O5'        5.4180   22.6660   24.8920 O.3    12  DT12       -0.3114
    225  C5'        4.7940   23.9390   24.7330 C.3    12  DT12        0.1811
    226  C4'        3.3040   23.7760   24.7450 C.3    12  DT12        0.1746
    227  O4'        2.8590   23.1480   23.5140 O.3    12  DT12       -0.3327
    228  C3'        2.7990   22.8300   25.8140 C.3    12  DT12        0.1558
    229  O3'        2.8090   23.4100   27.1130 O.3    12  DT12       -0.3138
    230  C2'        1.4210   22.4720   25.2750 C.3    12  DT12        0.0866
    231  C1'        1.7180   22.3460   23.7810 C.3    12  DT12        0.2106
    232  N1         2.0010   20.9560   23.4090 N.ar   12  DT12       -0.2559
    233  C2         0.9190   20.1560   23.0950 C.ar   12  DT12        0.3545
    234  O2        -0.2270   20.5680   23.0710 O.2    12  DT12       -0.2443
    235  N3         1.2280   18.8480   22.8090 N.ar   12  DT12       -0.1533
    236  C4         2.4810   18.2730   22.8070 C.ar   12  DT12        0.2804
    237  O4         2.6000   17.0820   22.5280 O.2    12  DT12       -0.2654
    238  C5         3.5520   19.1680   23.1440 C.ar   12  DT12        0.0534
    239  C6         3.2800   20.4450   23.4260 C.ar   12  DT12        0.0824
    240  C7         4.9550   18.6370   23.1690 C.3    12  DT12        0.0377
    241  P          2.4750   22.5120   28.3560 P.3    13  DT13        0.2141
    242  OP1        2.2370   23.3510   29.5490 O.3    13  DT13       -0.4373
    243  OP2        3.6760   21.6450   28.3100 O.2    13  DT13       -0.5172
    244  O5'        1.1830   21.5990   28.0940 O.3    13  DT13       -0.3114
    245  C5'       -0.0120   21.8100   28.8350 C.3    13  DT13        0.1811
    246  C4'       -1.1380   20.9340   28.3220 C.3    13  DT13        0.1746
    247  O4'       -1.0070   20.7450   26.8950 O.3    13  DT13       -0.3327
    248  C3'       -1.1480   19.5130   28.8520 C.3    13  DT13        0.1558
    249  O3'       -1.7350   19.4670   30.1130 O.3    13  DT13       -0.3138
    250  C2'       -2.0170   18.8190   27.8230 C.3    13  DT13        0.0866
    251  C1'       -1.4670   19.4500   26.5530 C.3    13  DT13        0.2106
    252  N1        -0.3300   18.6120   26.0660 N.ar   13  DT13       -0.2559
    253  C2        -0.5390   17.5410   25.2190 C.ar   13  DT13        0.3545
    254  O2        -1.6480   17.1380   24.9170 O.2    13  DT13       -0.2443
    255  N3         0.6040   16.9520   24.7340 N.ar   13  DT13       -0.1533
    256  C4         1.9060   17.3190   25.0060 C.ar   13  DT13        0.2804
    257  O4         2.8310   16.6920   24.4940 O.2    13  DT13       -0.2654
    258  C5         2.0400   18.4390   25.8940 C.ar   13  DT13        0.0534
    259  C6         0.9450   19.0300   26.3800 C.ar   13  DT13        0.0824
    260  C7         3.4170   18.9140   26.2510 C.3    13  DT13        0.0377
    261  P         -0.7310   18.9810   31.3620 P.3    14  DC14        0.2141
    262  OP1       -0.3740   20.0130   32.3640 O.3    14  DC14       -0.4373
    263  OP2        0.3080   18.1070   30.7740 O.2    14  DC14       -0.5172
    264  O5'       -1.7960   17.9650   31.9900 O.3    14  DC14       -0.3114
    265  C5'       -1.8700   16.6280   31.5220 C.3    14  DC14        0.1811
    266  C4'       -2.9230   16.4620   30.4570 C.3    14  DC14        0.1746
    267  O4'       -2.4410   17.0330   29.2130 O.3    14  DC14       -0.3327
    268  C3'       -3.2530   15.0230   30.1000 C.3    14  DC14        0.1558
    269  O3'       -4.1790   14.4310   30.9930 O.3    14  DC14       -0.3138
    270  C2'       -3.7560   15.1420   28.6670 C.3    14  DC14        0.0866
    271  C1'       -2.8180   16.2180   28.1230 C.3    14  DC14        0.2106
    272  N1        -1.4140   15.2600   27.5390 N.ar   14  DC14       -0.2556
    273  C2        -1.5680   14.4420   26.4140 C.ar   14  DC14        0.3531
    274  O2        -2.7090   14.0580   26.1050 O.2    14  DC14       -0.2443
    275  N3        -0.4730   14.0930   25.6970 N.ar   14  DC14       -0.1739
    276  C4         0.7330   14.5280   26.0660 C.ar   14  DC14        0.1759
    277  N4         1.7830   14.1580   25.3300 N.pl3  14  DC14       -0.1070
    278  C5         0.9100   15.3580   27.2030 C.ar   14  DC14        0.0566
    279  C6        -0.1740   15.7000   27.9080 C.ar   14  DC14        0.0849
    280  P         -4.0460   12.8330   31.3510 P.3    15  DA15        0.2141
    281  OP1       -5.2030   12.8170   32.2690 O.3    15  DA15       -0.4373
    282  OP2       -2.7500   12.2620   31.7940 O.2    15  DA15       -0.5172
    283  O5'       -4.4810   12.0820   30.0200 O.3    15  DA15       -0.3114
    284  C5'       -5.7790   12.2920   29.4600 C.3    15  DA15        0.1811
    285  C4'       -5.8770   11.6200   28.1180 C.3    15  DA15        0.1746
    286  O4'       -4.9180   12.2180   27.2070 O.3    15  DA15       -0.3327
    287  C3'       -5.5230   10.1430   28.0950 C.3    15  DA15        0.1558
    288  O3'       -6.6120    9.3420   28.5320 O.3    15  DA15       -0.3138
    289  C2'       -5.1910    9.9320   26.6250 C.3    15  DA15        0.0865
    290  C1'       -4.4480   11.2300   26.3020 C.3    15  DA15        0.2094
    291  N9        -2.9970   11.1140   26.4570 N.ar   15  DA15       -0.2714
    292  C8        -2.2190   11.5020   27.5170 C.ar   15  DA15        0.1815
    293  N7        -0.9390   11.2720   27.3450 N.ar   15  DA15       -0.2193
    294  C5        -0.8720   10.6940   26.0870 C.ar   15  DA15        0.1518
    295  C6         0.2070   10.2190   25.3210 C.ar   15  DA15        0.1919
    296  N6         1.4780   10.2560   25.7300 N.pl3  15  DA15       -0.1054
    297  N1        -0.0680    9.6990   24.1060 N.ar   15  DA15       -0.2040
    298  C2        -1.3410    9.6630   23.6960 C.ar   15  DA15        0.2016
    299  N3        -2.4390   10.0780   24.3250 N.ar   15  DA15       -0.2048
    300  C4        -2.1310   10.5890   25.5290 C.ar   15  DA15        0.1691
    301  P         -6.3460    7.9390   29.3300 P.3    16  DA16        0.2141
    302  OP1       -7.4430    7.2030   30.0020 O.3    16  DA16       -0.4373
    303  OP2       -5.0070    8.0200   29.9580 O.2    16  DA16       -0.5172
    304  O5'       -6.0560    7.3110   27.8820 O.3    16  DA16       -0.3114
    305  C5'       -7.1160    6.9100   27.0210 C.3    16  DA16        0.1811
    306  C4'       -6.6080    6.4470   25.6760 C.3    16  DA16        0.1746
    307  O4'       -5.6960    7.4410   25.1520 O.3    16  DA16       -0.3327
    308  C3'       -5.8250    5.1370   25.6600 C.3    16  DA16        0.1558
    309  O3'       -6.6580    3.9970   25.5240 O.3    16  DA16       -0.3138
    310  C2'       -4.8780    5.3100   24.4830 C.3    16  DA16        0.0865
    311  C1'       -4.6110    6.8140   24.5100 C.3    16  DA16        0.2094
    312  N9        -3.3390    7.2920   25.2520 N.ar   16  DA16       -0.2714
    313  C8        -3.1650    7.6160   26.5720 C.ar   16  DA16        0.1815
    314  N7        -1.9150    7.8480   26.8990 N.ar   16  DA16       -0.2193
    315  C5        -1.2220    7.6620   25.7140 C.ar   16  DA16        0.1518
    316  C6         0.1420    7.7590   25.3910 C.ar   16  DA16        0.1919
    317  N6         1.0900    8.0830   26.2740 N.pl3  16  DA16       -0.1054
    318  N1         0.5030    7.5100   24.1140 N.ar   16  DA16       -0.2040
    319  C2        -0.4470    7.1870   23.2290 C.ar   16  DA16        0.2016
    320  N3        -1.7600    7.0650   23.4130 N.ar   16  DA16       -0.2048
    321  C4        -2.0860    7.3180   24.6910 C.ar   16  DA16        0.1691
    322  P         -6.1830    2.5830   25.7840 P.3    17  DT17        0.2141
    323  OP1       -7.4430    1.8840   25.4050 O.2    17  DT17       -0.5172
    324  OP2       -5.6350    2.6180   27.1730 O.3    17  DT17       -0.4373
    325  O5'       -5.0360    2.1940   24.7730 O.3    17  DT17       -0.3115
    326  C5'       -5.3590    2.2510   23.4430 C.3    17  DT17        0.1785
    327  C4'       -4.0870    2.4120   22.6600 C.3    17  DT17        0.1473
    328  O4'       -3.3950    3.4920   23.3220 O.3    17  DT17       -0.3353
    329  C3'       -3.0160    1.3490   22.7700 C.3    17  DT17        0.0368
    330  O3'       -3.3160    0.1490   22.0810 O.3    17  DT17       -0.1229
    331  C2'       -1.7990    2.1290   22.2450 C.3    17  DT17        0.0566
    332  C1'       -2.0260    3.4380   22.9570 C.3    17  DT17        0.2081
    333  N1        -1.2760    3.4590   24.1860 N.ar   17  DT17       -0.2559
    334  C2         0.0920    3.6540   24.2090 C.ar   17  DT17        0.3545
    335  O2         0.7770    3.6740   23.2020 O.2    17  DT17       -0.2443
    336  N3         0.6330    3.8240   25.4600 N.ar   17  DT17       -0.1533
    337  C4        -0.0410    3.8190   26.6640 C.ar   17  DT17        0.2804
    338  O4         0.5850    3.9870   27.7080 O.2    17  DT17       -0.2654
    339  C5        -1.4570    3.6100   26.5570 C.ar   17  DT17        0.0534
    340  C6        -2.0100    3.4420   25.3520 C.ar   17  DT17        0.0824
    341  C7        -2.2790    3.5870   27.8120 C.3    17  DT17        0.0377
    342  P         -3.1250   -0.9430   22.9590 P.3    18  DT18        0.4174
    343  OP1       -3.7520   -0.5440   21.6740 O.3    18  DT18       -0.0277
    344  OP2       -3.5620   -2.1940   23.6200 O.2    18  DT18       -0.2667
    345  O5'       -1.5540   -1.1030   22.7050 O.3    18  DT18       -0.2176
    346  C5'       -1.0140   -1.0590   21.3740 C.3    18  DT18        0.2140
    347  C4'        0.5060   -0.9550   21.4000 C.3    18  DT18        0.1776
    348  O4'        0.9180    0.2830   22.0480 O.3    18  DT18       -0.3326
    349  C3'        1.2710   -2.0410   22.1520 C.3    18  DT18        0.1559
    350  O3'        1.4840   -3.1870   21.3340 O.3    18  DT18       -0.3138
    351  C2'        2.6030   -1.3540   22.4400 C.3    18  DT18        0.0866
    352  C1'        2.1520    0.0800   22.7320 C.3    18  DT18        0.2106
    353  N1         1.9930    0.2240   24.1730 N.ar   18  DT18       -0.2559
    354  C2         3.1110    0.3820   24.9700 C.ar   18  DT18        0.3545
    355  O2         4.2480    0.2530   24.5510 O.2    18  DT18       -0.2443
    356  N3         2.8510    0.6970   26.2820 N.ar   18  DT18       -0.1533
    357  C4         1.6120    0.8650   26.8640 C.ar   18  DT18        0.2804
    358  O4         1.5380    1.1490   28.0570 O.2    18  DT18       -0.2654
    359  C5         0.5010    0.6840   25.9720 C.ar   18  DT18        0.0534
    360  C6         0.7260    0.3770   24.6920 C.ar   18  DT18        0.0824
    361  C7        -0.8890    0.8460   26.5110 C.3    18  DT18        0.0377
    362  P          1.3830   -4.4140   21.9570 P.3    19  DA19        0.2141
    363  OP1        1.2500   -5.2950   20.7820 O.2    19  DA19       -0.5172
    364  OP2        0.3460   -4.4440   23.0330 O.3    19  DA19       -0.4373
    365  O5'        2.7730   -4.7420   22.6400 O.3    19  DA19       -0.3114
    366  C5'        3.9730   -4.5720   21.9260 C.3    19  DA19        0.1811
    367  C4'        5.1250   -4.4460   22.8880 C.3    19  DA19        0.1746
    368  O4'        4.9980   -3.2200   23.6610 O.3    19  DA19       -0.3327
    369  C3'        5.2510   -5.5270   23.9430 C.3    19  DA19        0.1558
    370  O3'        5.8350   -6.7320   23.4400 O.3    19  DA19       -0.3138
    371  C2'        6.1210   -4.8360   24.9860 C.3    19  DA19        0.0865
    372  C1'        5.6160   -3.3920   24.9180 C.3    19  DA19        0.2094
    373  N9         4.6890   -3.0150   25.9930 N.ar   19  DA19       -0.2714
    374  C8         3.3280   -2.8870   25.8950 C.ar   19  DA19        0.1815
    375  N7         2.7510   -2.5160   27.0140 N.ar   19  DA19       -0.2193
    376  C5         3.8040   -2.3940   27.9060 C.ar   19  DA19        0.1518
    377  C6         3.8570   -2.0300   29.2630 C.ar   19  DA19        0.1919
    378  N6         2.7800   -1.7080   29.9850 N.pl3  19  DA19       -0.1054
    379  N1         5.0680   -2.0080   29.8600 N.ar   19  DA19       -0.2040
    380  C2         6.1460   -2.3290   29.1350 C.ar   19  DA19        0.2016
    381  N3         6.2230   -2.6860   27.8560 N.ar   19  DA19       -0.2048
    382  C4         5.0040   -2.6990   27.2920 C.ar   19  DA19        0.1691
    383  P          5.5170   -8.1070   24.1840 P.3    20  DA20        0.2141
    384  OP1        5.6430   -9.2360   23.2380 O.2    20  DA20       -0.5172
    385  OP2        4.1760   -7.5890   24.5270 O.3    20  DA20       -0.4373
    386  O5'        6.1940   -8.4620   25.5930 O.3    20  DA20       -0.3114
    387  C5'        7.6060   -8.6250   25.6730 C.3    20  DA20        0.1811
    388  C4'        8.1640   -8.2360   27.0250 C.3    20  DA20        0.1746
    389  O4'        7.8930   -6.8360   27.2960 O.3    20  DA20       -0.3327
    390  C3'        7.6060   -8.9770   28.2340 C.3    20  DA20        0.1558
    391  O3'        8.2470  -10.2300   28.4420 O.3    20  DA20       -0.3138
    392  C2'        7.8270   -7.9860   29.3750 C.3    20  DA20        0.0865
    393  C1'        7.6950   -6.6300   28.6810 C.3    20  DA20        0.2094
    394  N9         6.4410   -6.0430   28.9180 N.ar   20  DA20       -0.2714
    395  C8         5.3560   -6.0820   28.0810 C.ar   20  DA20        0.1815
    396  N7         4.3020   -5.4570   28.5510 N.ar   20  DA20       -0.2193
    397  C5         4.7240   -4.9760   29.7810 C.ar   20  DA20        0.1518
    398  C6         4.0730   -4.2260   30.7760 C.ar   20  DA20        0.1919
    399  N6         2.8070   -3.8130   30.6820 N.pl3  20  DA20       -0.1054
    400  N1         4.7780   -3.9110   31.8840 N.ar   20  DA20       -0.2040
    401  C2         6.0470   -4.3250   31.9770 C.ar   20  DA20        0.2016
    402  N3         6.7660   -5.0330   31.1100 N.ar   20  DA20       -0.2048
    403  C4         6.0380   -5.3300   30.0210 C.ar   20  DA20        0.1691
    404  P          7.4890  -11.5950   29.0960 P.3    21  DT21        0.2141
    405  OP1        8.0350  -12.9530   29.3170 O.3    21  DT21       -0.4373
    406  OP2        6.1440  -11.4460   28.5030 O.2    21  DT21       -0.5172
    407  O5'        7.4850  -10.7500   30.4540 O.3    21  DT21       -0.3114
    408  C5'        8.5980  -10.7890   31.3400 C.3    21  DT21        0.1812
    409  C4'        8.2260  -10.1730   32.6740 C.3    21  DT21        0.1775
    410  O4'        7.8580   -8.7760   32.4960 O.3    21  DT21       -0.3326
    411  C3'        7.0030  -10.7890   33.3370 C.3    21  DT21        0.1864
    412  O3'        7.2990  -12.0160   33.9860 O.3    21  DT21       -0.2133
    413  C2'        6.6010   -9.6750   34.2950 C.3    21  DT21        0.0895
    414  C1'        6.8410   -8.4380   33.4270 C.3    21  DT21        0.2107
    415  N1         5.5640   -8.0160   32.7070 N.ar   21  DT21       -0.2559
    416  C2         4.7310   -7.1700   33.4150 C.ar   21  DT21        0.3545
    417  O2         4.9620   -6.8130   34.5560 O.2    21  DT21       -0.2443
    418  N3         3.6120   -6.7550   32.7350 N.ar   21  DT21       -0.1533
    419  C4         3.2500   -7.0940   31.4480 C.ar   21  DT21        0.2804
    420  O4         2.2120   -6.6400   30.9720 O.2    21  DT21       -0.2654
    421  C5         4.1650   -7.9760   30.7800 C.ar   21  DT21        0.0534
    422  C6         5.2610   -8.3950   31.4180 C.ar   21  DT21        0.0824
    423  C7         3.8590   -8.4030   29.3750 C.3    21  DT21        0.0377
    424  P          6.2160  -13.1420   34.0540 P.3    22  DC22        0.3939
    425  OP1        7.5090  -13.3320   34.7420 O.3    22  DC22       -0.1496
    426  OP2        5.8340  -14.0720   32.9720 O.3    22  DC22       -0.1425
    427  O5'        4.9520  -13.2050   35.0390 O.3    22  DC22       -0.2926
    428  C5'        5.0260  -12.8550   36.4080 C.3    22  DC22        0.1828
    429  C4'        4.0190  -11.7620   36.7490 C.3    22  DC22        0.1747
    430  O4'        4.0200  -10.7190   35.7400 O.3    22  DC22       -0.3327
    431  C3'        2.5260  -12.0540   36.8830 C.3    22  DC22        0.1558
    432  O3'        2.2210  -12.7450   38.0900 O.3    22  DC22       -0.3138
    433  C2'        2.0110  -10.6230   36.9820 C.3    22  DC22        0.0866
    434  C1'        2.8430   -9.9400   35.8920 C.3    22  DC22        0.2106
    435  N1         2.0910   -9.8320   34.7720 N.ar   22  DC22       -0.2556
    436  C2         0.9360   -9.0660   34.5740 C.ar   22  DC22        0.3531
    437  O2         0.4000   -8.5290   35.5580 O.2    22  DC22       -0.2443
    438  N3         0.4390   -8.9350   33.3210 N.ar   22  DC22       -0.1739
    439  C4         1.0480   -9.5310   32.2960 C.ar   22  DC22        0.1759
    440  N4         0.5210   -9.3730   31.0790 N.pl3  22  DC22       -0.1070
    441  C5         2.2190  -10.3110   32.4750 C.ar   22  DC22        0.0566
    442  C6         2.7070  -10.4380   33.7140 C.ar   22  DC22        0.0849
    443  P          0.7160  -13.4210   38.3290 P.3    23  DG23        0.2141
    444  OP1        1.5610  -14.3120   39.1590 O.3    23  DG23       -0.4373
    445  OP2       -0.4520  -13.9980   37.6120 O.2    23  DG23       -0.5172
    446  O5'        0.2000  -12.2000   39.2220 O.3    23  DG23       -0.3114
    447  C5'       -0.7430  -12.4010   40.2920 C.3    23  DG23        0.1811
    448  C4'       -1.1070  -11.0840   40.9370 C.3    23  DG23        0.1746
    449  O4'        0.0530  -10.5190   41.5990 O.3    23  DG23       -0.3327
    450  C3'       -1.5730   -9.9910   39.9930 C.3    23  DG23        0.1558
    451  O3'       -2.9510  -10.1300   39.6730 O.3    23  DG23       -0.3138
    452  C2'       -1.2640   -8.7080   40.7640 C.3    23  DG23        0.0865
    453  C1'       -0.0010   -9.1000   41.5310 C.3    23  DG23        0.2094
    454  N9         1.3830   -8.7700   41.0060 N.ar   23  DG23       -0.2713
    455  C8         2.4010   -9.6080   40.6220 C.ar   23  DG23        0.1816
    456  N7         3.4990   -8.9760   40.3080 N.ar   23  DG23       -0.2173
    457  C5         3.1920   -7.6410   40.4970 C.ar   23  DG23        0.1748
    458  C6         3.9830   -6.4770   40.3160 C.ar   23  DG23        0.3023
    459  O6         5.1590   -6.4020   39.9380 O.2    23  DG23       -0.2633
    460  N1         3.2780   -5.3160   40.6210 N.ar   23  DG23       -0.1709
    461  C2         1.9720   -5.2810   41.0490 C.ar   23  DG23        0.2606
    462  N2         1.4640   -4.0660   41.2950 N.pl3  23  DG23       -0.0859
    463  N3         1.2250   -6.3530   41.2210 N.ar   23  DG23       -0.1918
    464  C4         1.8880   -7.4920   40.9290 C.ar   23  DG23        0.1722
    465  P         -3.4600   -9.5210   38.3050 P.3    24  DC24        0.2141
    466  OP1       -3.8270  -10.5570   37.3060 O.2    24  DC24       -0.5172
    467  OP2       -2.1870   -8.7710   38.1510 O.3    24  DC24       -0.4373
    468  O5'       -4.6530   -8.4730   38.3970 O.3    24  DC24       -0.3114
    469  C5'       -4.5500   -7.1960   37.7800 C.3    24  DC24        0.1811
    470  C4'       -4.1610   -6.1630   38.8060 C.3    24  DC24        0.1744
    471  O4'       -2.9470   -6.5990   39.4690 O.3    24  DC24       -0.3348
    472  C3'       -3.8310   -4.7840   38.2600 C.3    24  DC24        0.1555
    473  O3'       -5.0150   -4.0100   38.1240 O.3    24  DC24       -0.3139
    474  C2'       -2.8960   -4.2280   39.3290 C.3    24  DC24        0.0836
    475  C1'       -2.1170   -5.4820   39.7390 C.3    24  DC24        0.1999
    476  N1        -0.8720   -5.6860   39.2560 N.pl3  24  DC24       -0.2149
    477  C2         0.1160   -4.7000   39.1560 C.2    24  DC24        0.4102
    478  O2        -0.1570   -3.5420   39.5160 O.2    24  DC24       -0.3940
    479  N3         1.3350   -5.0350   38.6710 N.2    24  DC24        0.0218
    480  C4         1.5820   -6.2900   38.2960 C.2    24  DC24        0.4171
    481  N4         2.7990   -6.5730   37.8240 N.pl3  24  DC24        0.2162
    482  C5         0.5950   -7.3040   38.3890 C.2    24  DC24        0.0937
    483  C6        -0.6080   -6.9690   38.8690 C.3    24  DC24        0.1339
    484  P         -4.8530   -2.6070   37.5920 P.3    25  DA25        0.2141
    485  OP1       -6.2800   -2.2270   37.4340 O.3    25  DA25       -0.4373
    486  OP2       -3.9480   -2.5500   36.4150 O.2    25  DA25       -0.5172
    487  O5'       -4.2150   -1.7250   38.7570 O.3    25  DA25       -0.3114
    488  C5'       -3.1880   -0.7820   38.4720 C.3    25  DA25        0.1812
    489  C4'       -1.8670   -1.2980   38.9790 C.3    25  DA25        0.1780
    490  O4'       -1.6910   -2.6640   38.5130 O.3    25  DA25       -0.3053
    491  C3'       -0.6340   -0.5710   38.4730 C.3    25  DA25        0.1597
    492  O3'       -0.3340    0.5810   39.2510 O.3    25  DA25       -0.3137
    493  C2'        0.4390   -1.6370   38.6340 C.3    25  DA25        0.1279
    494  C1'       -0.3250   -2.8930   38.2120 C.3    25  DA25        0.3196
    495  N9        -0.1950   -3.1430   36.8150 N.ar   25  DA25       -0.2414
    496  C8        -1.2460   -3.1340   35.9360 C.ar   25  DA25        0.1841
    497  N7        -0.9640   -3.6600   34.7680 N.ar   25  DA25       -0.2192
    498  C5         0.3630   -4.0400   34.8870 C.ar   25  DA25        0.1519
    499  C6         1.2540   -4.6590   33.9920 C.ar   25  DA25        0.1919
    500  N6         0.9230   -5.0180   32.7500 N.pl3  25  DA25       -0.1054
    501  N1         2.5100   -4.8980   34.4240 N.ar   25  DA25       -0.2040
    502  C2         2.8410   -4.5380   35.6690 C.ar   25  DA25        0.2016
    503  N3         2.0930   -3.9520   36.6020 N.ar   25  DA25       -0.2047
    504  C4         0.8510   -3.7270   36.1410 C.ar   25  DA25        0.1716
    505  P          0.1080    1.4070   38.5520 P.3    26  DT26        0.2141
    506  OP1        0.0340    2.5560   39.4930 O.3    26  DT26       -0.4373
    507  OP2       -0.4230    1.5480   37.1740 O.2    26  DT26       -0.5172
    508  O5'        1.6170    0.9180   38.4060 O.3    26  DT26       -0.3114
    509  C5'        2.3150    0.3150   39.5160 C.3    26  DT26        0.1811
    510  C4'        3.5710   -0.3660   39.0280 C.3    26  DT26        0.1746
    511  O4'        3.2110   -1.4650   38.1620 O.3    26  DT26       -0.3327
    512  C3'        4.5020    0.4970   38.1900 C.3    26  DT26        0.1558
    513  O3'        5.3830    1.2570   39.0190 O.3    26  DT26       -0.3138
    514  C2'        5.2450   -0.5300   37.3390 C.3    26  DT26        0.0866
    515  C1'        4.1770   -1.6010   37.1390 C.3    26  DT26        0.2106
    516  N1         3.5790   -1.6160   35.8820 N.ar   26  DT26       -0.2559
    517  C2         4.2470   -2.2020   34.8240 C.ar   26  DT26        0.3545
    518  O2         5.3190   -2.7670   34.9460 O.2    26  DT26       -0.2443
    519  N3         3.6110   -2.1030   33.6100 N.ar   26  DT26       -0.1533
    520  C4         2.4030   -1.4900   33.3540 C.ar   26  DT26        0.2804
    521  O4         1.9590   -1.4830   32.2080 O.2    26  DT26       -0.2654
    522  C5         1.7720   -0.9040   34.5030 C.ar   26  DT26        0.0534
    523  C6         2.3680   -0.9860   35.6960 C.ar   26  DT26        0.0824
    524  C7         0.4530   -0.2120   34.3270 C.3    26  DT26        0.0377
    525  P          5.9280    2.5780   38.5490 P.3    27  DT27        0.2141
    526  OP1        6.3980    3.3360   39.7160 O.3    27  DT27       -0.4373
    527  OP2        4.6600    3.0960   37.9760 O.2    27  DT27       -0.5172
    528  O5'        6.9940    2.4250   37.3790 O.3    27  DT27       -0.3114
    529  C5'        8.2710    1.8680   37.6760 C.3    27  DT27        0.1811
    530  C4'        8.8640    1.2380   36.4470 C.3    27  DT27        0.1746
    531  O4'        8.0130    0.1470   36.0050 O.3    27  DT27       -0.3327
    532  C3'        8.9980    2.1060   35.1890 C.3    27  DT27        0.1558
    533  O3'       10.1410    2.9270   35.2510 O.3    27  DT27       -0.3138
    534  C2'        9.2770    0.9800   34.1780 C.3    27  DT27        0.0866
    535  C1'        8.2440   -0.0650   34.6170 C.3    27  DT27        0.2106
    536  N1         6.8580    0.1240   34.0120 N.ar   27  DT27       -0.2559
    537  C2         6.6620   -0.4850   32.7870 C.ar   27  DT27        0.3545
    538  O2         7.4920   -1.2060   32.2640 O.2    27  DT27       -0.2443
    539  N3         5.4520   -0.2180   32.1930 N.ar   27  DT27       -0.1533
    540  C4         4.4420    0.5790   32.6890 C.ar   27  DT27        0.2804
    541  O4         3.4100    0.7230   32.0380 O.2    27  DT27       -0.2654
    542  C5         4.7220    1.1770   33.9640 C.ar   27  DT27        0.0534
    543  C6         5.8900    0.9340   34.5650 C.ar   27  DT27        0.0824
    544  C7         3.6850    2.0630   34.5880 C.3    27  DT27        0.0377
    545  P         10.4460    4.6590   34.3460 P.3    28  DA28        0.2141
    546  OP1       11.6730    5.4080   34.7070 O.3    28  DA28       -0.4373
    547  OP2        9.1160    5.3110   34.3810 O.2    28  DA28       -0.5172
    548  O5'       10.5670    4.0850   32.8530 O.3    28  DA28       -0.3114
    549  C5'       11.7630    3.4360   32.4460 C.3    28  DA28        0.1811
    550  C4'       11.5510    2.5090   31.2720 C.3    28  DA28        0.1746
    551  O4'       10.3970    1.6550   31.4970 O.3    28  DA28       -0.3327
    552  C3'       11.2470    3.1570   29.9300 C.3    28  DA28        0.1558
    553  O3'       12.3890    3.7030   29.2950 O.3    28  DA28       -0.3138
    554  C2'       10.6340    1.9930   29.1650 C.3    28  DA28        0.0865
    555  C1'        9.7910    1.3400   30.2590 C.3    28  DA28        0.2094
    556  N9         8.3870    1.8880   30.2630 N.ar   28  DA28       -0.2714
    557  C8         7.8120    2.7320   31.1770 C.ar   28  DA28        0.1815
    558  N7         6.5450    2.9820   30.9410 N.ar   28  DA28       -0.2193
    559  C5         6.2710    2.2540   29.7940 C.ar   28  DA28        0.1518
    560  C6         5.1010    2.0960   29.0310 C.ar   28  DA28        0.1919
    561  N6         3.9410    2.6870   29.3260 N.pl3  28  DA28       -0.1054
    562  N1         5.1650    1.2990   27.9430 N.ar   28  DA28       -0.2040
    563  C2         6.3280    0.7060   27.6490 C.ar   28  DA28        0.2016
    564  N3         7.4930    0.7770   28.2880 N.ar   28  DA28       -0.2048
    565  C4         7.3960    1.5760   29.3640 C.ar   28  DA28        0.1691
    566  P         12.2580    5.0190   28.4000 P.3    29  DC29        0.2141
    567  OP1       13.7360    5.1480   28.3850 O.2    29  DC29       -0.5172
    568  OP2       11.4540    5.8370   29.3450 O.3    29  DC29       -0.4373
    569  O5'       11.6870    5.2800   26.9310 O.3    29  DC29       -0.3114
    570  C5'       12.3370    4.7240   25.7860 C.3    29  DC29        0.1811
    571  C4'       11.3660    3.8950   24.9700 C.3    29  DC29        0.1746
    572  O4'       10.4210    3.2450   25.8620 O.3    29  DC29       -0.3327
    573  C3'       10.4550    4.6160   23.9950 C.3    29  DC29        0.1558
    574  O3'       11.1340    4.8500   22.7770 O.3    29  DC29       -0.3138
    575  C2'        9.3840    3.5630   23.7740 C.3    29  DC29        0.0866
    576  C1'        9.1860    3.0570   25.1990 C.3    29  DC29        0.2106
    577  N1         8.1140    3.7840   25.8380 N.ar   29  DC29       -0.2556
    578  C2         6.7700    3.5110   25.5630 C.ar   29  DC29        0.3531
    579  O2         6.4940    2.7700   24.6040 O.2    29  DC29       -0.2443
    580  N3         5.8110    4.0610   26.3470 N.ar   29  DC29       -0.1739
    581  C4         6.1550    4.8510   27.3650 C.ar   29  DC29        0.1759
    582  N4         5.1760    5.3700   28.1100 N.pl3  29  DC29       -0.1070
    583  C5         7.5120    5.1400   27.6600 C.ar   29  DC29        0.0566
    584  C6         8.4540    4.5950   26.8830 C.ar   29  DC29        0.0849
    585  P         10.7200    5.9910   21.9560 P.3    30  DC30        0.2141
    586  OP1       11.7160    6.5540   21.0260 O.2    30  DC30       -0.5172
    587  OP2       10.4020    6.7050   23.2200 O.3    30  DC30       -0.4373
    588  O5'        9.3270    5.7670   21.1830 O.3    30  DC30       -0.3114
    589  C5'        9.3380    5.1110   19.9070 C.3    30  DC30        0.1811
    590  C4'        7.9440    4.8090   19.4140 C.3    30  DC30        0.1746
    591  O4'        7.2260    4.1910   20.4940 O.3    30  DC30       -0.3327
    592  C3'        7.1010    6.0310   19.1310 C.3    30  DC30        0.1558
    593  O3'        7.4400    6.6170   17.8670 O.3    30  DC30       -0.3138
    594  C2'        5.7070    5.4220   19.2040 C.3    30  DC30        0.0866
    595  C1'        5.8660    4.5550   20.4520 C.3    30  DC30        0.2106
    596  N1         5.5710    5.2360   21.7430 N.ar   30  DC30       -0.2556
    597  C2         4.2480    5.5160   22.1030 C.ar   30  DC30        0.3531
    598  O2         3.3420    5.2680   21.2900 O.2    30  DC30       -0.2443
    599  N3         3.9960    6.0490   23.3230 N.ar   30  DC30       -0.1739
    600  C4         5.0010    6.3000   24.1620 C.ar   30  DC30        0.1759
    601  N4         4.7030    6.8250   25.3530 N.pl3  30  DC30       -0.1070
    602  C5         6.3480    6.0230   23.8160 C.ar   30  DC30        0.0566
    603  C6         6.5930    5.4970   22.6110 C.ar   30  DC30        0.0849
    604  P          7.4530    8.2120   17.8130 P.3    31  DT31        0.2141
    605  OP1        8.2330    8.6300   16.6280 O.2    31  DT31       -0.5172
    606  OP2        7.5450    9.0080   19.0640 O.3    31  DT31       -0.4373
    607  O5'        5.9020    8.1200   17.4370 O.3    31  DT31       -0.3114
    608  C5'        5.4180    7.1370   16.5400 C.3    31  DT31        0.1811
    609  C4'        3.9520    6.8600   16.8080 C.3    31  DT31        0.1746
    610  O4'        3.8170    6.1560   18.0710 O.3    31  DT31       -0.3327
    611  C3'        3.0640    8.0860   16.9740 C.3    31  DT31        0.1558
    612  O3'        2.6360    8.6010   15.7140 O.3    31  DT31       -0.3138
    613  C2'        1.9140    7.5250   17.8060 C.3    31  DT31        0.0866
    614  C1'        2.6480    6.5750   18.7510 C.3    31  DT31        0.2106
    615  N1         3.0750    7.1760   20.0070 N.ar   31  DT31       -0.2559
    616  C2         2.1240    7.2920   21.0030 C.ar   31  DT31        0.3545
    617  O2         0.9730    6.9170   20.8690 O.2    31  DT31       -0.2443
    618  N3         2.5700    7.8680   22.1680 N.ar   31  DT31       -0.1533
    619  C4         3.8430    8.3290   22.4310 C.ar   31  DT31        0.2804
    620  O4         4.0930    8.8220   23.5280 O.2    31  DT31       -0.2654
    621  C5         4.7720    8.1740   21.3480 C.ar   31  DT31        0.0534
    622  C6         4.3660    7.6170   20.2040 C.ar   31  DT31        0.0824
    623  C7         6.1830    8.6460   21.5370 C.3    31  DT31        0.0377
    624  P          2.3020   10.2820   15.5320 P.3    32  DT32        0.2141
    625  OP1        2.0680   10.4260   14.0760 O.2    32  DT32       -0.5172
    626  OP2        3.1600   11.2650   16.2320 O.3    32  DT32       -0.4373
    627  O5'        0.8800   10.2030   16.2740 O.3    32  DT32       -0.3114
    628  C5'       -0.2900    9.8250   15.5580 C.3    32  DT32        0.1811
    629  C4'       -1.2250    8.9960   16.4190 C.3    32  DT32        0.1746
    630  O4'       -0.4800    8.3380   17.4780 O.3    32  DT32       -0.3327
    631  C3'       -2.2840    9.7850   17.1760 C.3    32  DT32        0.1558
    632  O3'       -3.3790   10.1490   16.3410 O.3    32  DT32       -0.3138
    633  C2'       -2.6550    8.7680   18.2490 C.3    32  DT32        0.0866
    634  C1'       -1.2500    8.3550   18.6710 C.3    32  DT32        0.2106
    635  N1        -0.7350    9.3530   19.7340 N.ar   32  DT32       -0.2559
    636  C2        -1.2880    9.4820   20.9930 C.ar   32  DT32        0.3545
    637  O2        -2.4090    9.0940   21.2690 O.2    32  DT32       -0.2443
    638  N3        -0.4780   10.0870   21.9240 N.ar   32  DT32       -0.1533
    639  C4         0.8010   10.5640   21.7260 C.ar   32  DT32        0.2804
    640  O4         1.4040   11.0830   22.6620 O.2    32  DT32       -0.2654
    641  C5         1.3040   10.3940   20.3930 C.ar   32  DT32        0.0534
    642  C6         0.5380    9.8090   19.4680 C.ar   32  DT32        0.0824
    643  C7         2.6870   10.8820   20.0770 C.3    32  DT32        0.0377
    644  P         -4.0000   11.7280   16.3960 P.3    33  DA33        0.2141
    645  OP1       -5.1170   11.9300   15.4370 O.2    33  DA33       -0.5172
    646  OP2       -2.7660   12.5330   16.2580 O.3    33  DA33       -0.4373
    647  O5'       -4.6070   11.8670   17.8710 O.3    33  DA33       -0.3114
    648  C5'       -5.7440   11.0800   18.2350 C.3    33  DA33        0.1811
    649  C4'       -6.3340   11.5340   19.5570 C.3    33  DA33        0.1746
    650  O4'       -5.4950   11.0870   20.6480 O.3    33  DA33       -0.3327
    651  C3'       -6.3840   13.0370   19.7650 C.3    33  DA33        0.1558
    652  O3'       -7.5000   13.5890   19.1020 O.3    33  DA33       -0.3138
    653  C2'       -6.5420   13.0900   21.2750 C.3    33  DA33        0.0865
    654  C1'       -5.4680   12.0880   21.6500 C.3    33  DA33        0.2094
    655  N9        -3.9280   12.8070   21.5000 N.ar   33  DA33       -0.2714
    656  C8        -2.9300   12.4740   20.6210 C.ar   33  DA33        0.1815
    657  N7        -1.8080   13.1230   20.8230 N.ar   33  DA33       -0.2193
    658  C5        -2.0880   13.9380   21.9090 C.ar   33  DA33        0.1518
    659  C6        -1.3100   14.8730   22.6140 C.ar   33  DA33        0.1919
    660  N6        -0.0390   15.1530   22.3170 N.pl3  33  DA33       -0.1054
    661  N1        -1.8920   15.5180   23.6480 N.ar   33  DA33       -0.2040
    662  C2        -3.1660   15.2370   23.9460 C.ar   33  DA33        0.2016
    663  N3        -3.9970   14.3790   23.3580 N.ar   33  DA33       -0.2048
    664  C4        -3.3890   13.7550   22.3350 C.ar   33  DA33        0.1691
    665  P         -7.2090   14.2160   18.1640 P.3    34  DT34        0.2141
    666  OP1       -8.6340   14.5340   17.8640 O.3    34  DT34       -0.4373
    667  OP2       -6.2070   14.1650   17.0660 O.2    34  DT34       -0.5172
    668  O5'       -6.6960   15.2440   19.2600 O.3    34  DT34       -0.3114
    669  C5'       -7.5720   15.7230   20.2910 C.3    34  DT34        0.1811
    670  C4'       -7.0690   17.0400   20.8070 C.3    34  DT34        0.1746
    671  O4'       -5.8900   16.8400   21.6310 O.3    34  DT34       -0.3327
    672  C3'       -6.5890   17.9750   19.7150 C.3    34  DT34        0.1558
    673  O3'       -7.6490   18.6740   19.1070 O.3    34  DT34       -0.3138
    674  C2'       -5.6350   18.8830   20.4680 C.3    34  DT34        0.0866
    675  C1'       -4.9660   17.8890   21.4050 C.3    34  DT34        0.2106
    676  N1        -3.7080   17.2660   20.7780 N.ar   34  DT34       -0.2559
    677  C2        -2.5550   18.0250   20.8310 C.ar   34  DT34        0.3545
    678  O2        -2.5060   19.1240   21.3530 O.2    34  DT34       -0.2443
    679  N3        -1.4530   17.4480   20.2460 N.ar   34  DT34       -0.1533
    680  C4        -1.3910   16.2170   19.6270 C.ar   34  DT34        0.2804
    681  O4        -0.3260   15.8340   19.1480 O.2    34  DT34       -0.2654
    682  C5        -2.6290   15.4910   19.6120 C.ar   34  DT34        0.0534
    683  C6        -3.7160   16.0270   20.1740 C.ar   34  DT34        0.0824
    684  C7        -2.6640   14.1400   18.9610 C.3    34  DT34        0.0377
    685  P         -7.5260   19.1570   17.4490 P.3    35  DA35        0.2141
    686  OP1       -8.7320   19.8410   16.9500 O.3    35  DA35       -0.4373
    687  OP2       -6.6900   18.4020   16.4910 O.2    35  DA35       -0.5172
    688  O5'       -6.6250   20.2170   18.2090 O.3    35  DA35       -0.3114
    689  C5'       -7.0060   21.5310   18.3590 C.3    35  DA35        0.1811
    690  C4'       -5.7760   22.3420   18.1310 C.3    35  DA35        0.1746
    691  O4'       -4.6430   21.7210   18.7680 O.3    35  DA35       -0.3327
    692  C3'       -5.3290   22.3730   16.7020 C.3    35  DA35        0.1558
    693  O3'       -6.1920   23.1980   15.9290 O.3    35  DA35       -0.3138
    694  C2'       -3.9100   22.9030   16.8690 C.3    35  DA35        0.0865
    695  C1'       -3.4680   22.1190   18.0860 C.3    35  DA35        0.2094
    696  N9        -2.7660   20.9600   17.7750 N.ar   35  DA35       -0.2714
    697  C8        -3.4020   19.7980   17.4210 C.ar   35  DA35        0.1815
    698  N7        -2.5930   18.8690   16.9700 N.ar   35  DA35       -0.2193
    699  C5        -1.3410   19.4600   17.0310 C.ar   35  DA35        0.1518
    700  C6        -0.0580   18.9950   16.6940 C.ar   35  DA35        0.1919
    701  N6         0.1820   17.7750   16.2080 N.pl3  35  DA35       -0.1054
    702  N1         0.9810   19.8380   16.8750 N.ar   35  DA35       -0.2040
    703  C2         0.7400   21.0600   17.3620 C.ar   35  DA35        0.2016
    704  N3        -0.4200   21.6100   17.7170 N.ar   35  DA35       -0.2048
    705  C4        -1.4320   20.7480   17.5240 C.ar   35  DA35        0.1691
    706  P         -6.1040   23.0810   14.4810 P.3    36  DC36        0.2141
    707  OP1       -7.1120   24.1010   14.0790 O.3    36  DC36       -0.4373
    708  OP2       -6.2910   21.6680   14.0550 O.2    36  DC36       -0.5172
    709  O5'       -4.6510   23.5580   14.0090 O.3    36  DC36       -0.3114
    710  C5'       -4.3000   24.9420   13.9750 C.3    36  DC36        0.1811
    711  C4'       -2.8520   25.1240   13.5550 C.3    36  DC36        0.1746
    712  O4'       -1.9980   24.3560   14.4410 O.3    36  DC36       -0.3327
    713  C3'       -2.4430   24.6780   12.1540 C.3    36  DC36        0.1558
    714  O3'       -2.6520   25.6740   11.1530 O.3    36  DC36       -0.3138
    715  C2'       -0.9490   24.4400   12.3040 C.3    36  DC36        0.0866
    716  C1'       -0.8530   23.9100   13.7350 C.3    36  DC36        0.2106
    717  N1        -0.7750   22.4840   13.7660 N.ar   36  DC36       -0.2556
    718  C2         0.4710   21.8600   13.6390 C.ar   36  DC36        0.3531
    719  O2         1.4930   22.5670   13.6080 O.2    36  DC36       -0.2443
    720  N3         0.5270   20.5100   13.5530 N.ar   36  DC36       -0.1739
    721  C4        -0.5970   19.7920   13.5900 C.ar   36  DC36        0.1759
    722  N4        -0.4920   18.4640   13.5010 N.pl3  36  DC36       -0.1070
    723  C5        -1.8690   20.4050   13.7180 C.ar   36  DC36        0.0566
    724  C6        -1.9200   21.7390   13.8030 C.ar   36  DC36        0.0849
    725  P         -2.8170   25.2140    9.5520 P.3    37  DC37        0.2141
    726  OP1       -3.7390   25.7520    8.5180 O.2    37  DC37       -0.5172
    727  OP2       -2.3190   23.8250    9.4330 O.3    37  DC37       -0.4373
    728  O5'       -1.5440   26.1490    9.6980 O.3    37  DC37       -0.3114
    729  C5'       -0.6260   26.2000    8.6520 C.3    37  DC37        0.1811
    730  C4'        0.7790   26.0540    9.1560 C.3    37  DC37        0.1746
    731  O4'        0.9090   25.2240   10.3500 O.3    37  DC37       -0.3327
    732  C3'        1.6180   25.3170    8.1440 C.3    37  DC37        0.1558
    733  O3'        1.8380   26.0680    6.9780 O.3    37  DC37       -0.3138
    734  C2'        2.8200   24.8810    8.9650 C.3    37  DC37        0.0866
    735  C1'        2.1510   24.5120   10.2950 C.3    37  DC37        0.2106
    736  N1         1.8360   23.0500   10.2720 N.ar   37  DC37       -0.2556
    737  C2         2.8400   22.0810   10.3870 C.ar   37  DC37        0.3531
    738  O2         4.0270   22.4370   10.2960 O.2    37  DC37       -0.2443
    739  N3         2.4890   20.7890   10.5920 N.ar   37  DC37       -0.1739
    740  C4         1.2020   20.4530   10.6820 C.ar   37  DC37        0.1759
    741  N4         0.9040   19.1680   10.8850 N.pl3  37  DC37       -0.1070
    742  C5         0.1700   21.4200   10.5680 C.ar   37  DC37        0.0566
    743  C6         0.5200   22.6940   10.3660 C.ar   37  DC37        0.0849
    744  P          1.5930   25.3180    5.4970 P.3    38  DA38        0.2141
    745  OP1        0.9730   26.1280    4.4330 O.2    38  DA38       -0.5172
    746  OP2        0.8530   24.1060    5.9080 O.3    38  DA38       -0.4373
    747  O5'        3.0810   24.9580    5.0160 O.3    38  DA38       -0.3114
    748  C5'        4.0150   26.0250    4.8420 C.3    38  DA38        0.1811
    749  C4'        5.3790   25.7650    5.4700 C.3    38  DA38        0.1746
    750  O4'        5.3180   25.2950    6.8490 O.3    38  DA38       -0.3327
    751  C3'        6.1690   24.6780    4.7850 C.3    38  DA38        0.1558
    752  O3'        6.7240   25.1580    3.6320 O.3    38  DA38       -0.3138
    753  C2'        7.1780   24.2330    5.8240 C.3    38  DA38        0.0865
    754  C1'        6.2650   24.2500    7.0560 C.3    38  DA38        0.2094
    755  N9         5.8050   22.9160    7.0490 N.ar   38  DA38       -0.2714
    756  C8         4.4920   22.6480    6.7640 C.ar   38  DA38        0.1815
    757  N7         4.1240   21.4250    7.0650 N.ar   38  DA38       -0.2193
    758  C5         5.2750   20.8500    7.5820 C.ar   38  DA38        0.1518
    759  C6         5.5470   19.5660    8.0860 C.ar   38  DA38        0.1919
    760  N6         4.6380   18.5900    8.1520 N.pl3  38  DA38       -0.1054
    761  N1         6.8000   19.3170    8.5230 N.ar   38  DA38       -0.2040
    762  C2         7.7090   20.2960    8.4560 C.ar   38  DA38        0.2016
    763  N3         7.5740   21.5410    8.0060 N.ar   38  DA38       -0.2048
    764  C4         6.3180   21.7560    7.5780 C.ar   38  DA38        0.1691
    765  P          6.0370   24.3940    2.3590 P.3    39  DG39        0.2141
    766  OP1        6.0860   25.2560    1.1480 O.2    39  DG39       -0.5172
    767  OP2        4.7560   23.7410    2.7470 O.3    39  DG39       -0.4373
    768  O5'        7.1400   23.2490    2.2110 O.3    39  DG39       -0.3114
    769  C5'        8.5360   23.5800    2.1000 C.3    39  DG39        0.1811
    770  C4'        9.3920   22.5000    2.7270 C.3    39  DG39        0.1746
    771  O4'        8.8430   22.1530    4.0270 O.3    39  DG39       -0.3327
    772  C3'        9.4820   21.1520    2.0250 C.3    39  DG39        0.1558
    773  O3'       10.4190   21.1800    0.9490 O.3    39  DG39       -0.3138
    774  C2'        9.9820   20.2600    3.1560 C.3    39  DG39        0.0865
    775  C1'        9.2040   20.8190    4.3460 C.3    39  DG39        0.2094
    776  N9         8.0570   20.0530    4.6360 N.ar   39  DG39       -0.2713
    777  C8         6.7690   20.4070    4.3140 C.ar   39  DG39        0.1816
    778  N7         5.8810   19.5420    4.7200 N.ar   39  DG39       -0.2173
    779  C5         6.6220   18.5580    5.3490 C.ar   39  DG39        0.1748
    780  C6         6.2120   17.3600    5.9880 C.ar   39  DG39        0.3023
    781  O6         5.0640   16.9190    6.1260 O.2    39  DG39       -0.2633
    782  N1         7.2930   16.6440    6.4960 N.ar   39  DG39       -0.1709
    783  C2         8.6070   17.0360    6.4010 C.ar   39  DG39        0.2606
    784  N2         9.5090   16.2150    6.9530 N.pl3  39  DG39       -0.0859
    785  N3         9.0030   18.1460    5.8100 N.ar   39  DG39       -0.1918
    786  C4         7.9700   18.8560    5.3080 C.ar   39  DG39        0.1722
    787  P         10.4620   19.8930   -0.1910 P.3    40  DC40        0.2141
    788  OP1       11.4200   20.2990   -1.2460 O.2    40  DC40       -0.5172
    789  OP2        9.1150   19.3900   -0.5550 O.3    40  DC40       -0.4373
    790  O5'       11.1480   18.7920    0.7510 O.3    40  DC40       -0.3114
    791  C5'       11.8720   17.7120    0.1700 C.3    40  DC40        0.1811
    792  C4'       12.1200   16.5920    1.1620 C.3    40  DC40        0.1746
    793  O4'       11.3780   16.8330    2.3830 O.3    40  DC40       -0.3327
    794  C3'       11.6380   15.2290    0.6940 C.3    40  DC40        0.1558
    795  O3'       12.6210   14.5940   -0.1010 O.3    40  DC40       -0.3138
    796  C2'       11.3940   14.5080    2.0180 C.3    40  DC40        0.0866
    797  C1'       10.7630   15.6350    2.8300 C.3    40  DC40        0.2106
    798  N1         9.1770   15.5660    2.6470 N.ar   40  DC40       -0.2556
    799  C2         8.4610   14.5490    3.2900 C.ar   40  DC40        0.3531
    800  O2         9.0890   13.5980    3.7850 O.2    40  DC40       -0.2443
    801  N3         7.1110   14.6320    3.3540 N.ar   40  DC40       -0.1739
    802  C4         6.4790   15.6720    2.8080 C.ar   40  DC40        0.1759
    803  N4         5.1480   15.7100    2.8950 N.pl3  40  DC40       -0.1070
    804  C5         7.1860   16.7120    2.1520 C.ar   40  DC40        0.0566
    805  C6         8.5190   16.6270    2.0910 C.ar   40  DC40        0.0849
    806  P         12.2250   13.9210   -1.3270 P.3    41  DT41        0.2141
    807  OP1       13.3730   13.5800   -2.1930 O.2    41  DT41       -0.5172
    808  OP2       11.0850   14.6300   -1.9420 O.3    41  DT41       -0.4373
    809  O5'       11.6520   12.6110   -0.6090 O.3    41  DT41       -0.3114
    810  C5'       12.5590   11.7850    0.0800 C.3    41  DT41        0.1811
    811  C4'       11.8070   10.6680    0.7180 C.3    41  DT41        0.1746
    812  O4'       10.7810   11.2520    1.5380 O.3    41  DT41       -0.3327
    813  C3'       10.9820    9.8360   -0.2270 C.3    41  DT41        0.1558
    814  O3'       11.7870    8.9250   -0.8800 O.3    41  DT41       -0.3138
    815  C2'       10.1100    9.1340    0.7970 C.3    41  DT41        0.0866
    816  C1'        9.7610   10.2950    1.7130 C.3    41  DT41        0.2106
    817  N1         8.4690   10.8670    1.2210 N.ar   41  DT41       -0.2559
    818  C2         7.2350   10.2950    1.4650 C.ar   41  DT41        0.3545
    819  O2         7.1020    9.1840    1.9480 O.2    41  DT41       -0.2443
    820  N3         6.1560   11.0730    1.1220 N.ar   41  DT41       -0.1533
    821  C4         6.1860   12.3370    0.5710 C.ar   41  DT41        0.2804
    822  O4         5.1300   12.9110    0.3170 O.2    41  DT41       -0.2654
    823  C5         7.5030   12.8620    0.3470 C.ar   41  DT41        0.0534
    824  C6         8.5700   12.1270    0.6720 C.ar   41  DT41        0.0824
    825  C7         7.6410   14.2310   -0.2500 C.3    41  DT41        0.0377
    826  P         11.4610    8.6800   -2.1850 P.3    42  DT42        0.2141
    827  OP1       12.6710    7.9760   -2.6850 O.3    42  DT42       -0.4373
    828  OP2       10.8810    9.7900   -2.9810 O.2    42  DT42       -0.5172
    829  O5'       10.3210    7.6090   -1.8910 O.3    42  DT42       -0.3114
    830  C5'       10.6000    6.4560   -1.0910 C.3    42  DT42        0.1811
    831  C4'        9.4120    5.5210   -1.0680 C.3    42  DT42        0.1746
    832  O4'        8.3180    6.0810   -0.2940 O.3    42  DT42       -0.3327
    833  C3'        8.7610    5.1790   -2.3970 C.3    42  DT42        0.1558
    834  O3'        9.5130    4.2200   -3.1190 O.3    42  DT42       -0.3138
    835  C2'        7.4290    4.6140   -1.9360 C.3    42  DT42        0.0866
    836  C1'        7.0910    5.5600   -0.7820 C.3    42  DT42        0.2106
    837  N1         6.4400    7.0550   -1.1510 N.ar   42  DT42       -0.2559
    838  C2         5.1130    7.1940   -0.7900 C.ar   42  DT42        0.3545
    839  O2         4.4650    6.2960   -0.2850 O.2    42  DT42       -0.2443
    840  N3         4.5690    8.4300   -1.0440 N.ar   42  DT42       -0.1533
    841  C4         5.2040    9.5160   -1.6100 C.ar   42  DT42        0.2804
    842  O4         4.5820   10.5630   -1.7740 O.2    42  DT42       -0.2654
    843  C5         6.5790    9.2920   -1.9580 C.ar   42  DT42        0.0534
    844  C6         7.1330    8.1000   -1.7220 C.ar   42  DT42        0.0824
    845  C7         7.3570   10.4130   -2.5810 C.3    42  DT42        0.0377
    846  P          9.1050    3.9800   -4.6220 P.3    43  DA43        0.2141
    847  OP1        9.7120    3.9890   -5.9760 O.2    43  DA43       -0.5172
    848  OP2        7.6760    4.3570   -4.4560 O.3    43  DA43       -0.4373
    849  O5'        9.3280    2.5360   -3.9780 O.3    43  DA43       -0.3114
    850  C5'        8.7480    1.3670   -4.5570 C.3    43  DA43        0.1811
    851  C4'        8.1020    0.5190   -3.4860 C.3    43  DA43        0.1746
    852  O4'        7.2370    1.3600   -2.6810 O.3    43  DA43       -0.3327
    853  C3'        7.2110   -0.6030   -4.0010 C.3    43  DA43        0.1558
    854  O3'        7.9700   -1.7940   -4.2090 O.3    43  DA43       -0.3138
    855  C2'        6.1950   -0.7710   -2.8770 C.3    43  DA43        0.0865
    856  C1'        6.0350    0.6710   -2.3890 C.3    43  DA43        0.2094
    857  N9         4.8920    1.5160   -3.3370 N.ar   43  DA43       -0.2714
    858  C8         5.0890    2.4710   -4.3000 C.ar   43  DA43        0.1815
    859  N7         3.9800    3.0140   -4.7410 N.ar   43  DA43       -0.2193
    860  C5         2.9860    2.3720   -4.0190 C.ar   43  DA43        0.1518
    861  C6         1.5860    2.4970   -4.0190 C.ar   43  DA43        0.1919
    862  N6         0.9200    3.3490   -4.8020 N.pl3  43  DA43       -0.1054
    863  N1         0.8860    1.7070   -3.1770 N.ar   43  DA43       -0.2040
    864  C2         1.5550    0.8540   -2.3920 C.ar   43  DA43        0.2016
    865  N3         2.8660    0.6470   -2.3020 N.ar   43  DA43       -0.2048
    866  C4         3.5330    1.4460   -3.1510 C.ar   43  DA43        0.1691
    867  P          7.4020   -2.9230   -5.1770 P.3    44  DT44        0.2141
    868  OP1        8.2460   -4.1380   -5.0900 O.3    44  DT44       -0.4373
    869  OP2        7.3810   -2.1400   -6.4340 O.2    44  DT44       -0.5172
    870  O5'        5.8970   -3.3160   -4.7790 O.3    44  DT44       -0.3114
    871  C5'        5.6340   -4.4830   -4.0080 C.3    44  DT44        0.1811
    872  C4'        4.4800   -4.2650   -3.0460 C.3    44  DT44        0.1746
    873  O4'        4.3370   -2.8510   -2.7470 O.3    44  DT44       -0.3327
    874  C3'        3.1070   -4.6480   -3.5780 C.3    44  DT44        0.1558
    875  O3'        2.8840   -6.0550   -3.5230 O.3    44  DT44       -0.3138
    876  C2'        2.2220   -3.8590   -2.6210 C.3    44  DT44        0.0866
    877  C1'        2.9570   -2.5260   -2.6730 C.3    44  DT44        0.2106
    878  N1         2.3780   -1.7310   -3.8580 N.ar   44  DT44       -0.2559
    879  C2         1.0990   -1.2070   -3.8580 C.ar   44  DT44        0.3545
    880  O2         0.2320   -1.5700   -3.0840 O.2    44  DT44       -0.2443
    881  N3         0.8700   -0.2370   -4.8040 N.ar   44  DT44       -0.1533
    882  C4         1.7700    0.2500   -5.7280 C.ar   44  DT44        0.2804
    883  O4         1.4160    1.1250   -6.5150 O.2    44  DT44       -0.2654
    884  C5         3.0750   -0.3450   -5.6650 C.ar   44  DT44        0.0534
    885  C6         3.3260   -1.2900   -4.7550 C.ar   44  DT44        0.0824
    886  C7         4.1250    0.1180   -6.6310 C.3    44  DT44        0.0377
    887  P          2.3010   -6.8200   -4.8120 P.3    45  DT45        0.2141
    888  OP1        2.7200   -8.1900   -4.3960 O.3    45  DT45       -0.4373
    889  OP2        2.9310   -6.1540   -5.9820 O.2    45  DT45       -0.5172
    890  O5'        0.7160   -6.7470   -5.1370 O.3    45  DT45       -0.3114
    891  C5'       -0.1880   -7.3910   -4.2530 C.3    45  DT45        0.1811
    892  C4'       -1.4710   -6.6170   -4.0650 C.3    45  DT45        0.1746
    893  O4'       -1.2460   -5.1890   -3.8840 O.3    45  DT45       -0.3327
    894  C3'       -2.4050   -6.6320   -5.2450 C.3    45  DT45        0.1558
    895  O3'       -3.0380   -7.8590   -5.3680 O.3    45  DT45       -0.3138
    896  C2'       -3.3950   -5.5700   -4.8010 C.3    45  DT45        0.0866
    897  C1'       -2.4220   -4.5090   -4.2990 C.3    45  DT45        0.2106
    898  N1        -1.9950   -3.5370   -5.4610 N.ar   45  DT45       -0.2559
    899  C2        -2.9300   -2.6520   -5.9640 C.ar   45  DT45        0.3545
    900  O2        -4.1080   -2.6830   -5.6540 O.2    45  DT45       -0.2443
    901  N3        -2.4360   -1.7260   -6.8500 N.ar   45  DT45       -0.1533
    902  C4        -1.1300   -1.5970   -7.2740 C.ar   45  DT45        0.2804
    903  O4        -0.8370   -0.7120   -8.0740 O.2    45  DT45       -0.2654
    904  C5        -0.2200   -2.5520   -6.7070 C.ar   45  DT45        0.0534
    905  C6        -0.6740   -3.4650   -5.8440 C.ar   45  DT45        0.0824
    906  C7         1.2250   -2.4940   -7.1060 C.3    45  DT45        0.0377
    907  P         -3.4120   -8.3200   -6.7730 P.3    46  DC46        0.2141
    908  OP1       -4.0100   -9.6520   -6.5370 O.3    46  DC46       -0.4373
    909  OP2       -2.4120   -8.1620   -7.8520 O.2    46  DC46       -0.5172
    910  O5'       -4.5720   -7.2450   -7.0190 O.3    46  DC46       -0.3114
    911  C5'       -5.8340   -7.3620   -6.3660 C.3    46  DC46        0.1811
    912  C4'       -6.9120   -6.6060   -7.1180 C.3    46  DC46        0.1746
    913  O4'       -6.6840   -5.1800   -6.9800 O.3    46  DC46       -0.3327
    914  C3'       -6.9370   -6.8370   -8.6220 C.3    46  DC46        0.1558
    915  O3'       -7.6810   -7.9950   -8.9660 O.3    46  DC46       -0.3138
    916  C2'       -7.5880   -5.5510   -9.1160 C.3    46  DC46        0.0866
    917  C1'       -6.8880   -4.5300   -8.2230 C.3    46  DC46        0.2106
    918  N1        -5.5760   -4.0590   -8.7840 N.ar   46  DC46       -0.2556
    919  C2        -5.6220   -3.1150   -9.8160 C.ar   46  DC46        0.3531
    920  O2        -6.7270   -2.6750  -10.1760 O.2    46  DC46       -0.2443
    921  N3        -4.4640   -2.7110  -10.3920 N.ar   46  DC46       -0.1739
    922  C4        -3.3010   -3.2110   -9.9740 C.ar   46  DC46        0.1759
    923  N4        -2.1860   -2.7820  -10.5710 N.pl3  46  DC46       -0.1070
    924  C5        -3.2330   -4.1680   -8.9300 C.ar   46  DC46        0.0566
    925  C6        -4.3780   -4.5650   -8.3640 C.ar   46  DC46        0.0849
    926  P         -7.3080   -8.8290  -10.2740 P.3    47  DA47        0.2141
    927  OP1       -8.1170  -10.0170  -10.6290 O.2    47  DA47       -0.5172
    928  OP2       -5.8360   -8.8910  -10.4090 O.3    47  DA47       -0.4373
    929  O5'       -7.8250   -7.5650  -11.1130 O.3    47  DA47       -0.3114
    930  C5'       -9.2180   -7.3650  -11.3290 C.3    47  DA47        0.1811
    931  C4'       -9.4790   -6.2180  -12.2910 C.3    47  DA47        0.1746
    932  O4'       -8.6940   -5.0610  -11.9030 O.3    47  DA47       -0.3327
    933  C3'       -9.0700   -6.4630  -13.7350 C.3    47  DA47        0.1558
    934  O3'      -10.0540   -7.2120  -14.4330 O.3    47  DA47       -0.3138
    935  C2'       -8.9710   -5.0330  -14.2470 C.3    47  DA47        0.0865
    936  C1'       -8.2950   -4.3490  -13.0590 C.3    47  DA47        0.2094
    937  N9        -6.7980   -4.4110  -13.2370 N.ar   47  DA47       -0.2714
    938  C8        -5.9390   -5.1620  -12.4790 C.ar   47  DA47        0.1815
    939  N7        -4.6730   -4.8730  -12.6690 N.ar   47  DA47       -0.2193
    940  C5        -4.7030   -3.8630  -13.6170 C.ar   47  DA47        0.1518
    941  C6        -3.6840   -3.1230  -14.2440 C.ar   47  DA47        0.1919
    942  N6        -2.3850   -3.2970  -13.9950 N.pl3  47  DA47       -0.1054
    943  N1        -4.0530   -2.1880  -15.1450 N.ar   47  DA47       -0.2040
    944  C2        -5.3560   -2.0140  -15.3930 C.ar   47  DA47        0.2016
    945  N3        -6.4040   -2.6460  -14.8690 N.ar   47  DA47       -0.2048
    946  C4        -6.0040   -3.5680  -13.9780 C.ar   47  DA47        0.1691
    947  P         -9.5750   -8.3240  -15.3160 P.3    48  DA48        0.2141
    948  OP1      -10.7680   -8.8920  -16.0070 O.2    48  DA48       -0.5172
    949  OP2       -8.3670   -9.1750  -15.0970 O.3    48  DA48       -0.4373
    950  O5'       -9.1750   -7.0250  -16.1400 O.3    48  DA48       -0.3114
    951  C5'      -10.1520   -6.0130  -16.3000 C.3    48  DA48        0.1811
    952  C4'       -9.7590   -5.0540  -17.3730 C.3    48  DA48        0.1746
    953  O4'       -8.6190   -4.2910  -16.9400 O.3    48  DA48       -0.3327
    954  C3'       -9.4080   -5.6570  -18.7140 C.3    48  DA48        0.1558
    955  O3'       -9.9580   -4.7270  -19.6320 O.3    48  DA48       -0.3138
    956  C2'       -7.8850   -5.6850  -18.6770 C.3    48  DA48        0.0865
    957  C1'       -7.5780   -4.4300  -17.8740 C.3    48  DA48        0.2094
    958  N9        -6.5290   -4.2530  -17.2600 N.ar   48  DA48       -0.2714
    959  C8        -6.2920   -5.5160  -16.7850 C.ar   48  DA48        0.1815
    960  N7        -5.0180   -5.8030  -16.6600 N.ar   48  DA48       -0.2193
    961  C5        -4.3750   -4.6510  -17.0830 C.ar   48  DA48        0.1518
    962  C6        -3.0150   -4.3120  -17.1920 C.ar   48  DA48        0.1919
    963  N6        -2.0180   -5.1390  -16.8670 N.pl3  48  DA48       -0.1054
    964  N1        -2.7110   -3.0790  -17.6510 N.ar   48  DA48       -0.2040
    965  C2        -3.7100   -2.2510  -17.9750 C.ar   48  DA48        0.2016
    966  N3        -5.0240   -2.4540  -17.9160 N.ar   48  DA48       -0.2048
    967  C4        -5.2930   -3.6880  -17.4570 C.ar   48  DA48        0.1691
    968  P         -9.8990   -5.0510  -21.3460 P.3    49  DT49        0.2141
    969  OP1      -11.1420   -4.7950  -22.1100 O.2    49  DT49       -0.5172
    970  OP2       -9.3020   -6.4050  -21.3300 O.3    49  DT49       -0.4373
    971  O5'       -8.7340   -4.1210  -21.9250 O.3    49  DT49       -0.3114
    972  C5'       -9.0080   -2.7730  -22.2750 C.3    49  DT49        0.1811
    973  C4'       -7.7410   -1.9670  -22.4030 C.3    49  DT49        0.1746
    974  O4'       -6.9500   -2.1040  -21.1950 O.3    49  DT49       -0.3327
    975  C3'       -6.7800   -2.3880  -23.5020 C.3    49  DT49        0.1558
    976  O3'       -7.1560   -1.9260  -24.7870 O.3    49  DT49       -0.3138
    977  C2'       -5.4630   -1.8050  -23.0160 C.3    49  DT49        0.0866
    978  C1'       -5.5740   -2.0100  -21.5060 C.3    49  DT49        0.2106
    979  N1        -4.8260   -3.1920  -20.9150 N.ar   49  DT49       -0.2559
    980  C2        -3.4490   -3.1610  -20.7970 C.ar   49  DT49        0.3545
    981  O2        -2.7640   -2.2590  -21.2440 O.2    49  DT49       -0.2443
    982  N3        -2.8990   -4.2310  -20.1320 N.ar   49  DT49       -0.1533
    983  C4        -3.5720   -5.3040  -19.5870 C.ar   49  DT49        0.2804
    984  O4        -2.9390   -6.1900  -19.0170 O.2    49  DT49       -0.2654
    985  C5        -4.9980   -5.2640  -19.7520 C.ar   49  DT49        0.0534
    986  C6        -5.5590   -4.2350  -20.3940 C.ar   49  DT49        0.0824
    987  C7        -5.8200   -6.3880  -19.1940 C.3    49  DT49        0.0377
    988  P         -6.9210   -2.9220  -26.0870 P.3    50  DT50        0.2141
    989  OP1       -8.0190   -2.3450  -26.8860 O.2    50  DT50       -0.5172
    990  OP2       -6.9740   -4.3600  -25.7240 O.3    50  DT50       -0.4373
    991  O5'       -5.5750   -2.6550  -26.8870 O.3    50  DT50       -0.3114
    992  C5'       -5.0590   -1.3240  -26.9500 C.3    50  DT50        0.1811
    993  C4'       -3.6180   -1.2570  -26.4780 C.3    50  DT50        0.1746
    994  O4'       -3.4870   -1.2930  -25.0330 O.3    50  DT50       -0.3327
    995  C3'       -2.6770   -2.3550  -26.9170 C.3    50  DT50        0.1558
    996  O3'       -2.3340   -2.2120  -28.2770 O.3    50  DT50       -0.3138
    997  C2'       -1.4770   -2.0910  -26.0190 C.3    50  DT50        0.0866
    998  C1'       -2.1670   -1.7180  -24.7070 C.3    50  DT50        0.2106
    999  N1        -2.2110   -2.9330  -23.8890 N.ar   50  DT50       -0.2559
   1000  C2        -1.1540   -3.3010  -23.0770 C.ar   50  DT50        0.3545
   1001  O2        -0.1200   -2.6610  -23.0030 O.2    50  DT50       -0.2443
   1002  N3        -1.3520   -4.4510  -22.3510 N.ar   50  DT50       -0.1533
   1003  C4        -2.4740   -5.2520  -22.3560 C.ar   50  DT50        0.2804
   1004  O4        -2.5040   -6.2560  -21.6480 O.2    50  DT50       -0.2654
   1005  C5        -3.5270   -4.8040  -23.2250 C.ar   50  DT50        0.0534
   1006  C6        -3.3610   -3.6890  -23.9420 C.ar   50  DT50        0.0824
   1007  C7        -4.7900   -5.6090  -23.3010 C.3    50  DT50        0.0377
   1008  P         -1.8070   -3.5670  -29.1930 P.3    51  DA51        0.2141
   1009  OP1       -1.8130   -3.3710  -30.6600 O.2    51  DA51       -0.5172
   1010  OP2       -2.5310   -4.7120  -28.5970 O.3    51  DA51       -0.4373
   1011  O5'       -0.2900   -3.6290  -28.6820 O.3    51  DA51       -0.3114
   1012  C5'        0.6100   -2.5640  -28.9790 C.3    51  DA51        0.1811
   1013  C4'        1.9870   -2.8280  -28.3900 C.3    51  DA51        0.1746
   1014  O4'        1.9490   -2.6910  -26.9460 O.3    51  DA51       -0.3327
   1015  C3'        2.5350   -4.2300  -28.6170 C.3    51  DA51        0.1558
   1016  O3'        3.1180   -4.3380  -29.9140 O.3    51  DA51       -0.3138
   1017  C2'        3.5900   -4.2860  -27.5190 C.3    51  DA51        0.0865
   1018  C1'        2.8470   -3.6190  -26.3630 C.3    51  DA51        0.2094
   1019  N9         2.0370   -4.5210  -25.5650 N.ar   51  DA51       -0.2714
   1020  C8         0.7020   -4.7940  -25.7040 C.ar   51  DA51        0.1815
   1021  N7         0.2650   -5.7260  -24.8900 N.ar   51  DA51       -0.2193
   1022  C5         1.3910   -6.0900  -24.1690 C.ar   51  DA51        0.1518
   1023  C6         1.5950   -7.0320  -23.1450 C.ar   51  DA51        0.1919
   1024  N6         0.6270   -7.8090  -22.6520 N.pl3  51  DA51       -0.1054
   1025  N1         2.8410   -7.1490  -22.6400 N.ar   51  DA51       -0.2040
   1026  C2         3.8100   -6.3690  -23.1340 C.ar   51  DA51        0.2016
   1027  N3         3.7410   -5.4490  -24.0930 N.ar   51  DA51       -0.2048
   1028  C4         2.4900   -5.3580  -24.5740 C.ar   51  DA51        0.1691
   1029  P          2.4040   -5.5790  -31.2310 P.3    52  DC52        0.2141
   1030  OP1        2.4860   -5.6820  -32.7090 O.2    52  DC52       -0.5172
   1031  OP2        1.1600   -5.9210  -30.5040 O.3    52  DC52       -0.4373
   1032  O5'        3.5030   -6.5220  -30.5610 O.3    52  DC52       -0.3114
   1033  C5'        4.8590   -6.2180  -30.8330 C.3    52  DC52        0.1811
   1034  C4'        5.7600   -7.1460  -30.0750 C.3    52  DC52        0.1746
   1035  O4'        5.7280   -6.8000  -28.6690 O.3    52  DC52       -0.3327
   1036  C3'        5.3370   -8.6020  -30.1170 C.3    52  DC52        0.1558
   1037  O3'        5.7940   -9.2570  -31.2810 O.3    52  DC52       -0.3138
   1038  C2'        5.9590   -9.1580  -28.8530 C.3    52  DC52        0.0866
   1039  C1'        5.7930   -7.9770  -27.8990 C.3    52  DC52        0.2106
   1040  N1         4.5760   -7.9880  -27.0270 N.ar   52  DC52       -0.2556
   1041  C2         4.5520   -8.8150  -25.8980 C.ar   52  DC52        0.3531
   1042  O2         5.6140   -9.3370  -25.5170 O.2    52  DC52       -0.2443
   1043  N3         3.3780   -9.0220  -25.2560 N.ar   52  DC52       -0.1739
   1044  C4         2.2630   -8.4410  -25.7020 C.ar   52  DC52        0.1759
   1045  N4         1.1290   -8.6740  -25.0370 N.pl3  52  DC52       -0.1070
   1046  C5         2.2660   -7.6000  -26.8440 C.ar   52  DC52        0.0566
   1047  C6         3.4280   -7.3980  -27.4750 C.ar   52  DC52        0.0849
   1048  P          5.1200  -10.7380  -31.8040 P.3    53  DG53        0.2141
   1049  OP1        5.4390  -11.1110  -33.2000 O.2    53  DG53       -0.5172
   1050  OP2        3.7290  -10.4130  -31.4070 O.3    53  DG53       -0.4373
   1051  O5'        5.5290  -11.9560  -30.8510 O.3    53  DG53       -0.3114
   1052  C5'        6.6920  -12.7260  -31.1200 C.3    53  DG53        0.1811
   1053  C4'        7.1630  -13.4370  -29.8790 C.3    53  DG53        0.1746
   1054  O4'        6.9060  -12.5850  -28.7360 O.3    53  DG53       -0.3327
   1055  C3'        6.4540  -14.7390  -29.5410 C.3    53  DG53        0.1558
   1056  O3'        6.9850  -15.8580  -30.2290 O.3    53  DG53       -0.3138
   1057  C2'        6.6130  -14.8320  -28.0280 C.3    53  DG53        0.0865
   1058  C1'        6.5220  -13.3620  -27.6250 C.3    53  DG53        0.2094
   1059  N9         5.2030  -12.9990  -27.2220 N.ar   53  DG53       -0.2713
   1060  C8         4.2840  -12.2500  -27.9170 C.ar   53  DG53        0.1816
   1061  N7         3.1400  -12.1370  -27.3000 N.ar   53  DG53       -0.2173
   1062  C5         3.3100  -12.8500  -26.1270 C.ar   53  DG53        0.1748
   1063  C6         2.4140  -13.0890  -25.0540 C.ar   53  DG53        0.3023
   1064  O6         1.2470  -12.6970  -24.9280 O.2    53  DG53       -0.2633
   1065  N1         2.9930  -13.8690  -24.0570 N.ar   53  DG53       -0.1709
   1066  C2         4.2760  -14.3580  -24.0890 C.ar   53  DG53        0.2606
   1067  N2         4.6570  -15.0910  -23.0340 N.pl3  53  DG53       -0.0859
   1068  N3         5.1200  -14.1450  -25.0800 N.ar   53  DG53       -0.1918
   1069  C4         4.5790  -13.3910  -26.0600 C.ar   53  DG53        0.1722
   1070  P          6.0640  -17.2060  -30.4670 P.3    54  DT54        0.2141
   1071  OP1        6.7860  -18.1800  -31.3200 O.2    54  DT54       -0.5172
   1072  OP2        4.7190  -16.7230  -30.8560 O.3    54  DT54       -0.4373
   1073  O5'        5.8450  -17.8000  -28.9950 O.3    54  DT54       -0.3114
   1074  C5'        6.9210  -18.2710  -28.1950 C.3    54  DT54        0.1811
   1075  C4'        6.4730  -18.5410  -26.7800 C.3    54  DT54        0.1746
   1076  O4'        5.8710  -17.3390  -26.2400 O.3    54  DT54       -0.3327
   1077  C3'        5.4060  -19.6180  -26.5980 C.3    54  DT54        0.1558
   1078  O3'        5.9490  -20.9210  -26.4980 O.3    54  DT54       -0.3138
   1079  C2'        4.7000  -19.2030  -25.3180 C.3    54  DT54        0.0866
   1080  C1'        4.8140  -17.6780  -25.3690 C.3    54  DT54        0.2106
   1081  N1         3.5890  -17.1890  -25.8100 N.ar   54  DT54       -0.2559
   1082  C2         2.4670  -17.1730  -25.0040 C.ar   54  DT54        0.3545
   1083  O2         2.4560  -17.6220  -23.8710 O.2    54  DT54       -0.2443
   1084  N3         1.3500  -16.6110  -25.5740 N.ar   54  DT54       -0.1533
   1085  C4         1.2460  -16.0760  -26.8410 C.ar   54  DT54        0.2804
   1086  O4         0.1730  -15.6050  -27.2120 O.2    54  DT54       -0.2654
   1087  C5         2.4530  -16.1310  -27.6160 C.ar   54  DT54        0.0534
   1088  C6         3.5530  -16.6720  -27.0860 C.ar   54  DT54        0.0824
   1089  C7         2.4410  -15.5740  -29.0090 C.3    54  DT54        0.0377
   1090  P          5.3930  -22.0410  -27.6430 P.3    55  DC55        0.2141
   1091  OP1        6.1960  -23.0950  -28.3120 O.3    55  DC55       -0.4373
   1092  OP2        4.4920  -21.1680  -28.4660 O.2    55  DC55       -0.5172
   1093  O5'        4.5330  -22.7250  -26.4880 O.3    55  DC55       -0.3114
   1094  C5'        5.1790  -23.2860  -25.3520 C.3    55  DC55        0.1811
   1095  C4'        4.3420  -23.1150  -24.1080 C.3    55  DC55        0.1746
   1096  O4'        4.1980  -21.7150  -23.7610 O.3    55  DC55       -0.3327
   1097  C3'        2.9170  -23.6310  -24.1350 C.3    55  DC55        0.1558
   1098  O3'        2.8560  -25.0260  -23.9330 O.3    55  DC55       -0.3138
   1099  C2'        2.3010  -22.8910  -22.9600 C.3    55  DC55        0.0866
   1100  C1'        2.9770  -21.5270  -23.0660 C.3    55  DC55        0.2106
   1101  N1         2.1000  -20.5970  -23.7730 N.ar   55  DC55       -0.2556
   1102  C2         0.9830  -20.0610  -23.1230 C.ar   55  DC55        0.3531
   1103  O2         0.7710  -20.3760  -21.9400 O.2    55  DC55       -0.2443
   1104  N3         0.1690  -19.2160  -23.8000 N.ar   55  DC55       -0.1739
   1105  C4         0.4360  -18.9070  -25.0700 C.ar   55  DC55        0.1759
   1106  N4        -0.3960  -18.0700  -25.6960 N.pl3  55  DC55       -0.1070
   1107  C5         1.5620  -19.4400  -25.7460 C.ar   55  DC55        0.0566
   1108  C6         2.3640  -20.2730  -25.0740 C.ar   55  DC55        0.0849
   1109  P          1.6650  -25.8790  -24.5620 P.3    56  DT56        0.2141
   1110  OP1        1.9380  -27.2430  -24.0240 O.3    56  DT56       -0.4373
   1111  OP2        1.3960  -25.6580  -26.0130 O.2    56  DT56       -0.5172
   1112  O5'        0.5050  -25.1970  -23.6620 O.3    56  DT56       -0.3114
   1113  C5'        0.1460  -25.7250  -22.3560 C.3    56  DT56        0.1811
   1114  C4'       -1.0880  -25.0890  -21.7170 C.3    56  DT56        0.1746
   1115  O4'       -0.9850  -23.6490  -21.6960 O.3    56  DT56       -0.3327
   1116  C3'       -2.4160  -25.2880  -22.4310 C.3    56  DT56        0.1558
   1117  O3'       -2.9860  -26.5650  -22.1790 O.3    56  DT56       -0.3138
   1118  C2'       -3.2510  -24.1720  -21.8230 C.3    56  DT56        0.0866
   1119  C1'       -2.2480  -23.0500  -21.9350 C.3    56  DT56        0.2106
   1120  N1        -2.1830  -22.2530  -23.1380 N.ar   56  DT56       -0.2559
   1121  C2        -2.9530  -21.1060  -23.1670 C.ar   56  DT56        0.3545
   1122  O2        -3.7210  -20.7990  -22.2720 O.2    56  DT56       -0.2443
   1123  N3        -2.7920  -20.3250  -24.2860 N.ar   56  DT56       -0.1533
   1124  C4        -1.9570  -20.5710  -25.3560 C.ar   56  DT56        0.2804
   1125  O4        -1.9210  -19.7750  -26.2910 O.2    56  DT56       -0.2654
   1126  C5        -1.1920  -21.7820  -25.2520 C.ar   56  DT56        0.0534
   1127  C6        -1.3290  -22.5590  -24.1750 C.ar   56  DT56        0.0824
   1128  C7        -0.2540  -22.1390  -26.3670 C.3    56  DT56        0.0377
   1129  P         -3.5690  -27.2480  -23.4000 P.3    57  DG57        0.2141
   1130  OP1       -3.7320  -28.5270  -22.6670 O.3    57  DG57       -0.4373
   1131  OP2       -2.9980  -27.2450  -24.7720 O.2    57  DG57       -0.5172
   1132  O5'       -4.9880  -26.5460  -23.4500 O.3    57  DG57       -0.3114
   1133  C5'       -5.7230  -26.3660  -22.2410 C.3    57  DG57        0.1811
   1134  C4'       -6.5930  -25.1450  -22.3350 C.3    57  DG57        0.1746
   1135  O4'       -5.7830  -23.9710  -22.5770 O.3    57  DG57       -0.3327
   1136  C3'       -7.5330  -25.0870  -23.5190 C.3    57  DG57        0.1558
   1137  O3'       -8.6400  -25.9480  -23.3240 O.3    57  DG57       -0.3138
   1138  C2'       -7.9430  -23.6230  -23.4770 C.3    57  DG57        0.0865
   1139  C1'       -6.6180  -22.9560  -23.0950 C.3    57  DG57        0.2094
   1140  N9        -6.0030  -22.4410  -24.2970 N.ar   57  DG57       -0.2713
   1141  C8        -4.8480  -22.9370  -24.8530 C.ar   57  DG57        0.1816
   1142  N7        -4.4650  -22.2820  -25.9150 N.ar   57  DG57       -0.2173
   1143  C5        -5.4190  -21.2950  -26.0720 C.ar   57  DG57        0.1748
   1144  C6        -5.5410  -20.2760  -27.0520 C.ar   57  DG57        0.3023
   1145  O6        -4.7940  -20.0410  -28.0090 O.2    57  DG57       -0.2633
   1146  N1        -6.6650  -19.4830  -26.8410 N.ar   57  DG57       -0.1709
   1147  C2        -7.5630  -19.6500  -25.8140 C.ar   57  DG57        0.2606
   1148  N2        -8.5850  -18.7850  -25.7750 N.pl3  57  DG57       -0.0859
   1149  N3        -7.4630  -20.5930  -24.8970 N.ar   57  DG57       -0.1918
   1150  C4        -6.3790  -21.3760  -25.0820 C.ar   57  DG57        0.1722
   1151  P         -9.6890  -26.0070  -24.3750 P.3    58  DC58        0.2141
   1152  OP1      -10.6740  -27.0890  -24.1490 O.3    58  DC58       -0.4373
   1153  OP2       -8.4180  -26.3130  -25.0850 O.2    58  DC58       -0.5172
   1154  O5'      -10.4090  -24.8120  -25.1300 O.3    58  DC58       -0.3114
   1155  C5'      -11.2880  -23.9820  -24.4000 C.3    58  DC58        0.1811
   1156  C4'      -11.8900  -22.9190  -25.2710 C.3    58  DC58        0.1746
   1157  O4'      -10.9350  -21.8230  -25.3470 O.3    58  DC58       -0.3327
   1158  C3'      -12.1220  -23.3820  -26.7000 C.3    58  DC58        0.1558
   1159  O3'      -13.3240  -23.9890  -27.1130 O.3    58  DC58       -0.3138
   1160  C2'      -11.4630  -22.3810  -27.6320 C.3    58  DC58        0.0866
   1161  C1'      -10.6870  -21.4720  -26.6930 C.3    58  DC58        0.2106
   1162  N1        -9.3460  -21.5720  -27.1860 N.ar   58  DC58       -0.2556
   1163  C2        -8.9020  -20.6420  -28.1330 C.ar   58  DC58        0.3531
   1164  O2        -9.5930  -19.6320  -28.3490 O.2    58  DC58       -0.2443
   1165  N3        -7.7360  -20.8690  -28.7840 N.ar   58  DC58       -0.1739
   1166  C4        -7.0280  -21.9680  -28.5200 C.ar   58  DC58        0.1759
   1167  N4        -5.8850  -22.1490  -29.1870 N.pl3  58  DC58       -0.1070
   1168  C5        -7.4610  -22.9230  -27.5640 C.ar   58  DC58        0.0566
   1169  C6        -8.6120  -22.6940  -26.9240 C.ar   58  DC58        0.0849
   1170  P        -13.3140  -24.8850  -28.4670 P.3    59  DA59        0.2141
   1171  OP1      -14.6730  -25.4540  -28.3180 O.3    59  DA59       -0.4373
   1172  OP2      -12.1420  -25.7820  -28.5780 O.2    59  DA59       -0.5172
   1173  O5'      -13.3530  -23.8990  -29.7270 O.3    59  DA59       -0.3114
   1174  C5'      -14.5610  -23.1930  -29.9760 C.3    59  DA59        0.1811
   1175  C4'      -14.3720  -22.0170  -30.9160 C.3    59  DA59        0.1746
   1176  O4'      -13.2220  -21.2440  -30.4890 O.3    59  DA59       -0.3327
   1177  C3'      -14.1230  -22.3610  -32.3800 C.3    59  DA59        0.1558
   1178  O3'      -15.3650  -22.4380  -33.0690 O.3    59  DA59       -0.3138
   1179  C2'      -13.3250  -21.1490  -32.8460 C.3    59  DA59        0.0865
   1180  C1'      -12.4960  -20.7950  -31.6170 C.3    59  DA59        0.2094
   1181  N9       -11.2540  -21.4330  -31.5640 N.ar   59  DA59       -0.2714
   1182  C8       -10.8710  -22.4620  -30.7430 C.ar   59  DA59        0.1815
   1183  N7        -9.6250  -22.8360  -30.9110 N.ar   59  DA59       -0.2193
   1184  C5        -9.1580  -21.9970  -31.9100 C.ar   59  DA59        0.1518
   1185  C6        -7.9070  -21.8850  -32.5430 C.ar   59  DA59        0.1919
   1186  N6        -6.8580  -22.6550  -32.2480 N.pl3  59  DA59       -0.1054
   1187  N1        -7.7720  -20.9440  -33.5010 N.ar   59  DA59       -0.2040
   1188  C2        -8.8250  -20.1720  -33.7960 C.ar   59  DA59        0.2016
   1189  N3       -10.0480  -20.1810  -33.2700 N.ar   59  DA59       -0.2048
   1190  C4       -10.1500  -21.1280  -32.3230 C.ar   59  DA59        0.1691
   1191  P        -15.5810  -23.3380  -34.8300 P.3    60  DC60        0.2141
   1192  OP1      -16.8880  -23.5690  -35.5000 O.2    60  DC60       -0.5172
   1193  OP2      -14.9680  -24.4100  -33.9980 O.3    60  DC60       -0.4373
   1194  O5'      -14.4470  -22.8940  -35.8780 O.3    60  DC60       -0.3114
   1195  C5'      -14.3020  -21.5370  -36.3070 C.3    60  DC60        0.1812
   1196  C4'      -12.8760  -21.2500  -36.7390 C.3    60  DC60        0.1775
   1197  O4'      -11.9890  -21.2180  -35.5960 O.3    60  DC60       -0.3326
   1198  C3'      -12.2150  -22.3150  -37.5960 C.3    60  DC60        0.1864
   1199  O3'      -12.7170  -22.3170  -38.9100 O.3    60  DC60       -0.2133
   1200  C2'      -10.7510  -21.9060  -37.5150 C.3    60  DC60        0.0895
   1201  C1'      -10.6750  -21.5610  -36.0270 C.3    60  DC60        0.2107
   1202  N1       -10.2460  -22.7240  -35.2350 N.ar   60  DC60       -0.2556
   1203  C2        -8.9040  -23.1230  -35.2350 C.ar   60  DC60        0.3531
   1204  O2        -8.0880  -22.4720  -35.9100 O.2    60  DC60       -0.2443
   1205  N3        -8.5370  -24.2020  -34.5040 N.ar   60  DC60       -0.1739
   1206  C4        -9.4480  -24.8710  -33.7960 C.ar   60  DC60        0.1759
   1207  N4        -9.0390  -25.9280  -33.0910 N.pl3  60  DC60       -0.1070
   1208  C5       -10.8120  -24.4830  -33.7830 C.ar   60  DC60        0.0566
   1209  C6       -11.1710  -23.4170  -34.5060 C.ar   60  DC60        0.0849
   1210  P        -12.8400  -23.7190  -39.3680 P.3    61  DA61        0.3939
   1211  OP1      -12.8830  -22.5640  -40.3080 O.3    61  DA61       -0.1496
   1212  OP2      -14.0660  -24.2740  -38.7660 O.3    61  DA61       -0.1425
   1213  O5'      -12.0910  -24.9230  -40.1440 O.3    61  DA61       -0.2926
   1214  C5'      -10.9170  -24.7410  -40.9250 C.3    61  DA61        0.1827
   1215  C4'       -9.6920  -24.7590  -40.0270 C.3    61  DA61        0.1726
   1216  O4'       -9.1950  -26.1070  -39.7850 O.3    61  DA61       -0.3511
   1217  C3'       -8.4920  -23.9800  -40.5250 C.3    61  DA61        0.1538
   1218  O3'       -8.6820  -22.6310  -40.1240 O.3    61  DA61       -0.3139
   1219  C2'       -7.3950  -24.6640  -39.7100 C.3    61  DA61        0.0646
   1220  C1'       -7.7850  -26.1210  -39.8090 C.3    61  DA61        0.1449
   1221  N9        -8.7110  -27.7550  -38.4230 N.ar   61  DA61       -0.2032
   1222  C8        -9.7210  -28.6540  -38.6440 C.ar   61  DA61        0.2005
   1223  N7        -9.6340  -29.7380  -37.9090 N.ar   61  DA61       -0.2179
   1224  C5        -8.4890  -29.5370  -37.1560 C.ar   61  DA61        0.1534
   1225  C6        -7.8480  -30.3220  -36.1810 C.ar   61  DA61        0.1919
   1226  N6        -8.2930  -31.5160  -35.7840 N.pl3  61  DA61       -0.1054
   1227  N1        -6.7210  -29.8310  -35.6230 N.ar   61  DA61       -0.2040
   1228  C2        -6.2760  -28.6330  -36.0210 C.ar   61  DA61        0.2016
   1229  N3        -6.7910  -27.8030  -36.9250 N.ar   61  DA61       -0.2031
   1230  C4        -7.9090  -28.3210  -37.4620 C.ar   61  DA61        0.1862
   1231  P         -8.3860  -21.3580  -40.9250 P.3    62  DT62        0.2141
   1232  OP1       -8.8180  -20.1820  -40.1280 O.3    62  DT62       -0.4373
   1233  OP2       -8.6520  -21.3890  -42.3880 O.2    62  DT62       -0.5172
   1234  O5'       -6.8200  -21.5490  -40.6980 O.3    62  DT62       -0.3114
   1235  C5'       -6.2580  -21.6190  -39.3700 C.3    62  DT62        0.1812
   1236  C4'       -5.0120  -20.7640  -39.2820 C.3    62  DT62        0.1775
   1237  O4'       -4.0440  -21.2140  -40.2640 O.3    62  DT62       -0.3326
   1238  C3'       -5.1970  -19.2850  -39.5840 C.3    62  DT62        0.1864
   1239  O3'       -5.6130  -18.6090  -38.4070 O.3    62  DT62       -0.2133
   1240  C2'       -3.7990  -18.8550  -40.0270 C.3    62  DT62        0.0895
   1241  C1'       -3.3220  -20.1060  -40.7670 C.3    62  DT62        0.2107
   1242  N1        -3.2230  -19.9710  -42.0560 N.ar   62  DT62       -0.2559
   1243  C2        -2.0660  -19.5100  -42.6550 C.ar   62  DT62        0.3545
   1244  O2        -0.9960  -19.4520  -42.0760 O.2    62  DT62       -0.2443
   1245  N3        -2.2070  -19.1160  -43.9640 N.ar   62  DT62       -0.1533
   1246  C4        -3.3630  -19.1360  -44.7160 C.ar   62  DT62        0.2804
   1247  O4        -3.3330  -18.7490  -45.8820 O.2    62  DT62       -0.2654
   1248  C5        -4.5210  -19.6260  -44.0230 C.ar   62  DT62        0.0534
   1249  C6        -4.4120  -20.0170  -42.7500 C.ar   62  DT62        0.0824
   1250  C7        -5.8280  -19.6860  -44.7560 C.3    62  DT62        0.0377
   1251  P         -5.9330  -17.0180  -38.3530 P.3    63  DA63        0.3939
   1252  OP1       -5.6270  -16.0670  -39.4450 O.3    63  DA63       -0.1425
   1253  OP2       -4.8640  -17.5290  -37.4570 O.3    63  DA63       -0.1496
   1254  O5'       -7.0590  -16.3770  -37.4150 O.3    63  DA63       -0.2926
   1255  C5'       -8.3650  -16.0890  -37.8940 C.3    63  DA63        0.1828
   1256  C4'       -9.2670  -15.7830  -36.7130 C.3    63  DA63        0.1747
   1257  O4'       -9.5250  -16.9870  -35.9360 O.3    63  DA63       -0.3327
   1258  C3'       -8.6860  -14.8070  -35.6960 C.3    63  DA63        0.1558
   1259  O3'       -8.8020  -13.4730  -36.1870 O.3    63  DA63       -0.3138
   1260  C2'       -9.6060  -15.1060  -34.5160 C.3    63  DA63        0.0865
   1261  C1'       -9.6800  -16.6430  -34.5700 C.3    63  DA63        0.2094
   1262  N9        -8.6540  -17.3130  -33.8130 N.ar   63  DA63       -0.2714
   1263  C8        -7.3750  -17.6210  -34.2000 C.ar   63  DA63        0.1815
   1264  N7        -6.6620  -18.1930  -33.2590 N.ar   63  DA63       -0.2193
   1265  C5        -7.5300  -18.2660  -32.1820 C.ar   63  DA63        0.1518
   1266  C6        -7.3790  -18.7700  -30.8780 C.ar   63  DA63        0.1919
   1267  N6        -6.2510  -19.3190  -30.4230 N.pl3  63  DA63       -0.1054
   1268  N1        -8.4410  -18.6880  -30.0480 N.ar   63  DA63       -0.2040
   1269  C2        -9.5720  -18.1380  -30.5050 C.ar   63  DA63        0.2016
   1270  N3        -9.8350  -17.6310  -31.7070 N.ar   63  DA63       -0.2048
   1271  C4        -8.7600  -17.7270  -32.5070 C.ar   63  DA63        0.1691
   1272  P         -8.3280  -12.1250  -35.3730 P.3    64  DC64        0.2141
   1273  OP1       -8.7850  -10.7780  -35.8350 O.2    64  DC64       -0.5172
   1274  OP2       -6.8600  -12.4310  -35.4200 O.3    64  DC64       -0.4373
   1275  O5'       -8.7560  -12.3180  -33.8700 O.3    64  DC64       -0.3114
   1276  C5'      -10.0980  -11.9620  -33.4950 C.3    64  DC64        0.1811
   1277  C4'      -10.3060  -12.4410  -32.0980 C.3    64  DC64        0.1746
   1278  O4'      -10.1740  -13.9050  -32.0490 O.3    64  DC64       -0.3327
   1279  C3'       -9.4090  -11.9720  -30.9940 C.3    64  DC64        0.1558
   1280  O3'       -9.7410  -10.6310  -30.6490 O.3    64  DC64       -0.3138
   1281  C2'       -9.7690  -12.9800  -29.9000 C.3    64  DC64        0.0866
   1282  C1'       -9.7880  -14.2610  -30.7440 C.3    64  DC64        0.2106
   1283  N1        -8.3580  -14.8040  -30.6760 N.ar   64  DC64       -0.2556
   1284  C2        -7.9960  -15.6570  -29.6270 C.ar   64  DC64        0.3531
   1285  O2        -8.8230  -15.8830  -28.7270 O.2    64  DC64       -0.2443
   1286  N3        -6.7590  -16.2080  -29.6220 N.ar   64  DC64       -0.1739
   1287  C4        -5.9040  -15.9360  -30.6080 C.ar   64  DC64        0.1759
   1288  N4        -4.6950  -16.5020  -30.5610 N.pl3  64  DC64       -0.1070
   1289  C5        -6.2510  -15.0750  -31.6800 C.ar   64  DC64        0.0566
   1290  C6        -7.4740  -14.5330  -31.6810 C.ar   64  DC64        0.0849
   1291  P         -8.6060   -9.7910  -29.7360 P.3    65  DC65        0.2141
   1292  OP1       -8.4940   -8.3450  -29.3950 O.3    65  DC65       -0.4373
   1293  OP2       -7.5430  -10.4420  -30.5560 O.2    65  DC65       -0.5172
   1294  O5'       -8.7790  -10.6030  -28.3700 O.3    65  DC65       -0.3114
   1295  C5'       -9.8980  -10.3450  -27.4890 C.3    65  DC65        0.1811
   1296  C4'      -10.3190  -11.6110  -26.7530 C.3    65  DC65        0.1746
   1297  O4'      -10.1510  -12.7670  -27.6220 O.3    65  DC65       -0.3327
   1298  C3'       -9.5630  -12.0050  -25.4900 C.3    65  DC65        0.1558
   1299  O3'      -10.0220  -11.3350  -24.3280 O.3    65  DC65       -0.3138
   1300  C2'       -9.8760  -13.4880  -25.3810 C.3    65  DC65        0.0866
   1301  C1'       -9.8580  -13.9160  -26.8450 C.3    65  DC65        0.2106
   1302  N1        -8.5570  -14.4500  -27.1530 N.ar   65  DC65       -0.2556
   1303  C2        -8.2480  -15.7620  -26.7740 C.ar   65  DC65        0.3531
   1304  O2        -9.0700  -16.3960  -26.0910 O.2    65  DC65       -0.2443
   1305  N3        -7.0660  -16.2990  -27.1600 N.ar   65  DC65       -0.1739
   1306  C4        -6.2140  -15.5800  -27.8910 C.ar   65  DC65        0.1759
   1307  N4        -5.0610  -16.1500  -28.2480 N.pl3  65  DC65       -0.1070
   1308  C5        -6.5080  -14.2490  -28.2860 C.ar   65  DC65        0.0566
   1309  C6        -7.6770  -13.7230  -27.9020 C.ar   65  DC65        0.0849
   1310  P         -9.2370  -11.3360  -23.1230 P.3    66  DA66        0.2141
   1311  OP1       -9.0810   -9.9760  -22.5520 O.3    66  DA66       -0.4373
   1312  OP2       -8.0450  -12.1330  -23.5130 O.2    66  DA66       -0.5172
   1313  O5'      -10.1170  -12.2140  -22.1460 O.3    66  DA66       -0.3114
   1314  C5'      -10.6130  -13.4500  -22.5960 C.3    66  DA66        0.1811
   1315  C4'      -10.1830  -14.5270  -21.6600 C.3    66  DA66        0.1746
   1316  O4'       -9.9650  -15.7310  -22.4420 O.3    66  DA66       -0.3327
   1317  C3'       -8.8430  -14.2600  -21.0100 C.3    66  DA66        0.1558
   1318  O3'       -9.0230  -13.4570  -19.8520 O.3    66  DA66       -0.3138
   1319  C2'       -8.3660  -15.6730  -20.7120 C.3    66  DA66        0.0865
   1320  C1'       -8.7930  -16.3880  -21.9960 C.3    66  DA66        0.2094
   1321  N9        -7.7890  -16.2240  -23.2680 N.ar   66  DA66       -0.2714
   1322  C8        -7.4520  -15.1270  -24.0170 C.ar   66  DA66        0.1815
   1323  N7        -6.3530  -15.2820  -24.7170 N.ar   66  DA66       -0.2193
   1324  C5        -5.9400  -16.5680  -24.4060 C.ar   66  DA66        0.1518
   1325  C6        -4.8380  -17.3340  -24.8230 C.ar   66  DA66        0.1919
   1326  N6        -3.9130  -16.8950  -25.6800 N.pl3  66  DA66       -0.1054
   1327  N1        -4.7170  -18.5830  -24.3220 N.ar   66  DA66       -0.2040
   1328  C2        -5.6450  -19.0220  -23.4640 C.ar   66  DA66        0.2016
   1329  N3        -6.7240  -18.3970  -22.9990 N.ar   66  DA66       -0.2048
   1330  C4        -6.8140  -17.1600  -23.5140 C.ar   66  DA66        0.1691
   1331  P         -7.7900  -12.7350  -19.2290 P.3    67  DG67        0.2141
   1332  OP1       -8.4110  -12.1370  -18.0240 O.3    67  DG67       -0.4373
   1333  OP2       -7.1180  -11.8710  -20.2270 O.2    67  DG67       -0.5172
   1334  O5'       -6.6680  -13.7970  -18.7950 O.3    67  DG67       -0.3114
   1335  C5'       -6.8600  -14.5790  -17.6240 C.3    67  DG67        0.1811
   1336  C4'       -6.1040  -15.8830  -17.6750 C.3    67  DG67        0.1746
   1337  O4'       -6.1520  -16.4190  -19.0200 O.3    67  DG67       -0.3327
   1338  C3'       -4.6150  -15.8260  -17.3690 C.3    67  DG67        0.1558
   1339  O3'       -4.3190  -15.7680  -15.9850 O.3    67  DG67       -0.3138
   1340  C2'       -4.0980  -17.0850  -18.0470 C.3    67  DG67        0.0865
   1341  C1'       -4.9510  -17.0950  -19.3100 C.3    67  DG67        0.2094
   1342  N9        -4.2330  -16.4020  -20.4110 N.ar   67  DG67       -0.2713
   1343  C8        -4.6600  -15.2400  -21.0060 C.ar   67  DG67        0.1816
   1344  N7        -3.9620  -14.9130  -22.0590 N.ar   67  DG67       -0.2173
   1345  C5        -3.0190  -15.9170  -22.1710 C.ar   67  DG67        0.1748
   1346  C6        -1.9810  -16.1080  -23.1200 C.ar   67  DG67        0.3023
   1347  O6        -1.6860  -15.3940  -24.0860 O.2    67  DG67       -0.2633
   1348  N1        -1.2480  -17.2640  -22.8640 N.ar   67  DG67       -0.1709
   1349  C2        -1.4860  -18.1290  -21.8230 C.ar   67  DG67        0.2606
   1350  N2        -0.6730  -19.1910  -21.7410 N.pl3  67  DG67       -0.0859
   1351  N3        -2.4450  -17.9650  -20.9340 N.ar   67  DG67       -0.1918
   1352  C4        -3.1690  -16.8480  -21.1610 C.ar   67  DG67        0.1722
   1353  P         -3.2090  -14.8160  -15.5490 P.3    68  DC68        0.2141
   1354  OP1       -3.0890  -14.9620  -14.0730 O.3    68  DC68       -0.4373
   1355  OP2       -3.4460  -13.4740  -16.1630 O.2    68  DC68       -0.5172
   1356  O5'       -1.9010  -15.4630  -16.1130 O.3    68  DC68       -0.3114
   1357  C5'       -1.4760  -16.4990  -15.3670 C.3    68  DC68        0.1811
   1358  C4'       -0.2980  -17.0160  -16.1170 C.3    68  DC68        0.1746
   1359  O4'       -0.7170  -17.3590  -17.4660 O.3    68  DC68       -0.3327
   1360  C3'        0.8090  -15.9970  -16.3370 C.3    68  DC68        0.1558
   1361  O3'        1.6380  -15.8360  -15.2270 O.3    68  DC68       -0.3138
   1362  C2'        1.5460  -16.6810  -17.4790 C.3    68  DC68        0.0866
   1363  C1'        0.3720  -17.1080  -18.3390 C.3    68  DC68        0.2106
   1364  N1         0.1340  -15.9700  -19.2810 N.ar   68  DC68       -0.2556
   1365  C2         0.9630  -15.7260  -20.3820 C.ar   68  DC68        0.3531
   1366  O2         2.0270  -16.3590  -20.4810 O.2    68  DC68       -0.2443
   1367  N3         0.5830  -14.8080  -21.3020 N.ar   68  DC68       -0.1739
   1368  C4        -0.5680  -14.1510  -21.1530 C.ar   68  DC68        0.1759
   1369  N4        -0.9010  -13.2550  -22.0860 N.pl3  68  DC68       -0.1070
   1370  C5        -1.4220  -14.3840  -20.0450 C.ar   68  DC68        0.0566
   1371  C6        -1.0430  -15.2910  -19.1380 C.ar   68  DC68        0.0849
   1372  P          2.1610  -14.3990  -14.6680 P.3    69  DT69        0.2141
   1373  OP1        2.5680  -14.7750  -13.2950 O.3    69  DT69       -0.4373
   1374  OP2        1.2170  -13.2830  -14.9060 O.2    69  DT69       -0.5172
   1375  O5'        3.4760  -13.9730  -15.4700 O.3    69  DT69       -0.3114
   1376  C5'        4.5320  -14.9000  -15.6310 C.3    69  DT69        0.1811
   1377  C4'        5.3920  -14.5080  -16.8010 C.3    69  DT69        0.1746
   1378  O4'        4.6410  -14.6070  -18.0390 O.3    69  DT69       -0.3327
   1379  C3'        5.8600  -13.0680  -16.8040 C.3    69  DT69        0.1558
   1380  O3'        6.9110  -12.8230  -15.8900 O.3    69  DT69       -0.3138
   1381  C2'        6.2380  -12.8620  -18.2640 C.3    69  DT69        0.0866
   1382  C1'        5.1150  -13.6380  -18.9530 C.3    69  DT69        0.2106
   1383  N1         4.0060  -12.7030  -19.2660 N.ar   69  DT69       -0.2559
   1384  C2         4.0570  -11.9850  -20.4460 C.ar   69  DT69        0.3545
   1385  O2         5.0270  -11.9870  -21.1830 O.2    69  DT69       -0.2443
   1386  N3         2.9260  -11.2600  -20.7340 N.ar   69  DT69       -0.1533
   1387  C4         1.7750  -11.1820  -19.9770 C.ar   69  DT69        0.2804
   1388  O4         0.8400  -10.4880  -20.3680 O.2    69  DT69       -0.2654
   1389  C5         1.8000  -11.9540  -18.7670 C.ar   69  DT69        0.0534
   1390  C6         2.8870  -12.6680  -18.4620 C.ar   69  DT69        0.0824
   1391  C7         0.5940  -11.9340  -17.8750 C.3    69  DT69        0.0377
   1392  P          6.6580  -11.7170  -15.0060 P.3    70  DT70        0.2141
   1393  OP1        7.6210  -11.6540  -13.8800 O.3    70  DT70       -0.4373
   1394  OP2        5.2600  -11.2860  -14.7770 O.2    70  DT70       -0.5172
   1395  O5'        7.2260  -10.9290  -16.2880 O.3    70  DT70       -0.3114
   1396  C5'        8.5910  -10.5000  -16.3520 C.3    70  DT70        0.1811
   1397  C4'        8.7950   -9.5780  -17.5390 C.3    70  DT70        0.1746
   1398  O4'        8.0920  -10.0940  -18.6950 O.3    70  DT70       -0.3327
   1399  C3'        8.1990   -8.1900  -17.4010 C.3    70  DT70        0.1558
   1400  O3'        9.0500   -7.3670  -16.6310 O.3    70  DT70       -0.3138
   1401  C2'        8.1710   -7.7440  -18.8550 C.3    70  DT70        0.0866
   1402  C1'        7.6860   -9.0200  -19.5250 C.3    70  DT70        0.2106
   1403  N1         6.2120   -8.9810  -19.6190 N.ar   70  DT70       -0.2559
   1404  C2         5.6250   -8.3890  -20.7210 C.ar   70  DT70        0.3545
   1405  O2         6.2610   -7.7920  -21.5720 O.2    70  DT70       -0.2443
   1406  N3         4.2590   -8.5190  -20.7930 N.ar   70  DT70       -0.1533
   1407  C4         3.4400   -9.1680  -19.8930 C.ar   70  DT70        0.2804
   1408  O4         2.2280   -9.2030  -20.0930 O.2    70  DT70       -0.2654
   1409  C5         4.1240   -9.7560  -18.7750 C.ar   70  DT70        0.0534
   1410  C6         5.4520   -9.6440  -18.6810 C.ar   70  DT70        0.0824
   1411  C7         3.3200  -10.4840  -17.7390 C.3    70  DT70        0.0377
   1412  P          8.3570   -6.3160  -15.7440 P.3    71  DA71        0.2141
   1413  OP1        9.4380   -5.8160  -14.8610 O.3    71  DA71       -0.4373
   1414  OP2        7.1020   -6.8670  -15.1790 O.2    71  DA71       -0.5172
   1415  O5'        7.8910   -5.1390  -16.7270 O.3    71  DA71       -0.3114
   1416  C5'        8.8760   -4.4350  -17.4700 C.3    71  DA71        0.1811
   1417  C4'        8.3280   -3.8420  -18.7470 C.3    71  DA71        0.1746
   1418  O4'        7.4840   -4.7980  -19.4400 O.3    71  DA71       -0.3327
   1419  C3'        7.4290   -2.6280  -18.5990 C.3    71  DA71        0.1558
   1420  O3'        8.1490   -1.4330  -18.3820 O.3    71  DA71       -0.3138
   1421  C2'        6.6590   -2.6260  -19.9100 C.3    71  DA71        0.0865
   1422  C1'        6.4560   -4.1210  -20.1390 C.3    71  DA71        0.2094
   1423  N9         5.1100   -4.5930  -19.7010 N.ar   71  DA71       -0.2714
   1424  C8         4.8010   -5.4030  -18.6400 C.ar   71  DA71        0.1815
   1425  N7         3.5480   -5.7930  -18.6190 N.ar   71  DA71       -0.2193
   1426  C5         2.9970   -5.1970  -19.7420 C.ar   71  DA71        0.1518
   1427  C6         1.6990   -5.2190  -20.2840 C.ar   71  DA71        0.1919
   1428  N6         0.6830   -5.8930  -19.7410 N.pl3  71  DA71       -0.1054
   1429  N1         1.4810   -4.5160  -21.4160 N.ar   71  DA71       -0.2040
   1430  C2         2.5010   -3.8420  -21.9590 C.ar   71  DA71        0.2016
   1431  N3         3.7620   -3.7460  -21.5440 N.ar   71  DA71       -0.2048
   1432  C4         3.9460   -4.4540  -20.4180 C.ar   71  DA71        0.1691
   1433  P          7.5140   -0.4980  -17.5090 P.3    72  DT72        0.2141
   1434  OP1        8.4990    0.6120  -17.4250 O.2    72  DT72       -0.5172
   1435  OP2        7.1460   -1.2470  -16.2800 O.3    72  DT72       -0.4373
   1436  O5'        6.1660    0.0450  -18.1640 O.3    72  DT72       -0.3114
   1437  C5'        6.1970    0.7800  -19.4000 C.3    72  DT72        0.1811
   1438  C4'        4.7940    1.0240  -19.9050 C.3    72  DT72        0.1746
   1439  O4'        4.1600   -0.2380  -20.2480 O.3    72  DT72       -0.3327
   1440  C3'        3.8280    1.6570  -18.9220 C.3    72  DT72        0.1558
   1441  O3'        4.0090    3.0640  -18.8390 O.3    72  DT72       -0.3138
   1442  C2'        2.4780    1.2750  -19.5160 C.3    72  DT72        0.0866
   1443  C1'        2.7620   -0.1480  -19.9970 C.3    72  DT72        0.2106
   1444  N1         2.4270   -1.1920  -19.0210 N.ar   72  DT72       -0.2559
   1445  C2         1.1240   -1.6520  -18.9940 C.ar   72  DT72        0.3545
   1446  O2         0.2510   -1.2190  -19.7250 O.2    72  DT72       -0.2443
   1447  N3         0.8770   -2.6420  -18.0730 N.ar   72  DT72       -0.1533
   1448  C4         1.7810   -3.2050  -17.1980 C.ar   72  DT72        0.2804
   1449  O4         1.4090   -4.0890  -16.4290 O.2    72  DT72       -0.2654
   1450  C5         3.1120   -2.6740  -17.2870 C.ar   72  DT72        0.0534
   1451  C6         3.3800   -1.7110  -18.1730 C.ar   72  DT72        0.0824
   1452  C7         4.1690   -3.2220  -16.3750 C.3    72  DT72        0.0377
   1453  P          3.6380    3.8580  -17.4550 P.3    73  DT73        0.2141
   1454  OP1        4.0630    5.2960  -17.5170 O.2    73  DT73       -0.5172
   1455  OP2        3.8730    2.9600  -16.2680 O.3    73  DT73       -0.4373
   1456  O5'        2.1250    3.7530  -17.6650 O.3    73  DT73       -0.3114
   1457  C5'        1.5820    4.9190  -18.4180 C.3    73  DT73        0.1811
   1458  C4'       -0.0010    4.6970  -18.8340 C.3    73  DT73        0.1746
   1459  O4'       -0.1700    3.1470  -19.5580 O.3    73  DT73       -0.3327
   1460  C3'       -0.7670    4.6990  -17.6890 C.3    73  DT73        0.1558
   1461  O3'       -1.1790    6.0540  -17.6050 O.3    73  DT73       -0.3138
   1462  C2'       -1.8640    3.7090  -18.1550 C.3    73  DT73        0.0866
   1463  C1'       -1.2480    2.5810  -19.0140 C.3    73  DT73        0.2106
   1464  N1        -1.0530    1.6640  -17.9080 N.ar   73  DT73       -0.2559
   1465  C2        -2.0460    0.7470  -17.6180 C.ar   73  DT73        0.3545
   1466  O2        -3.2040    0.8880  -17.9710 O.2    73  DT73       -0.2443
   1467  N3        -1.6340   -0.3460  -16.8960 N.ar   73  DT73       -0.1533
   1468  C4        -0.3580   -0.6100  -16.4450 C.ar   73  DT73        0.2804
   1469  O4        -0.1420   -1.6370  -15.8070 O.2    73  DT73       -0.2654
   1470  C5         0.6160    0.3890  -16.7850 C.ar   73  DT73        0.0534
   1471  C6         0.2430    1.4620  -17.4870 C.ar   73  DT73        0.0824
   1472  C7         2.0350    0.1940  -16.3380 C.3    73  DT73        0.0377
   1473  P         -1.5190    6.6300  -16.1820 P.3    74  DC74        0.2141
   1474  OP1       -1.6320    8.1050  -16.3630 O.2    74  DC74       -0.5172
   1475  OP2       -0.4980    6.0600  -15.2980 O.3    74  DC74       -0.4373
   1476  O5'       -2.9380    6.0940  -15.6460 O.3    74  DC74       -0.3114
   1477  C5'       -4.1370    6.5010  -16.3580 C.3    74  DC74        0.1812
   1478  C4'       -5.3670    5.7910  -15.8200 C.3    74  DC74        0.1775
   1479  O4'       -5.2070    4.3740  -16.1310 O.3    74  DC74       -0.3326
   1480  C3'       -5.4850    5.7650  -14.2750 C.3    74  DC74        0.1864
   1481  O3'       -6.0800    6.9580  -13.7950 O.3    74  DC74       -0.2133
   1482  C2'       -6.4590    4.5820  -14.1070 C.3    74  DC74        0.0895
   1483  C1'       -5.7930    3.6120  -15.0780 C.3    74  DC74        0.2107
   1484  N1        -4.7700    2.7640  -14.5180 N.ar   74  DC74       -0.2556
   1485  C2        -5.1420    1.6120  -13.8150 C.ar   74  DC74        0.3531
   1486  O2        -6.3460    1.3130  -13.7520 O.2    74  DC74       -0.2443
   1487  N3        -4.1810    0.8610  -13.2250 N.ar   74  DC74       -0.1739
   1488  C4        -2.9010    1.2230  -13.3180 C.ar   74  DC74        0.1759
   1489  N4        -1.9890    0.4510  -12.7210 N.pl3  74  DC74       -0.1070
   1490  C5        -2.5040    2.3860  -14.0260 C.ar   74  DC74        0.0566
   1491  C6        -3.4560    3.1250  -14.6070 C.ar   74  DC74        0.0849
   1492  P         -5.7990    7.3890  -12.2280 P.3    75  DA75        0.3939
   1493  OP1       -6.6400    7.8610  -13.3570 O.3    75  DA75       -0.1496
   1494  OP2       -5.4140    8.3430  -11.1630 O.3    75  DA75       -0.1425
   1495  O5'       -6.5860    6.2030  -11.4970 O.3    75  DA75       -0.2926
   1496  C5'       -7.9500    5.9050  -11.8360 C.3    75  DA75        0.1829
   1497  C4'       -8.3930    4.5830  -11.2210 C.3    75  DA75        0.1775
   1498  O4'       -7.5930    3.4860  -11.7490 O.3    75  DA75       -0.3326
   1499  C3'       -8.2720    4.4370   -9.7070 C.3    75  DA75        0.1859
   1500  O3'       -9.4030    4.9880   -9.0400 O.3    75  DA75       -0.2203
   1501  C2'       -8.2520    2.9210   -9.5300 C.3    75  DA75        0.0894
   1502  C1'       -7.4360    2.4810  -10.7490 C.3    75  DA75        0.2095
   1503  N9        -5.9640    2.3990  -10.4220 N.ar   75  DA75       -0.2714
   1504  C8        -4.9790    3.2000  -10.9380 C.ar   75  DA75        0.1815
   1505  N7        -3.7650    2.8160  -10.6220 N.ar   75  DA75       -0.2193
   1506  C5        -3.9660    1.6860   -9.8450 C.ar   75  DA75        0.1518
   1507  C6        -3.0740    0.8100   -9.2010 C.ar   75  DA75        0.1919
   1508  N6        -1.7470    0.9440   -9.2420 N.pl3  75  DA75       -0.1054
   1509  N1        -3.6010   -0.2200   -8.5050 N.ar   75  DA75       -0.2040
   1510  C2        -4.9320   -0.3540   -8.4650 C.ar   75  DA75        0.2016
   1511  N3        -5.8700    0.4030   -9.0290 N.ar   75  DA75       -0.2048
   1512  C4        -5.3150    1.4180   -9.7120 C.ar   75  DA75        0.1691
   1513  P         -9.2680    5.6880   -7.4640 P.3    76  DA76        0.5411
   1514  OP1      -10.5200    6.3520   -6.9900 O.2    76  DA76       -0.2272
   1515  OP2       -8.0400    5.8710   -6.6730 O.2    76  DA76       -0.2272
   1516  O5'       -9.5350    4.1000   -7.5910 O.3    76  DA76       -0.2722
   1517  C5'      -10.1830    3.3880   -6.5360 C.3    76  DA76        0.1850
   1518  C4'       -9.4050    2.1560   -6.1480 C.3    76  DA76        0.1748
   1519  O4'       -8.3200    1.9470   -7.0950 O.3    76  DA76       -0.3327
   1520  C3'       -8.6970    2.2210   -4.8000 C.3    76  DA76        0.1558
   1521  O3'       -9.5420    1.9270   -3.7120 O.3    76  DA76       -0.3138
   1522  C2'       -7.6930    1.0820   -4.9500 C.3    76  DA76        0.0865
   1523  C1'       -7.2770    1.2360   -6.4190 C.3    76  DA76        0.2094
   1524  N9        -6.0570    1.8820   -6.5230 N.ar   76  DA76       -0.2714
   1525  C8        -5.8580    3.1730   -6.9390 C.ar   76  DA76        0.1815
   1526  N7        -4.6030    3.5540   -6.8970 N.ar   76  DA76       -0.2193
   1527  C5        -3.9330    2.4380   -6.4190 C.ar   76  DA76        0.1518
   1528  C6        -2.5760    2.1950   -6.1470 C.ar   76  DA76        0.1919
   1529  N6        -1.6110    3.1000   -6.3280 N.pl3  76  DA76       -0.1054
   1530  N1        -2.2400    0.9740   -5.6790 N.ar   76  DA76       -0.2040
   1531  C2        -3.2070    0.0670   -5.4990 C.ar   76  DA76        0.2016
   1532  N3        -4.5150    0.1770   -5.7190 N.ar   76  DA76       -0.2048
   1533  C4        -4.8160    1.4020   -6.1830 C.ar   76  DA76        0.1691
   1534  P         -9.1820    2.4740   -2.1190 P.3    77  DT77        0.2141
   1535  OP1      -10.2040    2.3310   -1.0440 O.3    77  DT77       -0.4373
   1536  OP2       -8.5610    3.7970   -2.3620 O.2    77  DT77       -0.5172
   1537  O5'       -7.9980    1.4390   -1.8510 O.3    77  DT77       -0.3114
   1538  C5'       -8.2640    0.0270   -1.7060 C.3    77  DT77        0.1812
   1539  C4'       -7.0320   -0.7070   -1.2330 C.3    77  DT77        0.1775
   1540  O4'       -5.9960   -0.6510   -2.2410 O.3    77  DT77       -0.3326
   1541  C3'       -6.3670   -0.1410    0.0070 C.3    77  DT77        0.1859
   1542  O3'       -7.0070   -0.5460    1.2090 O.3    77  DT77       -0.2203
   1543  C2'       -4.9450   -0.6620   -0.1120 C.3    77  DT77        0.0895
   1544  C1'       -4.7250   -0.5890   -1.6160 C.3    77  DT77        0.2107
   1545  N1        -4.1020    0.7330   -2.0610 N.ar   77  DT77       -0.2559
   1546  C2        -2.7220    0.7770   -2.0210 C.ar   77  DT77        0.3545
   1547  O2        -2.0360   -0.1720   -1.6840 O.2    77  DT77       -0.2443
   1548  N3        -2.1680    1.9790   -2.3910 N.ar   77  DT77       -0.1533
   1549  C4        -2.8410    3.1160   -2.7880 C.ar   77  DT77        0.2804
   1550  O4        -2.2030    4.1210   -3.0920 O.2    77  DT77       -0.2654
   1551  C5        -4.2710    2.9910   -2.8020 C.ar   77  DT77        0.0534
   1552  C6        -4.8360    1.8340   -2.4470 C.ar   77  DT77        0.0824
   1553  C7        -5.0930    4.1740   -3.2190 C.3    77  DT77        0.0377
   1554  P         -7.2420    0.6080    3.2050 P.3    78  DT78        0.5411
   1555  OP1       -8.0000   -0.3970    3.9970 O.2    78  DT78       -0.2272
   1556  OP2       -7.0480    1.9810    3.7490 O.2    78  DT78       -0.2272
   1557  O5'       -5.8030    0.0240    2.8430 O.3    78  DT78       -0.2722
   1558  C5'       -4.9430   -0.4360    3.8730 C.3    78  DT78        0.1850
   1559  C4'       -3.8550   -1.3200    3.3120 C.3    78  DT78        0.1755
   1560  O4'       -2.8050   -0.4950    2.7320 O.3    78  DT78       -0.3510
   1561  C3'       -3.1510   -2.1150    4.3980 C.3    78  DT78        0.1839
   1562  O3'       -3.8560   -3.3120    4.6950 O.3    78  DT78       -0.2204
   1563  C2'       -1.7580   -2.3260    3.8240 C.3    78  DT78        0.0676
   1564  C1'       -1.5280   -0.9920    3.1130 C.3    78  DT78        0.1450
   1565  N1        -1.8240    0.6980    1.4200 N.2    78  DT78       -0.1608
   1566  C2        -0.6330    0.9180    0.7540 C.1    78  DT78        0.2395
   1567  O2         0.2620    0.0940    0.7030 O.2    78  DT78       -0.2041
   1568  N3        -0.5260    2.1460    0.1460 N.am   78  DT78       -0.0881
   1569  C4        -1.4680    3.1530    0.1380 C.2    78  DT78        0.2768
   1570  O4        -1.2280    4.2020   -0.4540 O.2    78  DT78       -0.2676
   1571  C5        -2.6760    2.8490    0.8520 C.2    78  DT78        0.0541
   1572  C6        -2.8070    1.6620    1.4520 C.2    78  DT78        0.1126
   1573  C7        -3.7630    3.8820    0.9020 C.3    78  DT78        0.0376
@<TRIPOS>BOND
     1  1247  1246    2
     2  1250  1248    1
     3  1246  1248   ar
     4  1246  1245   ar
     5  1248  1249   ar
     6  1245  1243   ar
     7  1249  1242   ar
     8  1243  1244    2
     9  1243  1242   ar
    10  1233  1231    2
    11  1242  1241    1
    12  1214  1213    1
    13  1214  1215    1
    14  1231  1234    1
    15  1231  1232    1
    16  1231  1218    1
    17  1241  1237    1
    18  1241  1240    1
    19  1234  1235    1
    20  1217  1218    1
    21  1217  1215    1
    22  1217  1219    1
    23  1211  1210    1
    24  1211  1199    1
    25  1237  1236    1
    26  1213  1210    1
    27  1215  1216    1
    28  1240  1238    1
    29  1220  1216    1
    30  1220  1219    1
    31  1238  1236    1
    32  1238  1239    1
    33  1252  1251    1
    34  1235  1236    1
    35  1210  1212    1
    36  1199  1198    1
    37  1222  1221   ar
    38  1222  1223   ar
    39  1221  1230   ar
    40  1239  1253    1
    41  1251  1253    1
    42  1251  1254    1
    43  1223  1224   ar
    44  1255  1254    1
    45  1255  1256    1
    46  1198  1200    1
    47  1198  1196    1
    48  1200  1201    1
    49  1230  1224   ar
    50  1230  1229   ar
    51  1224  1225   ar
    52  1229  1228   ar
    53  1196  1195    1
    54  1196  1197    1
    55  1256  1257    1
    56  1256  1258    1
    57  1195  1194    1
    58  1259  1258    1
    59  1259  1272    1
    60  1225  1226    1
    61  1225  1227   ar
    62  1201  1197    1
    63  1201  1202    1
    64  1228  1227   ar
    65  1257  1261    1
    66  1204  1203    2
    67  1194  1191    1
    68  1273  1272    2
    69  1258  1260    1
    70  1192  1191    2
    71  1274  1272    1
    72  1272  1275    1
    73  1203  1202   ar
    74  1203  1205   ar
    75  1202  1209   ar
    76  1191  1193    1
    77  1191  1178    1
    78  1261  1260    1
    79  1261  1262    1
    80  1209  1208   ar
    81  1205  1206   ar
    82  1263  1262   ar
    83  1263  1264   ar
    84  1275  1276    1
    85  1262  1271   ar
    86  1188  1187   ar
    87  1188  1189   ar
    88  1206  1208   ar
    89  1206  1207    1
    90  1187  1185   ar
    91  1276  1277    1
    92  1189  1190   ar
    93  1264  1265   ar
    94  1049  1048    2
    95  1178  1177    1
    96  1179  1177    1
    97  1179  1180    1
    98  1030  1029    2
    99  1185  1186    1
   100  1185  1184   ar
   101  1271  1265   ar
   102  1271  1270   ar
   103  1177  1175    1
   104  1190  1184   ar
   105  1190  1181   ar
   106  1265  1266   ar
   107  1277  1278    1
   108  1277  1279    1
   109  1278  1282    1
   110  1184  1183   ar
   111  1048  1050    1
   112  1048  1037    1
   113  1048  1051    1
   114  1270  1269   ar
   115  1290  1289   ar
   116  1290  1283   ar
   117  1289  1287   ar
   118  1180  1181    1
   119  1180  1176    1
   120  1181  1182   ar
   121  1071  1070    2
   122  1037  1036    1
   123  1029  1032    1
   124  1029  1031    1
   125  1029  1016    1
   126  1052  1051    1
   127  1052  1053    1
   128  1279  1280    1
   129  1279  1281    1
   130  1175  1176    1
   131  1175  1174    1
   132  1183  1182   ar
   133  1266  1267    1
   134  1266  1268   ar
   135  1072  1070    1
   136  1033  1032    1
   137  1033  1034    1
   138  1282  1283    1
   139  1282  1281    1
   140  1283  1284   ar
   141  1009  1008    2
   142  1280  1291    1
   143  1287  1288    1
   144  1287  1286   ar
   145  1293  1291    2
   146  1269  1268   ar
   147  1070  1056    1
   148  1070  1073    1
   149  1056  1055    1
   150  1036  1034    1
   151  1036  1038    1
   152  1034  1035    1
   153  1174  1173    1
   154  1016  1015    1
   155  1053  1055    1
   156  1053  1054    1
   157  1291  1292    1
   158  1291  1294    1
   159  1173  1170    1
   160  1284  1286   ar
   161  1284  1285    2
   162  1055  1057    1
   163  1008  1011    1
   164  1008  1010    1
   165  1008   996    1
   166  1167  1166    1
   167  1089  1087    1
   168  1073  1074    1
   169  1012  1011    1
   170  1012  1013    1
   171  1038  1039    1
   172  1165  1166   ar
   173  1165  1163   ar
   174  1054  1058    1
   175  1035  1039    1
   176  1015  1013    1
   177  1015  1017    1
   178  1172  1170    2
   179  1166  1168   ar
   180  1170  1171    1
   181  1170  1159    1
   182  1092  1090    2
   183  1013  1014    1
   184  1294  1295    1
   185  1164  1163    2
   186  1091  1090    1
   187  1308  1309   ar
   188  1308  1306   ar
   189   996   995    1
   190  1307  1306    1
   191  1074  1075    1
   192  1163  1162   ar
   193  1057  1058    1
   194  1145  1144    2
   195  1060  1061   ar
   196  1060  1059   ar
   197  1309  1302   ar
   198  1039  1040    1
   199  1306  1305   ar
   200  1090  1078    1
   201  1090  1093    1
   202  1160  1158    1
   203  1160  1161    1
   204  1058  1059    1
   205  1297  1301    1
   206  1297  1296    1
   207  1087  1088   ar
   208  1087  1085   ar
   209  1168  1169   ar
   210  1017  1018    1
   211  1295  1296    1
   212  1047  1040   ar
   213  1047  1046   ar
   214  1061  1062   ar
   215  1059  1069   ar
   216  1086  1085    2
   217  1162  1169   ar
   218  1162  1161    1
   219  1305  1303   ar
   220  1302  1301    1
   221  1302  1303   ar
   222  1159  1158    1
   223  1088  1081   ar
   224  1144  1146   ar
   225  1144  1143   ar
   226  1040  1041   ar
   227   992   991    1
   228   992   993    1
   229  1014  1018    1
   230   995   993    1
   231   995   997    1
   232   991   988    1
   233   989   988    2
   234  1301  1300    1
   235  1046  1044   ar
   236  1085  1084   ar
   237  1146  1147   ar
   238  1075  1077    1
   239  1075  1076    1
   240  1303  1304    2
   241  1296  1298    1
   242  1158  1156    1
   243  1161  1157    1
   244  1077  1078    1
   245  1077  1079    1
   246  1093  1094    1
   247   993   994    1
   248  1128  1126    1
   249  1018  1019    1
   250  1125  1124    2
   251  1076  1080    1
   252  1062  1069   ar
   253  1062  1063   ar
   254   988   990    1
   255   988   976    1
   256  1143  1142   ar
   257  1143  1150   ar
   258  1069  1068   ar
   259   997   998    1
   260  1111  1109    2
   261  1142  1141   ar
   262  1041  1042    2
   263  1041  1043   ar
   264  1147  1148    1
   265  1147  1149   ar
   266  1081  1080    1
   267  1081  1082   ar
   268  1107  1108   ar
   269  1107  1105   ar
   270  1020  1019   ar
   271  1020  1021   ar
   272  1044  1043   ar
   273  1044  1045    1
   274  1106  1105    1
   275  1326  1325    1
   276  1084  1082   ar
   277  1019  1028   ar
   278  1298  1300    1
   279  1298  1299    1
   280  1080  1079    1
   281  1124  1126   ar
   282  1124  1123   ar
   283  1094  1095    1
   284  1157  1156    1
   285  1156  1155    1
   286  1126  1127   ar
   287  1154  1155    1
   288  1154  1151    1
   289  1153  1151    2
   290  1150  1149   ar
   291  1150  1140   ar
   292  1068  1066   ar
   293  1108  1101   ar
   294  1105  1104   ar
   295  1063  1064    2
   296  1063  1065   ar
   297   994   998    1
   298  1082  1083    2
   299  1021  1022   ar
   300  1141  1140   ar
   301  1325  1324   ar
   302  1325  1327   ar
   303   976   975    1
   304  1131  1129    2
   305  1323  1324   ar
   306  1323  1322   ar
   307   998   999    1
   308  1028  1022   ar
   309  1028  1027   ar
   310  1109  1110    1
   311  1109  1098    1
   312  1109  1112    1
   313  1324  1330   ar
   314  1151  1152    1
   315  1151  1137    1
   316  1299  1310    1
   317  1327  1328   ar
   318  1140  1139    1
   319  1123  1121   ar
   320  1127  1120   ar
   321  1022  1023   ar
   322  1097  1095    1
   323  1097  1098    1
   324  1097  1099    1
   325  1095  1096    1
   326  1027  1026   ar
   327  1066  1065   ar
   328  1066  1067    1
   329  1347  1346    2
   330  1322  1321   ar
   331  1006   999   ar
   332  1006  1005   ar
   333   999  1000   ar
   334  1104  1102   ar
   335  1101  1102   ar
   336  1101  1100    1
   337  1096  1100    1
   338  1112  1113    1
   339  1136  1138    1
   340  1136  1137    1
   341  1136  1134    1
   342  1330  1321   ar
   343  1330  1329   ar
   344  1312  1310    2
   345   975   977    1
   346   975   973    1
   347  1138  1139    1
   348  1328  1329   ar
   349  1132  1129    1
   350  1132  1133    1
   351  1129  1130    1
   352  1129  1117    1
   353  1007  1005    1
   354  1321  1320    1
   355  1005  1003   ar
   356  1121  1120   ar
   357  1121  1122    2
   358  1023  1024    1
   359  1023  1025   ar
   360  1120  1119    1
   361  1026  1025   ar
   362  1310  1311    1
   363  1310  1313    1
   364  1102  1103    2
   365  1346  1348   ar
   366  1346  1345   ar
   367  1139  1135    1
   368  1000  1001    2
   369  1000  1002   ar
   370  1100  1099    1
   371   977   978    1
   372  1348  1349   ar
   373  1314  1313    1
   374  1314  1315    1
   375  1135  1134    1
   376  1316  1320    1
   377  1316  1315    1
   378  1116  1117    1
   379  1116  1118    1
   380  1116  1114    1
   381   973   972    1
   382   973   974    1
   383  1003  1002   ar
   384  1003  1004    2
   385  1113  1114    1
   386  1134  1133    1
   387   972   971    1
   388  1345  1344   ar
   389  1345  1352   ar
   390   969   968    2
   391  1369  1368    1
   392  1344  1343   ar
   393  1320  1319    1
   394  1430  1431   ar
   395  1430  1429   ar
   396  1119  1118    1
   397  1119  1115    1
   398   971   968    1
   399  1349  1350    1
   400  1349  1351   ar
   401  1114  1115    1
   402  1315  1317    1
   403  1405  1404    2
   404  1431  1432   ar
   405   978   974    1
   406   978   979    1
   407  1429  1427   ar
   408   968   970    1
   409   968   955    1
   410  1367  1368   ar
   411  1367  1365   ar
   412   981   980    2
   413  1385  1384    2
   414  1352  1351   ar
   415  1352  1342   ar
   416  1368  1370   ar
   417  1317  1319    1
   418  1317  1318    1
   419  1343  1342   ar
   420   979   980   ar
   421   979   986   ar
   422   980   982   ar
   423  1406  1404   ar
   424  1406  1407   ar
   425  1386  1384   ar
   426  1386  1387   ar
   427  1404  1403   ar
   428  1366  1365    2
   429  1384  1383   ar
   430  1432  1426   ar
   431  1432  1423   ar
   432  1342  1341    1
   433   986   985   ar
   434  1365  1364   ar
   435  1388  1387    2
   436  1427  1426   ar
   437  1427  1428    1
   438  1439  1443    1
   439  1439  1438    1
   440  1333  1331    2
   441  1422  1421    1
   442  1422  1423    1
   443  1422  1418    1
   444   982   983   ar
   445  1408  1407    2
   446  1370  1371   ar
   447  1443  1442    1
   448  1443  1444    1
   449  1387  1389   ar
   450  1421  1419    1
   451  1438  1437    1
   452  1438  1440    1
   453  1407  1409   ar
   454  1318  1331    1
   455   985   983   ar
   456   985   987    1
   457  1426  1425   ar
   458  1446  1445    2
   459  1423  1424   ar
   460   955   954    1
   461  1403  1402    1
   462  1403  1410   ar
   463   983   984    2
   464  1459  1463    1
   465  1459  1458    1
   466  1402  1401    1
   467  1402  1398    1
   468  1442  1440    1
   469  1418  1417    1
   470  1437  1436    1
   471  1341  1337    1
   472  1341  1340    1
   473  1364  1371   ar
   474  1364  1363    1
   475  1383  1382    1
   476  1383  1390   ar
   477  1331  1334    1
   478  1331  1332    1
   479  1444  1445   ar
   480  1444  1451   ar
   481  1337  1336    1
   482  1463  1462    1
   483  1463  1464    1
   484  1445  1447   ar
   485  1382  1381    1
   486  1382  1378    1
   487  1440  1441    1
   488  1401  1399    1
   489  1441  1453    1
   490  1458  1457    1
   491  1458  1460    1
   492  1334  1335    1
   493  1409  1410   ar
   494  1409  1411    1
   495  1389  1390   ar
   496  1389  1391    1
   497  1417  1419    1
   498  1417  1416    1
   499   954   956    1
   500   954   952    1
   501  1398  1397    1
   502   956   957    1
   503  1424  1425   ar
   504  1419  1420    1
   505  1457  1456    1
   506  1420  1433    1
   507  1363  1362    1
   508  1363  1359    1
   509  1381  1379    1
   510  1451  1450   ar
   511  1436  1433    1
   512  1462  1460    1
   513  1447  1448   ar
   514  1340  1338    1
   515  1378  1377    1
   516   965   966   ar
   517   965   964   ar
   518  1466  1465    2
   519   966   967   ar
   520  1464  1465   ar
   521  1464  1471   ar
   522   957   958    1
   523   957   953    1
   524  1460  1461    1
   525  1336  1335    1
   526  1336  1338    1
   527  1456  1453    1
   528   964   962   ar
   529  1465  1467   ar
   530  1461  1473    1
   531  1397  1399    1
   532  1397  1396    1
   533  1454  1453    2
   534  1433  1434    2
   535  1433  1435    1
   536  1471  1470   ar
   537  1362  1360    1
   538  1416  1415    1
   539  1359  1358    1
   540   967   958   ar
   541   967   961   ar
   542  1453  1455    1
   543  1399  1400    1
   544   952   953    1
   545   952   951    1
   546  1338  1339    1
   547  1450  1448   ar
   548  1450  1452    1
   549   958   959   ar
   550  1448  1449    2
   551   962   961   ar
   552   962   963    1
   553   961   960   ar
   554  1467  1468   ar
   555  1379  1377    1
   556  1379  1380    1
   557  1377  1376    1
   558  1470  1468   ar
   559  1470  1472    1
   560   959   960   ar
   561  1415  1412    1
   562  1400  1412    1
   563  1468  1469    2
   564  1474  1473    2
   565  1477  1478    1
   566  1477  1476    1
   567  1396  1395    1
   568  1360  1358    1
   569  1360  1361    1
   570   951   950    1
   571  1395  1392    1
   572  1473  1476    1
   573  1473  1475    1
   574  1355  1353    2
   575   950   947    1
   576  1479  1478    1
   577  1479  1483    1
   578  1358  1357    1
   579  1356  1353    1
   580  1356  1357    1
   581   948   947    2
   582  1339  1353    1
   583  1380  1392    1
   584  1478  1480    1
   585  1412  1414    2
   586  1412  1413    1
   587  1376  1375    1
   588  1353  1354    1
   589  1375  1372    1
   590   944   943   ar
   591   944   945   ar
   592   947   949    1
   593   947   934    1
   594  1361  1372    1
   595   943   941   ar
   596  1483  1484    1
   597  1483  1482    1
   598  1392  1394    2
   599  1392  1393    1
   600  1374  1372    2
   601   945   946   ar
   602     4     3    1
   603     4     8    1
   604     3     2    1
   605     3     5    1
   606  1372  1373    1
   607  1491  1484   ar
   608  1491  1490   ar
   609     2     1    1
   610  1484  1485   ar
   611   934   933    1
   612  1480  1482    1
   613  1480  1481    1
   614   935   933    1
   615   935   936    1
   616   941   942    1
   617   941   940   ar
   618     8     7    1
   619     8     9    1
   620  1490  1488   ar
   621   946   940   ar
   622   946   937   ar
   623  1485  1486    2
   624  1485  1487   ar
   625  1481  1493    1
   626   933   931    1
   627   940   939   ar
   628     6     5    1
   629     6    19    1
   630     7     5    1
   631  1493  1492    1
   632  1488  1487   ar
   633  1488  1489    1
   634   937   936    1
   635   937   938   ar
   636   936   932    1
   637     9    10   ar
   638     9    18   ar
   639    23    24    1
   640    23    22    1
   641    24    25    1
   642    24    26    1
   643    25    29    1
   644   939   938   ar
   645    20    19    2
   646    17    18   ar
   647    17    16   ar
   648    10    11   ar
   649    18    12   ar
   650   931   932    1
   651   931   930    1
   652  1492  1495    1
   653  1492  1494    1
   654    29    28    1
   655    29    30    1
   656    19    22    1
   657    19    21    1
   658  1496  1495    1
   659  1496  1497    1
   660    28    26    1
   661  1498  1497    1
   662  1498  1502    1
   663    16    15   ar
   664    27    26    1
   665    27    39    1
   666   930   929    1
   667    11    12   ar
   668    12    13   ar
   669  1497  1499    1
   670   929   926    1
   671    30    37   ar
   672    30    31   ar
   673  1504  1505   ar
   674  1504  1503   ar
   675    37    36   ar
   676  1502  1503    1
   677  1502  1501    1
   678    15    13   ar
   679   927   926    2
   680  1505  1506   ar
   681    32    31    2
   682    40    39    2
   683   923   922    1
   684  1503  1512   ar
   685   928   926    1
   686    31    33   ar
   687    13    14    1
   688   921   922   ar
   689   921   919   ar
   690    39    41    1
   691    39    42    1
   692   926   915    1
   693   920   919    2
   694   922   924   ar
   695    36    38    1
   696    36    34   ar
   697  1506  1512   ar
   698  1506  1507   ar
   699   919   918   ar
   700  1512  1511   ar
   701  1499  1501    1
   702  1499  1500    1
   703    33    34   ar
   704    43    42    1
   705    43    44    1
   706  1508  1507    1
   707    34    35    2
   708  1507  1509   ar
   709   916   914    1
   710   916   917    1
   711  1511  1510   ar
   712    45    44    1
   713    45    49    1
   714   915   914    1
   715   924   925   ar
   716   918   925   ar
   717   918   917    1
   718    44    46    1
   719   914   912    1
   720  1509  1510   ar
   721   917   913    1
   722   903   902    2
   723    51    50   ar
   724    51    52   ar
   725   909   907    2
   726    49    50    1
   727    49    48    1
   728  1516  1513    1
   729  1516  1517    1
   730    50    59   ar
   731    52    53   ar
   732  1513  1514    2
   733  1513  1515    2
   734   902   901   ar
   735   902   904   ar
   736    46    48    1
   737    46    47    1
   738   912   913    1
   739   912   911    1
   740   906   904    1
   741  1519  1523    1
   742  1519  1518    1
   743   910   907    1
   744   910   911    1
   745  1525  1526   ar
   746  1525  1524   ar
   747  1526  1527   ar
   748   901   899   ar
   749   907   908    1
   750   907   895    1
   751    47    60    1
   752   904   905   ar
   753   886   884    1
   754    53    59   ar
   755    53    54   ar
   756    59    58   ar
   757  1517  1518    1
   758  1524  1523    1
   759  1524  1533   ar
   760   883   882    2
   761   869   867    2
   762  1527  1533   ar
   763  1527  1528   ar
   764  1523  1522    1
   765  1529  1528    1
   766  1533  1532   ar
   767  1518  1520    1
   768  1528  1530   ar
   769   889   887    2
   770   847   846    2
   771   899   900    2
   772   899   898   ar
   773    58    57   ar
   774   905   898   ar
   775    62    60    2
   776    54    55    1
   777    54    56   ar
   778   882   884   ar
   779   882   881   ar
   780  1532  1531   ar
   781  1530  1531   ar
   782   884   885   ar
   783   898   897    1
   784   895   894    1
   785    76    75    1
   786    60    61    1
   787    60    63    1
   788   894   896    1
   789   894   892    1
   790   867   868    1
   791   867   870    1
   792   867   854    1
   793   890   887    1
   794   890   891    1
   795    57    56   ar
   796    77    75   ar
   797    77    78   ar
   798  1522  1520    1
   799   887   888    1
   800   887   875    1
   801   881   879   ar
   802   862   861    1
   803   896   897    1
   804  1520  1521    1
   805   870   871    1
   806   885   878   ar
   807    75    74   ar
   808   859   858   ar
   809   859   860   ar
   810   846   848    1
   811   846   849    1
   812   846   834    1
   813   850   849    1
   814   850   851    1
   815    78    71   ar
   816   858   857   ar
   817   897   893    1
   818   891   892    1
   819   854   853    1
   820    63    64    1
   821   892   893    1
   822   860   861   ar
   823   860   866   ar
   824   861   863   ar
   825   871   872    1
   826   853   851    1
   827   853   855    1
   828   879   878   ar
   829   879   880    2
   830   878   877    1
   831    74    72   ar
   832  1521  1534    1
   833    66    70    1
   834    66    65    1
   835   874   875    1
   836   874   872    1
   837   874   876    1
   838    71    72   ar
   839    71    70    1
   840   851   852    1
   841   857   866   ar
   842   857   856    1
   843    64    65    1
   844  1553  1551    1
   845    72    73    2
   846   863   864   ar
   847   866   865   ar
   848   834   833    1
   849  1550  1549    2
   850   872   873    1
   851   828   826    2
   852    70    69    1
   853   855   856    1
   854  1551  1549   ar
   855  1551  1552   ar
   856  1549  1548   ar
   857   873   877    1
   858   827   826    1
   859   852   856    1
   860   877   876    1
   861    65    67    1
   862   845   843    1
   863  1552  1545   ar
   864   833   835    1
   865   833   831    1
   866   864   865   ar
   867  1548  1546   ar
   868  1536  1534    2
   869  1540  1544    1
   870  1540  1539    1
   871   807   806    2
   872   826   829    1
   873   826   814    1
   874  1534  1537    1
   875  1534  1535    1
   876  1545  1546   ar
   877  1545  1544    1
   878  1546  1547    2
   879   843   844   ar
   880   843   841   ar
   881   808   806    1
   882   835   836    1
   883   829   830    1
   884    95    94    1
   885  1537  1538    1
   886   842   841    2
   887   844   837   ar
   888  1538  1539    1
   889  1544  1543    1
   890   841   840   ar
   891    69    67    1
   892    67    68    1
   893   806   809    1
   894   806   795    1
   895   788   787    2
   896  1539  1541    1
   897    94    96   ar
   898    94    93   ar
   899   837   838   ar
   900   837   836    1
   901   830   831    1
   902   831   832    1
   903   840   838   ar
   904    96    97   ar
   905   814   813    1
   906   838   839    2
   907   836   832    1
   908    93    91   ar
   909   809   810    1
   910   789   787    1
   911  1570  1569    2
   912    97    90   ar
   913   825   823    1
   914    68    79    1
   915   813   811    1
   916   813   815    1
   917   787   790    1
   918   787   773    1
   919  1543  1541    1
   920   795   794    1
   921  1541  1542    1
   922    91    90   ar
   923    91    92    2
   924   810   811    1
   925  1569  1568   am
   926  1569  1571    1
   927  1568  1566   am
   928   791   790    1
   929   791   792    1
   930    90    89    1
   931    81    79    2
   932   822   821    2
   933   823   821   ar
   934   823   824   ar
   935   821   820   ar
   936    85    89    1
   937    85    84    1
   938   824   817   ar
   939   794   792    1
   940   794   796    1
   941  1567  1566    2
   942   811   812    1
   943  1566  1565    2
   944   815   816    1
   945    89    88    1
   946    79    80    1
   947    79    82    1
   948  1571  1573    1
   949  1571  1572    2
   950   773   772    1
   951   820   818   ar
   952   766   765    2
   953   792   793    1
   954   817   818   ar
   955   817   816    1
   956  1565  1572    1
   957   818   819    2
   958   812   816    1
   959   115   116   ar
   960   115   113   ar
   961    82    83    1
   962   114   113    1
   963   116   117   ar
   964   113   112   ar
   965    84    83    1
   966    84    86    1
   967   796   797    1
   968   772   770    1
   969   772   774    1
   970   805   804   ar
   971   805   798   ar
   972   769   768    1
   973   769   770    1
   974   804   802   ar
   975   768   765    1
   976   117   118   ar
   977    88    86    1
   978   765   767    1
   979   765   752    1
   980   793   797    1
   981   112   118   ar
   982   112   111   ar
   983   118   109   ar
   984   798   797    1
   985   798   799   ar
   986   770   771    1
   987  1560  1564    1
   988  1560  1559    1
   989   802   803    1
   990   802   801   ar
   991  1557  1554    1
   992  1557  1558    1
   993   111   110   ar
   994    86    87    1
   995   109   110   ar
   996   109   108    1
   997  1564  1563    1
   998   774   775    1
   999  1554  1556    2
  1000  1554  1555    2
  1001   799   801   ar
  1002   799   800    2
  1003  1559  1558    1
  1004  1559  1561    1
  1005   104   108    1
  1006   104   103    1
  1007   108   107    1
  1008   752   751    1
  1009  1563  1561    1
  1010   101    98    1
  1011   101   102    1
  1012   771   775    1
  1013   138   137    1
  1014   100    98    2
  1015    87    98    1
  1016   136   137   ar
  1017   136   134   ar
  1018   777   776   ar
  1019   777   778   ar
  1020   775   776    1
  1021   135   134    2
  1022  1561  1562    1
  1023    98    99    1
  1024   745   744    2
  1025   137   139   ar
  1026   134   133   ar
  1027   776   786   ar
  1028   102   103    1
  1029   778   779   ar
  1030   103   105    1
  1031   751   749    1
  1032   751   753    1
  1033   748   747    1
  1034   748   749    1
  1035   139   140   ar
  1036   747   744    1
  1037   107   105    1
  1038   133   140   ar
  1039   133   132   ar
  1040   140   130   ar
  1041   786   779   ar
  1042   786   785   ar
  1043   779   780   ar
  1044   749   750    1
  1045   744   746    1
  1046   744   733    1
  1047   132   131   ar
  1048   105   106    1
  1049   785   783   ar
  1050   753   754    1
  1051   130   131   ar
  1052   130   129    1
  1053   780   781    2
  1054   780   782   ar
  1055   129   125    1
  1056   129   128    1
  1057   783   782   ar
  1058   783   784    1
  1059   125   124    1
  1060   756   755   ar
  1061   756   757   ar
  1062   750   754    1
  1063   733   732    1
  1064   106   119    1
  1065   755   754    1
  1066   755   764   ar
  1067   757   758   ar
  1068   128   126    1
  1069   157   156    1
  1070   764   758   ar
  1071   764   763   ar
  1072   758   759   ar
  1073   121   119    2
  1074   155   156   ar
  1075   155   153   ar
  1076   156   158   ar
  1077   763   762   ar
  1078   119   122    1
  1079   119   120    1
  1080   154   153    2
  1081   124   126    1
  1082   124   123    1
  1083   759   760    1
  1084   759   761   ar
  1085   122   123    1
  1086   732   734    1
  1087   732   730    1
  1088   153   152   ar
  1089   762   761   ar
  1090   126   127    1
  1091   726   725    2
  1092   158   159   ar
  1093   729   730    1
  1094   729   728    1
  1095   152   159   ar
  1096   152   151    1
  1097   734   735    1
  1098   173   172    2
  1099   730   731    1
  1100   151   147    1
  1101   151   150    1
  1102   727   725    1
  1103   174   172   ar
  1104   174   175   ar
  1105   147   146    1
  1106   725   728    1
  1107   725   714    1
  1108   172   171   ar
  1109   127   141    1
  1110   176   175    2
  1111   175   177   ar
  1112   736   735    1
  1113   736   743   ar
  1114   736   737   ar
  1115   735   731    1
  1116   738   737    2
  1117   743   742   ar
  1118   737   739   ar
  1119   171   178   ar
  1120   171   170    1
  1121   150   148    1
  1122   742   740   ar
  1123   739   740   ar
  1124   740   741    1
  1125   177   178   ar
  1126   177   179    1
  1127   146   145    1
  1128   146   148    1
  1129   143   141    2
  1130   141   144    1
  1131   141   142    1
  1132   714   713    1
  1133   170   166    1
  1134   170   169    1
  1135   144   145    1
  1136   166   165    1
  1137   148   149    1
  1138   713   715    1
  1139   713   711    1
  1140   715   716    1
  1141   169   167    1
  1142   165   164    1
  1143   165   167    1
  1144   164   163    1
  1145   149   160    1
  1146   722   721    1
  1147   167   168    1
  1148   720   721   ar
  1149   720   718   ar
  1150   711   710    1
  1151   711   712    1
  1152   721   723   ar
  1153   719   718    2
  1154   718   717   ar
  1155   723   724   ar
  1156   716   717    1
  1157   716   712    1
  1158   717   724   ar
  1159   162   160    2
  1160   160   163    1
  1161   160   161    1
  1162   710   709    1
  1163   709   706    1
  1164   708   706    2
  1165   625   624    2
  1166   707   706    1
  1167   706   693    1
  1168   168   180    1
  1169   645   644    2
  1170   624   612    1
  1171   624   626    1
  1172   624   627    1
  1173   628   627    1
  1174   628   629    1
  1175   612   611    1
  1176   186   190    1
  1177   186   185    1
  1178   199   197    1
  1179   693   692    1
  1180   196   195    2
  1181   197   195   ar
  1182   197   198   ar
  1183   195   194   ar
  1184   198   191   ar
  1185   194   192   ar
  1186   191   192   ar
  1187   191   190    1
  1188   701   700    1
  1189   192   193    2
  1190   646   644    1
  1191   190   189    1
  1192   632   644    1
  1193   632   631    1
  1194   180   182    2
  1195   180   183    1
  1196   180   181    1
  1197   644   647    1
  1198   629   631    1
  1199   629   630    1
  1200   184   183    1
  1201   184   185    1
  1202   687   685    2
  1203   608   609    1
  1204   608   607    1
  1205   605   604    2
  1206   185   187    1
  1207   700   702   ar
  1208   700   699   ar
  1209   692   694    1
  1210   692   690    1
  1211   609   611    1
  1212   609   610    1
  1213   694   695    1
  1214   702   703   ar
  1215   686   685    1
  1216   698   699   ar
  1217   698   697   ar
  1218   611   613    1
  1219   699   705   ar
  1220   667   665    2
  1221   631   633    1
  1222   703   704   ar
  1223   697   696   ar
  1224   607   604    1
  1225   685   688    1
  1226   685   673    1
  1227   630   634    1
  1228   705   704   ar
  1229   705   696   ar
  1230   189   187    1
  1231   696   695    1
  1232   613   614    1
  1233   604   593    1
  1234   604   606    1
  1235   666   665    1
  1236   593   592    1
  1237   647   648    1
  1238   187   188    1
  1239   610   614    1
  1240   695   691    1
  1241   690   689    1
  1242   690   691    1
  1243   665   652    1
  1244   665   668    1
  1245   688   689    1
  1246   648   649    1
  1247   633   634    1
  1248   634   635    1
  1249   614   615    1
  1250   188   200    1
  1251   684   682    1
  1252   216   215    1
  1253   652   651    1
  1254   673   672    1
  1255   213   212   ar
  1256   213   214   ar
  1257   592   594    1
  1258   592   590    1
  1259   681   680    2
  1260   594   595    1
  1261   668   669    1
  1262   215   214   ar
  1263   215   217   ar
  1264   212   211   ar
  1265   214   220   ar
  1266   590   589    1
  1267   590   591    1
  1268   642   635   ar
  1269   642   641   ar
  1270   217   218   ar
  1271   649   651    1
  1272   649   650    1
  1273   682   680   ar
  1274   682   683   ar
  1275   211   220   ar
  1276   211   210    1
  1277   680   679   ar
  1278   220   219   ar
  1279   206   210    1
  1280   206   205    1
  1281   672   674    1
  1282   672   670    1
  1283   635   636   ar
  1284   651   653    1
  1285   218   219   ar
  1286   589   588    1
  1287   615   622   ar
  1288   615   616   ar
  1289   210   209    1
  1290   643   641    1
  1291   683   676   ar
  1292   622   621   ar
  1293   679   677   ar
  1294   669   670    1
  1295   202   200    2
  1296   641   639   ar
  1297   595   591    1
  1298   595   596    1
  1299   200   203    1
  1300   200   201    1
  1301   674   675    1
  1302   656   657   ar
  1303   656   655   ar
  1304   650   654    1
  1305   204   205    1
  1306   204   203    1
  1307   676   677   ar
  1308   676   675    1
  1309   363   362    2
  1310   670   671    1
  1311   657   658   ar
  1312   677   678    2
  1313   617   616    2
  1314   205   207    1
  1315   636   637    2
  1316   636   638   ar
  1317   616   618   ar
  1318   586   585    2
  1319   588   585    1
  1320   653   654    1
  1321   598   597    2
  1322   350   362    1
  1323   350   349    1
  1324   621   623    1
  1325   621   619   ar
  1326   346   347    1
  1327   346   345    1
  1328   347   348    1
  1329   347   349    1
  1330   675   671    1
  1331   655   654    1
  1332   655   664   ar
  1333   209   207    1
  1334   343   330    1
  1335   639   638   ar
  1336   639   640    2
  1337   596   597   ar
  1338   596   603   ar
  1339   658   664   ar
  1340   658   659   ar
  1341   366   365    1
  1342   366   367    1
  1343   585   574    1
  1344   585   587    1
  1345   362   365    1
  1346   362   364    1
  1347   207   208    1
  1348   348   352    1
  1349   330   342    1
  1350   597   599   ar
  1351   349   351    1
  1352   618   619   ar
  1353   331   329    1
  1354   331   332    1
  1355   660   659    1
  1356   664   663   ar
  1357   619   620    2
  1358   351   352    1
  1359   237   236    2
  1360   603   602   ar
  1361   659   661   ar
  1362   327   329    1
  1363   327   328    1
  1364   327   326    1
  1365   352   353    1
  1366   574   573    1
  1367   236   235   ar
  1368   236   238   ar
  1369   235   233   ar
  1370   367   368    1
  1371   367   369    1
  1372   332   328    1
  1373   332   333    1
  1374   342   344    2
  1375   234   233    2
  1376   233   232   ar
  1377   238   240    1
  1378   238   239   ar
  1379   335   334    2
  1380   319   320   ar
  1381   319   318   ar
  1382   208   221    1
  1383   384   383    2
  1384   599   600   ar
  1385   663   662   ar
  1386   232   239   ar
  1387   232   231    1
  1388   320   321   ar
  1389   370   369    1
  1390   370   383    1
  1391   326   325    1
  1392   227   231    1
  1393   227   226    1
  1394   661   662   ar
  1395   368   372    1
  1396   298   297   ar
  1397   298   299   ar
  1398   575   573    1
  1399   575   576    1
  1400   231   230    1
  1401   602   600   ar
  1402   369   371    1
  1403   573   571    1
  1404   297   295   ar
  1405   318   316   ar
  1406   600   601    1
  1407   353   360   ar
  1408   353   354   ar
  1409   383   385    1
  1410   383   386    1
  1411   333   334   ar
  1412   333   340   ar
  1413   334   336   ar
  1414   299   300   ar
  1415   310   311    1
  1416   310   308    1
  1417   257   256    2
  1418   311   307    1
  1419   311   312    1
  1420   355   354    2
  1421   579   578    2
  1422   321   312   ar
  1423   321   315   ar
  1424   360   359   ar
  1425   225   226    1
  1426   225   224    1
  1427   255   256   ar
  1428   255   253   ar
  1429   226   228    1
  1430   325   322    1
  1431   221   224    1
  1432   221   223    2
  1433   221   222    1
  1434   254   253    2
  1435   372   371    1
  1436   372   373    1
  1437   354   356   ar
  1438   571   570    1
  1439   571   572    1
  1440   256   258   ar
  1441   307   306    1
  1442   576   577    1
  1443   576   572    1
  1444   253   252   ar
  1445   312   313   ar
  1446   230   228    1
  1447   295   296    1
  1448   295   294   ar
  1449   277   276    1
  1450   340   339   ar
  1451   316   315   ar
  1452   316   317    1
  1453   323   322    2
  1454   336   337   ar
  1455   309   308    1
  1456   309   322    1
  1457   300   294   ar
  1458   300   291   ar
  1459   578   577   ar
  1460   578   580   ar
  1461   386   387    1
  1462   308   306    1
  1463   387   388    1
  1464   306   305    1
  1465   275   276   ar
  1466   275   273   ar
  1467   315   314   ar
  1468   322   324    1
  1469   570   569    1
  1470   228   229    1
  1471   577   584   ar
  1472   258   260    1
  1473   258   259   ar
  1474   374   373   ar
  1475   374   375   ar
  1476   359   361    1
  1477   359   357   ar
  1478   373   382   ar
  1479   276   278   ar
  1480   252   259   ar
  1481   252   251    1
  1482   294   293   ar
  1483   274   273    2
  1484   356   357   ar
  1485   290   291    1
  1486   290   289    1
  1487   290   286    1
  1488   580   581   ar
  1489   273   272   ar
  1490   291   292   ar
  1491   251   247    1
  1492   251   250    1
  1493   339   337   ar
  1494   339   341    1
  1495   313   314   ar
  1496   289   287    1
  1497   337   338    2
  1498   357   358    2
  1499   584   583   ar
  1500   247   246    1
  1501   569   566    1
  1502   375   376   ar
  1503   305   304    1
  1504   388   389    1
  1505   388   390    1
  1506   229   241    1
  1507   278   279   ar
  1508   286   285    1
  1509   382   381   ar
  1510   382   376   ar
  1511   389   393    1
  1512   293   292   ar
  1513   581   583   ar
  1514   581   582    1
  1515   272   279   ar
  1516   272   271    1
  1517   563   562   ar
  1518   563   564   ar
  1519   250   248    1
  1520   381   380   ar
  1521   304   301    1
  1522   376   377   ar
  1523   562   560   ar
  1524   395   396   ar
  1525   395   394   ar
  1526   244   241    1
  1527   244   245    1
  1528   287   285    1
  1529   287   288    1
  1530   285   284    1
  1531   271   270    1
  1532   271   267    1
  1533   390   391    1
  1534   390   392    1
  1535   564   565   ar
  1536   243   241    2
  1537   246   245    1
  1538   246   248    1
  1539   241   242    1
  1540   567   566    2
  1541   566   553    1
  1542   566   568    1
  1543   391   404    1
  1544   406   404    2
  1545   288   301    1
  1546   396   397   ar
  1547   270   268    1
  1548   393   394    1
  1549   393   392    1
  1550   248   249    1
  1551   394   403   ar
  1552   560   561    1
  1553   560   559   ar
  1554   404   405    1
  1555   404   407    1
  1556   380   379   ar
  1557   554   552    1
  1558   554   555    1
  1559   267   266    1
  1560   377   379   ar
  1561   377   378    1
  1562   553   552    1
  1563   301   303    2
  1564   301   302    1
  1565   565   559   ar
  1566   565   556   ar
  1567   423   421    1
  1568   284   283    1
  1569   397   403   ar
  1570   397   398   ar
  1571   559   558   ar
  1572   552   550    1
  1573   283   280    1
  1574   403   402   ar
  1575   268   266    1
  1576   268   269    1
  1577   249   261    1
  1578   555   556    1
  1579   555   551    1
  1580   556   557   ar
  1581   407   408    1
  1582   266   265    1
  1583   399   398    1
  1584   263   261    2
  1585   398   400   ar
  1586   421   422   ar
  1587   421   419   ar
  1588   558   557   ar
  1589   420   419    2
  1590   269   280    1
  1591   440   439    1
  1592   402   401   ar
  1593   550   551    1
  1594   550   549    1
  1595   408   409    1
  1596   280   282    2
  1597   280   281    1
  1598   261   264    1
  1599   261   262    1
  1600   422   415   ar
  1601   419   418   ar
  1602   265   264    1
  1603   400   401   ar
  1604   541   540    2
  1605   539   540   ar
  1606   539   537   ar
  1607   521   520    2
  1608   538   537    2
  1609   439   441   ar
  1610   439   438   ar
  1611   549   548    1
  1612   441   442   ar
  1613   410   409    1
  1614   410   414    1
  1615   409   411    1
  1616   540   542   ar
  1617   415   416   ar
  1618   415   414    1
  1619   418   416   ar
  1620   500   499    1
  1621   537   536   ar
  1622   548   545    1
  1623   426   424    1
  1624   438   436   ar
  1625   411   412    1
  1626   411   413    1
  1627   520   519   ar
  1628   520   522   ar
  1629   416   417    2
  1630   414   413    1
  1631   519   517   ar
  1632   442   435   ar
  1633   542   543   ar
  1634   542   544    1
  1635   412   425    1
  1636   499   501   ar
  1637   499   498   ar
  1638   536   543   ar
  1639   536   535    1
  1640   424   425    1
  1641   424   427    1
  1642   534   535    1
  1643   534   532    1
  1644   524   522    1
  1645   545   547    2
  1646   545   546    1
  1647   545   533    1
  1648   501   502   ar
  1649   522   523   ar
  1650   436   435   ar
  1651   436   437    2
  1652   535   531    1
  1653   497   498   ar
  1654   497   496   ar
  1655   435   434    1
  1656   517   518    2
  1657   517   516   ar
  1658   498   504   ar
  1659   427   428    1
  1660   532   533    1
  1661   532   530    1
  1662   502   503   ar
  1663   523   516   ar
  1664   430   434    1
  1665   430   429    1
  1666   516   515    1
  1667   434   433    1
  1668   496   495   ar
  1669   531   530    1
  1670   504   503   ar
  1671   504   495   ar
  1672   428   429    1
  1673   486   484    2
  1674   530   529    1
  1675   429   431    1
  1676   495   494    1
  1677   431   433    1
  1678   431   432    1
  1679   515   514    1
  1680   515   511    1
  1681   507   505    2
  1682   466   465    2
  1683   514   512    1
  1684   528   529    1
  1685   528   525    1
  1686   485   484    1
  1687   484   473    1
  1688   484   487    1
  1689   445   443    2
  1690   469   468    1
  1691   469   470    1
  1692   481   480    1
  1693   527   525    2
  1694   432   443    1
  1695   473   472    1
  1696   467   465    1
  1697   511   510    1
  1698   512   513    1
  1699   512   510    1
  1700   494   490    1
  1701   494   493    1
  1702   494   478    1
  1703   472   470    1
  1704   472   474    1
  1705   480   482    2
  1706   480   479    1
  1707   465   468    1
  1708   465   451    1
  1709   443   444    1
  1710   443   446    1
  1711   482   483    1
  1712   508   505    1
  1713   508   509    1
  1714   488   487    1
  1715   488   489    1
  1716   491   493    1
  1717   491   489    1
  1718   491   492    1
  1719   490   489    1
  1720   525   513    1
  1721   525   526    1
  1722   505   492    1
  1723   505   506    1
  1724   479   477    2
  1725   470   471    1
  1726   483   476    1
  1727   510   509    1
  1728   477   476    1
  1729   477   478    1
  1730   446   447    1
  1731   476   475    1
  1732   474   475    1
  1733   471   475    1
  1734   451   450    1
  1735   459   458    2
  1736   450   452    1
  1737   450   448    1
  1738   447   448    1
  1739   456   457   ar
  1740   456   455   ar
  1741   458   457   ar
  1742   458   460   ar
  1743   457   464   ar
  1744   460   461   ar
  1745   455   454   ar
  1746   452   453    1
  1747   464   454   ar
  1748   464   463   ar
  1749   448   449    1
  1750   454   453    1
  1751   461   463   ar
  1752   461   462    1
  1753   453   449    1
