442530
  RxDock  10142007263D
librxdock.so/0.1.0
 31 33  0  0  0  0  0  0  0  0999 V2000
   -4.6361   10.1217    5.9456 Cl  0  0  0  0  0  0
   -9.3472    9.0563    3.6490 O   0  0  0  0  0  0
   -8.8809    6.0927    6.5731 O   0  0  0  0  0  0
   -9.9113    6.9886    4.3789 O   0  0  0  0  0  0
   -6.1378    6.3755    9.3832 O   0  0  0  0  0  0
   -4.9348    3.7837    9.9167 O   0  0  0  0  0  0
   -6.6155    4.4931   11.2516 O   0  0  0  0  0  0
   -7.2259    4.8060    8.0681 N   0  0  0  0  0  0
   -7.1604    9.9977    4.1305 C   0  0  0  0  0  0
   -8.6407   10.2865    3.9281 C   0  0  0  0  0  0
   -7.0389    8.9904    5.2335 C   0  0  0  0  0  0
   -8.0309    8.0133    5.3824 C   0  0  0  0  0  0
   -7.9249    7.0496    6.3906 C   0  0  0  0  0  0
   -6.8255    7.0626    7.2493 C   0  0  0  0  0  0
   -5.9323    8.9852    6.0896 C   0  0  0  0  0  0
   -9.1783    7.9666    4.4452 C   0  0  0  0  0  0
   -7.1915    3.7282    9.0303 C   0  0  0  0  0  0
   -8.8671   11.2246    2.7510 C   0  0  0  0  0  0
   -5.8298    8.0267    7.0978 C   0  0  0  0  0  0
   -6.7909    2.4052    8.3646 C   0  0  0  0  0  0
   -6.6898    6.0745    8.3117 C   0  0  0  0  0  0
   -7.8793    1.3606    8.4280 C   0  0  0  0  0  0
   -6.2389    4.0438   10.1741 C   0  0  0  0  0  0
   -9.2056    1.7575    8.3673 C   0  0  0  0  0  0
   -7.5319    0.0242    8.5453 C   0  0  0  0  0  0
  -10.2113    0.7925    8.4259 C   0  0  0  0  0  0
   -8.5377   -0.9408    8.6035 C   0  0  0  0  0  0
   -9.8774   -0.5565    8.5439 C   0  0  0  0  0  0
   -7.6943    4.6095    7.1899 H   0  0  0  0  0  0
   -9.5475    6.1384    5.8706 H   0  0  0  0  0  0
   -4.3516    4.0695   10.6518 H   0  0  0  0  0  0
  1 15  1  0  0  0
  2 10  1  0  0  0
  2 16  1  0  0  0
  3 13  1  0  0  0
  3 30  1  0  0  0
  4 16  2  0  0  0
  5 21  2  0  0  0
  6 23  1  0  0  0
  6 31  1  0  0  0
  7 23  2  0  0  0
  8 17  1  0  0  0
  8 21  1  0  0  0
  8 29  1  0  0  0
  9 10  1  0  0  0
  9 11  1  0  0  0
 10 18  1  0  0  0
 11 12  1  0  0  0
 11 15  2  0  0  0
 12 13  2  0  0  0
 12 16  1  0  0  0
 13 14  1  0  0  0
 14 19  2  0  0  0
 14 21  1  0  0  0
 15 19  1  0  0  0
 17 20  1  0  0  0
 17 23  1  0  0  0
 20 22  1  0  0  0
 22 24  2  0  0  0
 22 25  1  0  0  0
 24 26  1  0  0  0
 25 27  2  0  0  0
 26 28  2  0  0  0
 27 28  1  0  0  0
M  END
>  <CHROM.1>
5.76036871,-4.98417879,-135.90993361,-147.37256471,-116.72014539,-82.39942205
33.54655384,-7.45818260,5.91511554,7.03806884,-1.48732942,0.66868559,2.60390468

>  <Name>
442530

>  <PUBCHEM_ATOM_DEF_STEREO_COUNT>
2

>  <PUBCHEM_ATOM_UDEF_STEREO_COUNT>
0

>  <PUBCHEM_BOND_DEF_STEREO_COUNT>
0

>  <PUBCHEM_BOND_UDEF_STEREO_COUNT>
0

>  <PUBCHEM_CACTVS_TAUTO_COUNT>
22

>  <PUBCHEM_COMPONENT_COUNT>
1

>  <PUBCHEM_COMPOUND_CID>
442530

>  <PUBCHEM_CONFORMER_DIVERSEORDER>
1
20
71
82
29
2
63
53
55
50
66
78
19
46
33
52
44
14
77
85
69
67
10
60
65
39
12
35
11
62
75
7
15
25
79
83
28
38
74
37
64
24
54
13
73
61
4
21
27
30
36
80
59
9
84
49
6
81
72
76
68
58
22
5
56
57
3
32
41
34
43
70
8
26
51
45
17
47
42
48
16
23
40
31
18

>  <PUBCHEM_CONFORMER_ID>
0006C0A200000001

>  <PUBCHEM_CONFORMER_RMSD>
0.8

>  <PUBCHEM_COORDINATE_TYPE>
2
5
10

>  <PUBCHEM_EFFECTIVE_ROTOR_COUNT>
6.6

>  <PUBCHEM_FEATURE_SELFOVERLAP>
50.835

>  <PUBCHEM_HEAVY_ATOM_COUNT>
28

>  <PUBCHEM_ISOTOPIC_ATOM_COUNT>
0

>  <PUBCHEM_MMFF94_ENERGY>
81.1182

>  <PUBCHEM_MMFF94_PARTIAL_CHARGES>
36
1 -0.18
10 0.28
11 -0.14
12 0.09
13 0.08
14 0.09
15 0.18
16 0.63
17 0.36
19 -0.15
2 -0.43
20 0.14
21 0.54
22 -0.14
23 0.66
24 -0.15
25 -0.15
26 -0.15
27 -0.15
28 -0.15
3 -0.53
36 0.15
39 0.37
4 -0.57
40 0.45
41 0.15
42 0.15
43 0.15
44 0.15
45 0.15
46 0.5
5 -0.57
6 -0.65
7 -0.57
8 -0.73
9 0.14

>  <PUBCHEM_PHARMACOPHORE_FEATURES>
10
1 3 donor
1 4 acceptor
1 5 acceptor
1 6 acceptor
1 7 acceptor
1 8 donor
3 6 7 23 anion
6 11 12 13 14 15 19 rings
6 2 9 10 11 12 16 rings
6 22 24 25 26 27 28 rings

>  <PUBCHEM_SHAPE_FINGERPRINT>
11828532 37 17749398095981307467
11991303 11 17981051031636813444
12596602 18 15410600510926603111
12730499 353 18341055215371151632
13533116 47 18059856164597339433
13583140 156 18410573955424628630
1361 2 18269550696898232493
13617811 41 17458347416954086167
13911987 19 18056487390088755072
14251757 17 18336263418789752994
14659021 117 16683734585779984630
14848160 33 18129101126319056630
14910302 57 18114460085112041719
15183329 4 17845941736881616601
15324884 4 17758987074463011584
15664445 248 17822300127275080644
15961568 22 17677052485557949972
17818456 19 16771004098669137352
1813 80 15697708229834701987
20645477 70 18272936020575964196
21033650 10 16806172029654931692
21133410 32 16739516401492475698
21285901 2 18260831505423773501
22393880 68 17823970143972594933
22440779 20 17031125537350160744
23557571 272 17894353297591294605
23559900 14 18259993673331608006
23569914 152 17328830251434138391
24771750 20 17319591467453918541
44802255 64 16887565822950369276
46194498 28 18410290289972145396
469060 322 17907842252095834758
59682541 52 18201427053091997943
59755656 215 18408887364875508332
613672 6 17838044906684666982
621550 34 18338513157304466468
6669772 16 18335692871250610578
7399639 24 18338512070809589796
8988823 20 18272091582412914015
9709674 26 18408884018599690260

>  <PUBCHEM_SHAPE_MULTIPOLES>
537.9
12.35
3.95
1.54
10.14
0.29
0.19
-2.46
1.4
-5.8
0.56
0.13
-0.07
3.22

>  <PUBCHEM_SHAPE_SELFOVERLAP>
1157.203

>  <PUBCHEM_SHAPE_VOLUME>
294.5

>  <RI>
0

>  <Rbt.Current_Directory>
/home/fc/tossine/1122/p3/0_clust01

>  <Rbt.Executable>
rbdock/0.1.0

>  <Rbt.Library>
librxdock.so/0.1.0

>  <Rbt.Parameter_File>
/cluster/rxdock/data/scripts/dock.prm

>  <Rbt.Receptor>
rx_0.prm

>  <SCORE>
6.16216

>  <SCORE.INTER>
-0.994153

>  <SCORE.INTER.CONST>
1

>  <SCORE.INTER.POLAR>
-0.905288

>  <SCORE.INTER.REPUL>
1.44159

>  <SCORE.INTER.ROT>
5

>  <SCORE.INTER.VDW>
-15.5241

>  <SCORE.INTER.norm>
-0.0355054

>  <SCORE.INTRA>
4.75158

>  <SCORE.INTRA.DIHEDRAL>
4.39609

>  <SCORE.INTRA.DIHEDRAL.0>
7.69146

>  <SCORE.INTRA.POLAR>
-0.268829

>  <SCORE.INTRA.POLAR.0>
0

>  <SCORE.INTRA.REPUL>
0

>  <SCORE.INTRA.REPUL.0>
0

>  <SCORE.INTRA.VDW>
3.46756

>  <SCORE.INTRA.VDW.0>
-1.94297

>  <SCORE.INTRA.norm>
0.169699

>  <SCORE.RESTR>
2.40473

>  <SCORE.RESTR.CAVITY>
2.40473

>  <SCORE.RESTR.norm>
0.0858832

>  <SCORE.SYSTEM>
0

>  <SCORE.SYSTEM.CONST>
0

>  <SCORE.SYSTEM.DIHEDRAL>
0

>  <SCORE.SYSTEM.norm>
0

>  <SCORE.heavy>
28

>  <SCORE.norm>
0.220077

$$$$
