@<TRIPOS>MOLECULE
dna.pdb
 754 852 0 0 0
SMALL
GASTEIGER

@<TRIPOS>ATOM
      1  O5'      -29.9380    7.0700   -2.0590 O.3     1  DG1        -0.2176
      2  C5'      -30.3420    6.9250   -0.7020 C.3     1  DG1         0.2140
      3  C4'      -30.8480    5.5340   -0.4610 C.3     1  DG1         0.1776
      4  O4'      -32.0430    5.2860   -1.2430 O.3     1  DG1        -0.3326
      5  C3'      -29.8720    4.4610   -0.8680 C.3     1  DG1         0.1559
      6  O3'      -28.9560    4.2610    0.1980 O.3     1  DG1        -0.3138
      7  C2'      -30.7810    3.2670   -1.1350 C.3     1  DG1         0.0865
      8  C1'      -32.0640    3.9400   -1.6580 C.3     1  DG1         0.2094
      9  N9       -32.1050    3.8610   -3.0640 N.ar    1  DG1        -0.2713
     10  C8       -31.8600    4.8980   -3.9310 C.ar    1  DG1         0.1816
     11  N7       -31.9770    4.5590   -5.1860 N.ar    1  DG1        -0.2173
     12  C5       -32.3200    3.2200   -5.1490 C.ar    1  DG1         0.1748
     13  C6       -32.5780    2.3040   -6.2010 C.ar    1  DG1         0.3023
     14  O6       -32.5530    2.5110   -7.4210 O.2     1  DG1        -0.2633
     15  N1       -32.8930    1.0360   -5.7210 N.ar    1  DG1        -0.1709
     16  C2       -32.9510    0.6920   -4.3920 C.ar    1  DG1         0.2606
     17  N2       -33.2720   -0.5810   -4.1240 N.pl3   1  DG1        -0.0859
     18  N3       -32.7130    1.5320   -3.4030 N.ar    1  DG1        -0.1918
     19  C4       -32.4050    2.7700   -3.8460 C.ar    1  DG1         0.1722
     20  P        -27.4620    3.6460   -0.0990 P.3     2  DA2         0.2141
     21  OP1      -27.0480    3.4590    1.3120 O.3     2  DA2        -0.4373
     22  OP2      -26.5090    4.2490   -1.0680 O.2     2  DA2        -0.5172
     23  O5'      -27.9540    2.2490   -0.6950 O.3     2  DA2        -0.3114
     24  C5'      -28.8570    1.4180    0.0390 C.3     2  DA2         0.1811
     25  C4'      -29.1810    0.1530   -0.7320 C.3     2  DA2         0.1746
     26  O4'      -30.0710    0.4490   -1.8430 O.3     2  DA2        -0.3327
     27  C3'      -28.0210   -0.5880   -1.3800 C.3     2  DA2         0.1558
     28  O3'      -27.2800   -1.3990   -0.4810 O.3     2  DA2        -0.3138
     29  C2'      -28.7130   -1.4130   -2.4600 C.3     2  DA2         0.0865
     30  C1'      -29.8290   -0.4660   -2.9000 C.3     2  DA2         0.2094
     31  N9       -29.3260    0.2380   -4.0710 N.ar    2  DA2        -0.2714
     32  C8       -28.5520    1.3580   -4.2230 C.ar    2  DA2         0.1815
     33  N7       -28.2380    1.6190   -5.4700 N.ar    2  DA2        -0.2193
     34  C5       -28.8470    0.6000   -6.1860 C.ar    2  DA2         0.1518
     35  C6       -28.8950    0.3070   -7.5600 C.ar    2  DA2         0.1919
     36  N6       -28.2940    1.0470   -8.4950 N.pl3   2  DA2        -0.1054
     37  N1       -29.5890   -0.7850   -7.9440 N.ar    2  DA2        -0.2040
     38  C2       -30.1920   -1.5250   -7.0060 C.ar    2  DA2         0.2016
     39  N3       -30.2200   -1.3510   -5.6870 N.ar    2  DA2        -0.2048
     40  C4       -29.5200   -0.2580   -5.3380 C.ar    2  DA2         0.1691
     41  P        -25.7670   -1.7390   -0.7600 P.3     3  DT3         0.2141
     42  OP1      -24.9190   -2.3240    0.3020 O.3     3  DT3        -0.4373
     43  OP2      -25.4540   -0.4090   -1.3320 O.2     3  DT3        -0.5172
     44  O5'      -25.7900   -2.7200   -2.0230 O.3     3  DT3        -0.3114
     45  C5'      -26.2460   -4.0580   -1.8860 C.3     3  DT3         0.1811
     46  C4'      -25.9960   -4.8560   -3.1420 C.3     3  DT3         0.1746
     47  O4'      -26.9380   -4.4630   -4.1760 O.3     3  DT3        -0.3327
     48  C3'      -24.6340   -4.6610   -3.7920 C.3     3  DT3         0.1558
     49  O3'      -23.6040   -5.4030   -3.1590 O.3     3  DT3        -0.3138
     50  C2'      -24.9100   -5.0910   -5.2270 C.3     3  DT3         0.0866
     51  C1'      -26.3130   -4.5230   -5.4410 C.3     3  DT3         0.2106
     52  N1       -26.2740   -3.1770   -6.0210 N.ar    3  DT3        -0.2559
     53  C2       -26.1810   -3.0940   -7.3970 C.ar    3  DT3         0.3545
     54  O2       -26.1970   -4.0710   -8.1250 O.2     3  DT3        -0.2443
     55  N3       -26.0660   -1.8180   -7.8960 N.ar    3  DT3        -0.1533
     56  C4       -26.0350   -0.6450   -7.1720 C.ar    3  DT3         0.2804
     57  O4       -25.9290    0.4280   -7.7620 O.2     3  DT3        -0.2654
     58  C5       -26.1360   -0.8150   -5.7500 C.ar    3  DT3         0.0534
     59  C6       -26.2490   -2.0440   -5.2390 C.ar    3  DT3         0.0824
     60  C7       -26.1110    0.4030   -4.8750 C.3     3  DT3         0.0377
     61  P        -21.9820   -4.7580   -2.6350 P.3     4  DC4         0.2141
     62  OP1      -21.4460   -5.6390   -1.5830 O.3     4  DC4        -0.4373
     63  OP2      -21.6340   -3.3090   -2.6160 O.2     4  DC4        -0.5172
     64  O5'      -21.5250   -5.3540   -4.0530 O.3     4  DC4        -0.3114
     65  C5'      -21.4550   -6.7770   -4.2570 C.3     4  DC4         0.1811
     66  C4'      -21.1640   -7.1590   -5.7050 C.3     4  DC4         0.1746
     67  O4'      -22.2850   -6.7560   -6.5420 O.3     4  DC4        -0.3327
     68  C3'      -19.9430   -6.5070   -6.3690 C.3     4  DC4         0.1558
     69  O3'      -18.6780   -7.1560   -6.0860 O.3     4  DC4        -0.3138
     70  C2'      -20.3480   -6.6620   -7.8380 C.3     4  DC4         0.0866
     71  C1'      -21.8070   -6.2150   -7.7720 C.3     4  DC4         0.2106
     72  N1       -21.9120   -4.6920   -7.9070 N.ar    4  DC4        -0.2556
     73  C2       -21.6850   -4.0950   -9.1530 C.ar    4  DC4         0.3531
     74  O2       -21.3080   -4.8090  -10.0980 O.2     4  DC4        -0.2443
     75  N3       -21.8800   -2.7620   -9.2910 N.ar    4  DC4        -0.1739
     76  C4       -22.2840   -2.0350   -8.2480 C.ar    4  DC4         0.1759
     77  N4       -22.4630   -0.7250   -8.4320 N.pl3   4  DC4        -0.1070
     78  C5       -22.5200   -2.6210   -6.9780 C.ar    4  DC4         0.0566
     79  C6       -22.3250   -3.9380   -6.8460 C.ar    4  DC4         0.0849
     80  P        -17.1790   -6.4380   -5.6700 P.3     5  DG5         0.2141
     81  OP1      -16.2770   -7.5870   -5.4170 O.2     5  DG5        -0.5172
     82  OP2      -17.2940   -5.3530   -4.6590 O.3     5  DG5        -0.4373
     83  O5'      -16.7910   -5.7510   -7.0600 O.3     5  DG5        -0.3114
     84  C5'      -16.4280   -6.5460   -8.2120 C.3     5  DG5         0.1811
     85  C4'      -16.1480   -5.6660   -9.4240 C.3     5  DG5         0.1746
     86  O4'      -17.3180   -4.8610   -9.7340 O.3     5  DG5        -0.3327
     87  C3'      -15.0040   -4.6580   -9.3640 C.3     5  DG5         0.1558
     88  O3'      -13.7470   -5.2470   -9.6810 O.3     5  DG5        -0.3138
     89  C2'      -15.3850   -3.6620  -10.4520 C.3     5  DG5         0.0865
     90  C1'      -16.9120   -3.6640  -10.3750 C.3     5  DG5         0.2094
     91  N9       -17.4110   -2.5210   -9.6010 N.ar    5  DG5        -0.2713
     92  C8       -17.8060   -2.4670   -8.2860 C.ar    5  DG5         0.1816
     93  N7       -18.1870   -1.2760   -7.9120 N.ar    5  DG5        -0.2173
     94  C5       -18.0380   -0.4970   -9.0440 C.ar    5  DG5         0.1748
     95  C6       -18.2910    0.8830   -9.2540 C.ar    5  DG5         0.3023
     96  O6       -18.7150    1.7170   -8.4430 O.2     5  DG5        -0.2633
     97  N1       -18.0020    1.2730  -10.5590 N.ar    5  DG5        -0.1709
     98  C2       -17.5270    0.4360  -11.5400 C.ar    5  DG5         0.2606
     99  N2       -17.3090    0.9940  -12.7380 N.pl3   5  DG5        -0.0859
    100  N3       -17.2870   -0.8480  -11.3600 N.ar    5  DG5        -0.1918
    101  C4       -17.5590   -1.2480  -10.1000 C.ar    5  DG5         0.1722
    102  P        -12.1740   -4.4920   -9.3040 P.3     6  DG6         0.2141
    103  OP1      -11.0090   -5.2730   -9.7930 O.2     6  DG6        -0.5172
    104  OP2      -12.2780   -4.1240   -7.8680 O.3     6  DG6        -0.4373
    105  O5'      -12.2770   -3.1520  -10.1900 O.3     6  DG6        -0.3114
    106  C5'      -12.3710   -3.2260  -11.6090 C.3     6  DG6         0.1811
    107  C4'      -12.5570   -1.8480  -12.2160 C.3     6  DG6         0.1746
    108  O4'      -13.7540   -1.2110  -11.7210 O.3     6  DG6        -0.3327
    109  C3'      -11.4840   -0.8460  -11.8510 C.3     6  DG6         0.1558
    110  O3'      -10.3360   -1.0970  -12.6330 O.3     6  DG6        -0.3138
    111  C2'      -12.1610    0.4700  -12.2230 C.3     6  DG6         0.0865
    112  C1'      -13.5880    0.1970  -11.7790 C.3     6  DG6         0.2094
    113  N9       -13.9310    0.7210  -10.4750 N.ar    6  DG6        -0.2713
    114  C8       -14.0510    0.0740   -9.2690 C.ar    6  DG6         0.1816
    115  N7       -14.2860    0.8830   -8.2720 N.ar    6  DG6        -0.2173
    116  C5       -14.3260    2.1380   -8.8510 C.ar    6  DG6         0.1748
    117  C6       -14.5420    3.4140   -8.2720 C.ar    6  DG6         0.3023
    118  O6       -14.7510    3.6910   -7.0840 O.2     6  DG6        -0.2633
    119  N1       -14.5000    4.4310   -9.2220 N.ar    6  DG6        -0.1709
    120  C2       -14.2760    4.2410  -10.5640 C.ar    6  DG6         0.2606
    121  N2       -14.2730    5.3440  -11.3250 N.pl3   6  DG6        -0.0859
    122  N3       -14.0730    3.0610  -11.1170 N.ar    6  DG6        -0.1918
    123  C4       -14.1090    2.0590  -10.2130 C.ar    6  DG6         0.1722
    124  P         -9.0920   -0.7550  -12.0720 P.3     7  DG7         0.2141
    125  OP1       -7.9910   -1.4360  -12.7880 O.2     7  DG7        -0.5172
    126  OP2       -8.8450   -0.1790  -10.7300 O.3     7  DG7        -0.4373
    127  O5'       -9.5810    0.4050  -13.0770 O.3     7  DG7        -0.3114
    128  C5'       -8.6560    1.4770  -13.5400 C.3     7  DG7         0.1811
    129  C4'       -9.2520    2.7300  -13.0030 C.3     7  DG7         0.1746
    130  O4'      -10.2200    2.5780  -11.8750 O.3     7  DG7        -0.3327
    131  C3'       -8.2060    3.4020  -12.1140 C.3     7  DG7         0.1558
    132  O3'       -6.8930    3.6400  -12.6050 O.3     7  DG7        -0.3138
    133  C2'       -9.0070    4.5950  -11.6300 C.3     7  DG7         0.0865
    134  C1'      -10.3790    3.9010  -11.3600 C.3     7  DG7         0.2094
    135  N9       -10.9690    3.6750  -10.2350 N.ar    7  DG7        -0.2713
    136  C8       -11.1010    2.4090   -9.7160 C.ar    7  DG7         0.1816
    137  N7       -11.4790    2.4010   -8.4670 N.ar    7  DG7        -0.2173
    138  C5       -11.6070    3.7380   -8.1390 C.ar    7  DG7         0.1748
    139  C6       -11.9880    4.3560   -6.9200 C.ar    7  DG7         0.3023
    140  O6       -12.2990    3.8160   -5.8510 O.2     7  DG7        -0.2633
    141  N1       -11.9870    5.7450   -7.0190 N.ar    7  DG7        -0.1709
    142  C2       -11.6600    6.4500   -8.1520 C.ar    7  DG7         0.2606
    143  N2       -11.7190    7.7860   -8.0540 N.pl3   7  DG7        -0.0859
    144  N3       -11.3040    5.8900   -9.2910 N.ar    7  DG7        -0.1918
    145  C4       -11.2970    4.5420   -9.2180 C.ar    7  DG7         0.1722
    146  P         -5.5850    3.1000  -11.5500 P.3     8  DT8         0.2141
    147  OP1       -4.2780    2.5860  -12.0190 O.2     8  DT8        -0.5172
    148  OP2       -6.0880    2.7610  -10.1990 O.3     8  DT8        -0.4373
    149  O5'       -5.5840    4.6940  -11.5730 O.3     8  DT8        -0.3114
    150  C5'       -4.5990    5.3430  -10.7970 C.3     8  DT8         0.1811
    151  C4'       -5.1170    6.6120  -10.1810 C.3     8  DT8         0.1746
    152  O4'       -6.5620    6.5930  -10.0570 O.3     8  DT8        -0.3327
    153  C3'       -4.6160    6.8240   -8.7710 C.3     8  DT8         0.1558
    154  O3'       -3.3020    7.3440   -8.7810 O.3     8  DT8        -0.3138
    155  C2'       -5.6740    7.7490   -8.1870 C.3     8  DT8         0.0866
    156  C1'       -6.9390    7.2000   -8.8410 C.3     8  DT8         0.2106
    157  N1        -7.6450    6.1860   -7.9650 N.ar    8  DT8        -0.2559
    158  C2        -8.4180    6.6960   -6.9390 C.ar    8  DT8         0.3545
    159  O2        -8.3770    7.8630   -6.5940 O.2     8  DT8        -0.2443
    160  N3        -9.2440    5.7850   -6.3270 N.ar    8  DT8        -0.1533
    161  C4        -9.3730    4.4460   -6.6310 C.ar    8  DT8         0.2804
    162  O4       -10.1600    3.7530   -5.9910 O.2     8  DT8        -0.2654
    163  C5        -8.5370    3.9930   -7.7070 C.ar    8  DT8         0.0534
    164  C6        -7.7240    4.8570   -8.3190 C.ar    8  DT8         0.0824
    165  C7        -8.6040    2.5510   -8.1130 C.3     8  DT8         0.0377
    166  P         -2.2290    6.7480   -7.8670 P.3     9  DG9         0.2141
    167  OP1       -0.8040    6.8910   -8.2480 O.2     9  DG9        -0.5172
    168  OP2       -2.8620    5.4130   -7.7420 O.3     9  DG9        -0.4373
    169  O5'       -2.4950    7.4350   -6.4480 O.3     9  DG9        -0.3114
    170  C5'       -2.2920    8.8350   -6.3720 C.3     9  DG9         0.1811
    171  C4'       -3.2680    9.5060   -5.4430 C.3     9  DG9         0.1746
    172  O4'       -4.6330    9.0910   -5.7240 O.3     9  DG9        -0.3327
    173  C3'       -3.1030    9.1990   -3.9660 C.3     9  DG9         0.1558
    174  O3'       -2.0150    9.8890   -3.3760 O.3     9  DG9        -0.3138
    175  C2'       -4.4560    9.6250   -3.4130 C.3     9  DG9         0.0865
    176  C1'       -5.4030    9.2010   -4.5400 C.3     9  DG9         0.2094
    177  N9        -5.9680    7.8960   -4.2310 N.ar    9  DG9        -0.2713
    178  C8        -5.7150    6.7090   -4.8740 C.ar    9  DG9         0.1816
    179  N7        -6.3600    5.6970   -4.3600 N.ar    9  DG9        -0.2173
    180  C5        -7.0830    6.2450   -3.3180 C.ar    9  DG9         0.1748
    181  C6        -7.9700    5.6400   -2.3910 C.ar    9  DG9         0.3023
    182  O6        -8.3000    4.4500   -2.3120 O.2     9  DG9        -0.2633
    183  N1        -8.4930    6.5640   -1.4900 N.ar    9  DG9        -0.1709
    184  C2        -8.1980    7.9060   -1.4840 C.ar    9  DG9         0.2606
    185  N2        -8.8010    8.6400   -0.5390 N.pl3   9  DG9        -0.0859
    186  N3        -7.3760    8.4830   -2.3380 N.ar    9  DG9        -0.1918
    187  C4        -6.8550    7.6050   -3.2220 C.ar    9  DG9         0.1722
    188  P         -1.5080    9.4200   -1.7340 P.3    10  DT10        0.2141
    189  OP1       -0.3090   10.2400   -1.4180 O.3    10  DT10       -0.4373
    190  OP2       -1.3390    8.0390   -2.2560 O.2    10  DT10       -0.5172
    191  O5'       -2.4030    9.3510   -0.4200 O.3    10  DT10       -0.3114
    192  C5'       -2.6000   10.5160    0.3970 C.3    10  DT10        0.1811
    193  C4'       -3.5120   10.1950    1.5530 C.3    10  DT10        0.1746
    194  O4'       -4.7860    9.7190    1.0400 O.3    10  DT10       -0.3327
    195  C3'       -3.0730    9.0640    2.4670 C.3    10  DT10        0.1558
    196  O3'       -2.0980    9.4670    3.4160 O.3    10  DT10       -0.3138
    197  C2'       -4.3860    8.6920    3.1350 C.3    10  DT10        0.0866
    198  C1'       -5.3470    8.7880    1.9550 C.3    10  DT10        0.2106
    199  N1        -5.5140    7.5010    1.2750 N.ar   10  DT10       -0.2559
    200  C2        -6.4750    6.6360    1.7630 C.ar   10  DT10        0.3545
    201  O2        -7.1990    6.9100    2.7030 O.2    10  DT10       -0.2443
    202  N3        -6.5570    5.4300    1.1090 N.ar   10  DT10       -0.1533
    203  C4        -5.7920    5.0120    0.0400 C.ar   10  DT10        0.2804
    204  O4        -5.9840    3.8990   -0.4420 O.2    10  DT10       -0.2654
    205  C5        -4.8170    5.9660   -0.4080 C.ar   10  DT10        0.0534
    206  C6        -4.7150    7.1460    0.2100 C.ar   10  DT10        0.0824
    207  C7        -3.9350    5.6040   -1.5660 C.3    10  DT10        0.0377
    208  P         -1.1060    8.2670    4.1560 P.3    11  DG11        0.2141
    209  OP1       -0.0900    9.0480    4.8930 O.3    11  DG11       -0.4373
    210  OP2       -0.6910    7.1190    3.3180 O.2    11  DG11       -0.5172
    211  O5'       -2.1830    7.7590    5.2190 O.3    11  DG11       -0.3114
    212  C5'       -1.7900    6.9080    6.2850 C.3    11  DG11        0.1811
    213  C4'       -3.0460    6.2910    6.8530 C.3    11  DG11        0.1746
    214  O4'       -4.0660    6.3380    5.8280 O.3    11  DG11       -0.3327
    215  C3'       -2.9620    4.8170    7.1830 C.3    11  DG11        0.1558
    216  O3'       -2.3470    4.6530    8.4360 O.3    11  DG11       -0.3138
    217  C2'       -4.4400    4.4650    7.1990 C.3    11  DG11        0.0865
    218  C1'       -4.8540    5.1640    5.9110 C.3    11  DG11        0.2094
    219  N9        -4.4890    4.1690    4.8830 N.ar   11  DG11       -0.2713
    220  C8        -3.8200    4.6210    3.7710 C.ar   11  DG11        0.1816
    221  N7        -3.7310    3.7260    2.8250 N.ar   11  DG11       -0.2173
    222  C5        -4.3800    2.6180    3.3380 C.ar   11  DG11        0.1748
    223  C6        -4.6060    1.3370    2.7730 C.ar   11  DG11        0.3025
    224  O6        -4.2620    0.9190    1.6600 O.2    11  DG11       -0.2633
    225  N1        -5.3090    0.5030    3.6380 N.ar   11  DG11       -0.1685
    226  C2        -5.7410    0.8600    4.8930 C.ar   11  DG11        0.2746
    227  N2        -6.4040   -0.0810    5.5790 N.ar   11  DG11       -0.1050
    228  N3        -5.5370    2.0460    5.4320 N.ar   11  DG11       -0.1895
    229  C4        -4.8560    2.8720    4.6100 C.ar   11  DG11        0.1725
    230  P         -1.0660    4.2850    8.3450 P.3    12  DG12        0.2141
    231  OP1       -0.2440    4.5460    9.5480 O.3    12  DG12       -0.4373
    232  OP2       -0.4300    4.2080    7.0090 O.2    12  DG12       -0.5172
    233  O5'       -1.8170    2.8800    8.4830 O.3    12  DG12       -0.3114
    234  C5'       -2.5260    2.4980    9.6520 C.3    12  DG12        0.1811
    235  C4'       -2.9490    1.0500    9.5730 C.3    12  DG12        0.1746
    236  O4'       -3.7980    0.8400    8.4130 O.3    12  DG12       -0.3327
    237  C3'       -1.8220    0.0370    9.4080 C.3    12  DG12        0.1558
    238  O3'       -1.1880   -0.2660   10.6410 O.3    12  DG12       -0.3138
    239  C2'       -2.5310   -1.1460    8.7500 C.3    12  DG12        0.0865
    240  C1'       -3.5410   -0.4300    7.8500 C.3    12  DG12        0.2094
    241  N9        -3.0510   -0.2720    6.4670 N.ar   12  DG12       -0.2713
    242  C8        -2.3900    0.7240    5.7890 C.ar   12  DG12        0.1816
    243  N7        -1.8950    0.3290    4.6470 N.ar   12  DG12       -0.2173
    244  C5        -2.2500   -1.0040    4.5620 C.ar   12  DG12        0.1748
    245  C6        -1.9930   -1.9650    3.5500 C.ar   12  DG12        0.3023
    246  O6        -1.3760   -1.8130    2.4890 O.2    12  DG12       -0.2633
    247  N1        -2.5340   -3.2090    3.8640 N.ar   12  DG12       -0.1709
    248  C2        -3.2360   -3.4920    5.0110 C.ar   12  DG12        0.2606
    249  N2        -3.6810   -4.7490    5.1360 N.pl3  12  DG12       -0.0859
    250  N3        -3.4820   -2.6100    5.9600 N.ar   12  DG12       -0.1918
    251  C4        -2.9660   -1.3950    5.6770 C.ar   12  DG12        0.1722
    252  P          0.1560   -1.0880   10.8160 P.3    13  DG13        0.2141
    253  OP1        0.6690   -1.2690   12.1890 O.3    13  DG13       -0.4373
    254  OP2        1.0060   -0.4090    9.8080 O.2    13  DG13       -0.5172
    255  O5'       -0.2440   -2.5120   10.2390 O.3    13  DG13       -0.3114
    256  C5'       -1.3590   -3.2190   10.7850 C.3    13  DG13        0.1811
    257  C4'       -1.5690   -4.5090   10.0440 C.3    13  DG13        0.1746
    258  O4'       -2.0460   -4.2560    8.6970 O.3    13  DG13       -0.3327
    259  C3'       -0.3160   -5.3290    9.8340 C.3    13  DG13        0.1558
    260  O3'        0.0160   -6.0370   11.0200 O.3    13  DG13       -0.3138
    261  C2'       -0.7400   -6.2340    8.6840 C.3    13  DG13        0.0865
    262  C1'       -1.5520   -5.2610    7.8260 C.3    13  DG13        0.2094
    263  N9        -0.8460   -4.6370    6.8340 N.ar   13  DG13       -0.2713
    264  C8        -0.2480   -3.4040    6.9340 C.ar   13  DG13        0.1816
    265  N7         0.4380   -3.0770    5.8730 N.ar   13  DG13       -0.2173
    266  C5         0.2850   -4.1540    5.0200 C.ar   13  DG13        0.1748
    267  C6         0.7990   -4.3800    3.7170 C.ar   13  DG13        0.3023
    268  O6         1.5200   -3.6370    3.0390 O.2    13  DG13       -0.2633
    269  N1         0.4000   -5.6120    3.2060 N.ar   13  DG13       -0.1709
    270  C2        -0.3970   -6.5140    3.8680 C.ar   13  DG13        0.2606
    271  N2        -0.6770   -7.6490    3.2130 N.pl3  13  DG13       -0.0859
    272  N3        -0.8820   -6.3190    5.0790 N.ar   13  DG13       -0.1918
    273  C4        -0.5060   -5.1290    5.5950 C.ar   13  DG13        0.1722
    274  P          1.4830   -6.8360   10.9970 P.3    14  DT14        0.2141
    275  OP1        1.7770   -7.3290   12.3620 O.3    14  DT14       -0.4373
    276  OP2        1.9300   -5.4780   10.6000 O.2    14  DT14       -0.5172
    277  O5'        2.0690   -7.8850    9.9600 O.3    14  DT14       -0.3114
    278  C5'        1.6640   -9.2490   10.0100 C.3    14  DT14        0.1811
    279  C4'        2.0980   -9.9650    8.7590 C.3    14  DT14        0.1746
    280  O4'        1.5040   -9.3230    7.6000 O.3    14  DT14       -0.3327
    281  C3'        3.5830   -9.9370    8.4490 C.3    14  DT14        0.1558
    282  O3'        4.2940  -10.9090    9.1980 O.3    14  DT14       -0.3138
    283  C2'        3.5910  -10.2610    6.9640 C.3    14  DT14        0.0866
    284  C1'        2.3630   -9.4860    6.4840 C.3    14  DT14        0.2106
    285  N1         2.6970   -8.1900    5.9300 N.ar   14  DT14       -0.2559
    286  C2         3.0890   -8.1040    4.6080 C.ar   14  DT14        0.3545
    287  O2         3.1380   -9.0680    3.8650 O.2    14  DT14       -0.2443
    288  N3         3.4250   -6.8410    4.1830 N.ar   14  DT14       -0.1533
    289  C4         3.4090   -5.6820    4.9310 C.ar   14  DT14        0.2804
    290  O4         3.7380   -4.6200    4.4080 O.2    14  DT14       -0.2654
    291  C5         2.9920   -5.8540    6.2940 C.ar   14  DT14        0.0534
    292  C6         2.6590   -7.0710    6.7330 C.ar   14  DT14        0.0824
    293  C7         2.9420   -4.6520    7.1900 C.3    14  DT14        0.0377
    294  P          5.8530  -10.9250    9.1170 P.3    15  DG15        0.2141
    295  OP1        6.5310  -11.5590   10.2740 O.3    15  DG15       -0.4373
    296  OP2        6.1330   -9.5020    8.7990 O.2    15  DG15       -0.5172
    297  O5'        6.1770  -11.7690    7.8140 O.3    15  DG15       -0.3114
    298  C5'        7.3930  -11.5710    7.1720 C.3    15  DG15        0.1811
    299  C4'        7.3160  -11.9640    5.7350 C.3    15  DG15        0.1746
    300  O4'        6.2690  -11.2500    5.0410 O.3    15  DG15       -0.3327
    301  C3'        8.5830  -11.4780    5.0890 C.3    15  DG15        0.1558
    302  O3'        9.6270  -12.3750    5.3850 O.3    15  DG15       -0.3138
    303  C2'        8.1900  -11.2650    3.6420 C.3    15  DG15        0.0865
    304  C1'        6.7690  -10.7290    3.8120 C.3    15  DG15        0.2094
    305  N9         6.7150   -9.4230    3.7890 N.ar   15  DG15       -0.2713
    306  C8         6.5780   -8.7070    4.9530 C.ar   15  DG15        0.1816
    307  N7         6.5610   -7.4160    4.7660 N.ar   15  DG15       -0.2173
    308  C5         6.6930   -7.2660    3.3980 C.ar   15  DG15        0.1748
    309  C6         6.7430   -6.0960    2.5970 C.ar   15  DG15        0.3023
    310  O6         6.6760   -4.9150    2.9620 O.2    15  DG15       -0.2633
    311  N1         6.8870   -6.3950    1.2460 N.ar   15  DG15       -0.1709
    312  C2         6.9720   -7.6660    0.7280 C.ar   15  DG15        0.2606
    313  N2         7.1060   -7.7540   -0.6020 N.pl3  15  DG15       -0.0859
    314  N3         6.9280   -8.7620    1.4590 N.ar   15  DG15       -0.1918
    315  C4         6.7900   -8.4960    2.7750 C.ar   15  DG15        0.1722
    316  P         10.8890  -11.8240    6.5750 P.3    16  DG16        0.2141
    317  OP1       11.5950  -12.8970    7.3120 O.3    16  DG16       -0.4373
    318  OP2       10.7830  -10.4680    7.1580 O.2    16  DG16       -0.5172
    319  O5'       11.5300  -11.7200    5.1130 O.3    16  DG16       -0.3114
    320  C5'       11.5940  -12.8770    4.2950 C.3    16  DG16        0.1811
    321  C4'       11.2000  -12.5480    2.8680 C.3    16  DG16        0.1746
    322  O4'        9.9210  -11.8570    2.8200 O.3    16  DG16       -0.3327
    323  C3'       12.0850  -11.5460    2.1540 C.3    16  DG16        0.1558
    324  O3'       13.3740  -12.0760    1.8630 O.3    16  DG16       -0.3138
    325  C2'       11.2020  -11.2760    0.9340 C.3    16  DG16        0.0865
    326  C1'        9.8890  -11.0240    1.6670 C.3    16  DG16        0.2094
    327  N9         9.8050   -9.6780    2.0130 N.ar   16  DG16       -0.2713
    328  C8         9.9050   -9.2420    3.3120 C.ar   16  DG16        0.1816
    329  N7         9.7330   -7.9550    3.4380 N.ar   16  DG16       -0.2173
    330  C5         9.5040   -7.5110    2.1490 C.ar   16  DG16        0.1748
    331  C6         9.2520   -6.2070    1.6530 C.ar   16  DG16        0.3023
    332  O6         9.1800   -5.1470    2.2870 O.2    16  DG16       -0.2633
    333  N1         9.0760   -6.2000    0.2720 N.ar   16  DG16       -0.1709
    334  C2         9.1350   -7.3130   -0.5320 C.ar   16  DG16        0.2606
    335  N2         8.9380   -7.1080   -1.8410 N.pl3  16  DG16       -0.0859
    336  N3         9.3690   -8.5320   -0.0850 N.ar   16  DG16       -0.1918
    337  C4         9.5440   -8.5620    1.2530 C.ar   16  DG16        0.1722
    338  P         14.6810  -11.0810    1.8630 P.3    17  DC17        0.2141
    339  OP1       15.3220  -12.4220    1.7540 O.2    17  DC17       -0.5172
    340  OP2       15.2300  -10.0800    2.8150 O.3    17  DC17       -0.4373
    341  O5'       14.6660  -10.3780    0.4370 O.3    17  DC17       -0.3114
    342  C5'       14.4130  -11.1080   -0.7710 C.3    17  DC17        0.1811
    343  C4'       14.4180  -10.1630   -1.9440 C.3    17  DC17        0.1746
    344  O4'       13.2310   -9.3320   -1.9030 O.3    17  DC17       -0.3327
    345  C3'       15.5550   -9.1530   -1.8950 C.3    17  DC17        0.1558
    346  O3'       16.7410   -9.7000   -2.4250 O.3    17  DC17       -0.3138
    347  C2'       15.0100   -7.9940   -2.7050 C.3    17  DC17        0.0866
    348  C1'       13.5530   -7.9930   -2.2660 C.3    17  DC17        0.2106
    349  N1        13.3780   -7.0570   -1.0470 N.ar   17  DC17       -0.2556
    350  C2        12.8590   -5.7900   -1.3390 C.ar   17  DC17        0.3531
    351  O2        12.6330   -5.4960   -2.5250 O.2    17  DC17       -0.2443
    352  N3        12.6220   -4.9250   -0.3250 N.ar   17  DC17       -0.1739
    353  C4        12.8820   -5.2840    0.9330 C.ar   17  DC17        0.1759
    354  N4        12.6310   -4.3980    1.9000 N.pl3  17  DC17       -0.1070
    355  C5        13.4080   -6.5630    1.2500 C.ar   17  DC17        0.0566
    356  C6        13.6410   -7.4140    0.2450 C.ar   17  DC17        0.0849
    357  P         17.9060   -9.1430   -2.0430 P.3    18  DG18        0.2141
    358  OP1       18.7870  -10.1430   -2.6920 O.2    18  DG18       -0.5172
    359  OP2       17.9050   -8.9890   -0.5720 O.3    18  DG18       -0.4373
    360  O5'       18.0710   -7.7510   -2.8190 O.3    18  DG18       -0.3114
    361  C5'       17.9310   -7.7060   -4.2560 C.3    18  DG18        0.1811
    362  C4'       17.7550   -6.2840   -4.7490 C.3    18  DG18        0.1746
    363  O4'       16.4700   -5.7840   -4.2990 O.3    18  DG18       -0.3327
    364  C3'       18.7600   -5.2740   -4.1980 C.3    18  DG18        0.1558
    365  O3'       19.9470   -5.2730   -4.9820 O.3    18  DG18       -0.3138
    366  C2'       18.0120   -3.9530   -4.3360 C.3    18  DG18        0.0865
    367  C1'       16.5820   -4.3920   -4.0290 C.3    18  DG18        0.2094
    368  N9        16.2190   -4.1510   -2.6070 N.ar   18  DG18       -0.2713
    369  C8        16.3320   -5.0090   -1.5390 C.ar   18  DG18        0.1816
    370  N7        16.0080   -4.4580   -0.4010 N.ar   18  DG18       -0.2173
    371  C5        15.6590   -3.1630   -0.7330 C.ar   18  DG18        0.1748
    372  C6        15.2220   -2.0870    0.0820 C.ar   18  DG18        0.3023
    373  O6        15.0510   -2.0740    1.3070 O.2    18  DG18       -0.2633
    374  N1        14.9750   -0.9370   -0.6630 N.ar   18  DG18       -0.1709
    375  C2        15.1300   -0.8360   -2.0250 C.ar   18  DG18        0.2606
    376  N2        14.8410    0.3560   -2.5650 N.pl3  18  DG18       -0.0859
    377  N3        15.5360   -1.8260   -2.7940 N.ar   18  DG18       -0.1918
    378  C4        15.7830   -2.9530   -2.0930 C.ar   18  DG18        0.1722
    379  P         21.2790   -4.7310   -4.3710 P.3    19  DT19        0.2141
    380  OP1       22.3620   -5.6020   -4.8810 O.2    19  DT19       -0.5172
    381  OP2       21.4240   -4.0470   -3.0660 O.3    19  DT19       -0.4373
    382  O5'       20.9750   -3.5530   -5.4090 O.3    19  DT19       -0.3114
    383  C5'       21.6700   -2.3360   -5.2220 C.3    19  DT19        0.1811
    384  C4'       20.8020   -1.1290   -5.4520 C.3    19  DT19        0.1746
    385  O4'       19.4600   -1.3410   -4.9440 O.3    19  DT19       -0.3327
    386  C3'       21.2420    0.1070   -4.6930 C.3    19  DT19        0.1558
    387  O3'       22.4140    0.7120   -5.2020 O.3    19  DT19       -0.3138
    388  C2'       19.9850    0.9580   -4.7370 C.3    19  DT19        0.0866
    389  C1'       18.9660   -0.1280   -4.4040 C.3    19  DT19        0.2106
    390  N1        18.7500   -0.2830   -2.7860 N.ar   19  DT19       -0.2559
    391  C2        18.0160    0.6930   -2.1380 C.ar   19  DT19        0.3545
    392  O2        17.7460    1.7670   -2.6460 O.2    19  DT19       -0.2443
    393  N3        17.6090    0.3670   -0.8670 N.ar   19  DT19       -0.1533
    394  C4        17.8560   -0.8110   -0.1940 C.ar   19  DT19        0.2804
    395  O4        17.4230   -0.9590    0.9460 O.2    19  DT19       -0.2654
    396  C5        18.6240   -1.7740   -0.9320 C.ar   19  DT19        0.0534
    397  C6        19.0330   -1.4820   -2.1700 C.ar   19  DT19        0.0824
    398  C7        18.9460   -3.0880   -0.2850 C.3    19  DT19        0.0377
    399  P         23.8540    0.4530   -4.1990 P.3    20  DA20        0.2141
    400  OP1       24.5800   -0.5710   -4.9820 O.2    20  DA20       -0.5172
    401  OP2       23.9850    0.5000   -2.7250 O.3    20  DA20       -0.4373
    402  O5'       24.3000    1.9100   -4.6890 O.3    20  DA20       -0.3114
    403  C5'       23.3570    2.9720   -4.6240 C.3    20  DA20        0.1811
    404  C4'       23.7560    4.0510   -3.6490 C.3    20  DA20        0.1746
    405  O4'       22.5330    4.7630   -3.3240 O.3    20  DA20       -0.3327
    406  C3'       24.3560    3.5600   -2.3280 C.3    20  DA20        0.1558
    407  O3'       25.6690    4.0460   -2.0670 O.3    20  DA20       -0.3138
    408  C2'       23.4340    4.0700   -1.2270 C.3    20  DA20        0.0865
    409  C1'       22.2900    4.7820   -1.9330 C.3    20  DA20        0.2094
    410  N9        21.0370    4.0250   -1.6200 N.ar   20  DA20       -0.2714
    411  C8        20.6360    2.7370   -1.8610 C.ar   20  DA20        0.1815
    412  N7        19.6930    2.3160   -1.0520 N.ar   20  DA20       -0.2191
    413  C5        19.4580    3.4020   -0.2230 C.ar   20  DA20        0.1544
    414  C6        18.5710    3.5990    0.8490 C.ar   20  DA20        0.2045
    415  N6        17.7190    2.6680    1.2850 N.2    20  DA20       -0.1388
    416  N1        18.5890    4.8000    1.4650 N.ar   20  DA20       -0.2017
    417  C2        19.4420    5.7330    1.0270 C.ar   20  DA20        0.2017
    418  N3        20.3220    5.6670    0.0300 N.ar   20  DA20       -0.2048
    419  C4        20.2800    4.4610   -0.5600 C.ar   20  DA20        0.1693
    420  P         26.9840    3.1350   -0.6450 P.3    21  DA21        0.2141
    421  OP1       28.4180    3.4820   -0.7950 O.2    21  DA21       -0.5172
    422  OP2       26.5470    1.7190   -0.7540 O.3    21  DA21       -0.4373
    423  O5'       26.5180    3.6630    0.7790 O.3    21  DA21       -0.3114
    424  C5'       27.0490    4.8590    1.3330 C.3    21  DA21        0.1811
    425  C4'       26.4160    5.1070    2.6690 C.3    21  DA21        0.1746
    426  O4'       24.9930    5.2610    2.4650 O.3    21  DA21       -0.3327
    427  C3'       26.5320    3.9400    3.6360 C.3    21  DA21        0.1558
    428  O3'       27.7540    4.0550    4.3650 O.3    21  DA21       -0.3138
    429  C2'       25.3200    4.1410    4.5360 C.3    21  DA21        0.0865
    430  C1'       24.2890    4.6840    3.5460 C.3    21  DA21        0.2094
    431  N9        23.3470    3.7160    3.0320 N.ar   21  DA21       -0.2714
    432  C8        23.4260    3.0060    1.8620 C.ar   21  DA21        0.1815
    433  N7        22.3990    2.2180    1.6500 N.ar   21  DA21       -0.2193
    434  C5        21.5900    2.4230    2.7570 C.ar   21  DA21        0.1518
    435  C6        20.3480    1.8820    3.1340 C.ar   21  DA21        0.1919
    436  N6        19.6790    0.9870    2.4040 N.pl3  21  DA21       -0.1054
    437  N1        19.8120    2.2980    4.3010 N.ar   21  DA21       -0.2040
    438  C2        20.4830    3.1960    5.0320 C.ar   21  DA21        0.2016
    439  N3        21.6540    3.7770    4.7830 N.ar   21  DA21       -0.2048
    440  C4        22.1610    3.3420    3.6170 C.ar   21  DA21        0.1691
    441  P         28.6310    2.8280    5.1110 P.3    22  DA22        0.2141
    442  OP1       30.1000    2.5970    5.0940 O.3    22  DA22       -0.4373
    443  OP2       27.7080    1.6710    4.9900 O.2    22  DA22       -0.5172
    444  O5'       28.2870    3.6080    6.4580 O.3    22  DA22       -0.3114
    445  C5'       28.9840    3.2990    7.6660 C.3    22  DA22        0.1811
    446  C4'       28.2220    3.8030    8.8730 C.3    22  DA22        0.1746
    447  O4'       28.0660    5.2430    8.7850 O.3    22  DA22       -0.3327
    448  C3'       26.8010    3.2690    8.9930 C.3    22  DA22        0.1558
    449  O3'       26.8690    2.0460    9.7300 O.3    22  DA22       -0.3138
    450  C2'       26.1010    4.3470    9.8210 C.3    22  DA22        0.0865
    451  C1'       26.8350    5.6150    9.3760 C.3    22  DA22        0.2094
    452  N9        26.3570    6.6200    8.3030 N.ar   22  DA22       -0.2714
    453  C8        26.7400    6.8430    7.0060 C.ar   22  DA22        0.1815
    454  N7        25.9390    7.6480    6.3490 N.ar   22  DA22       -0.2193
    455  C5        24.9630    7.9750    7.2770 C.ar   22  DA22        0.1518
    456  C6        23.8240    8.7950    7.2030 C.ar   22  DA22        0.1919
    457  N6        23.4640    9.4630    6.1040 N.pl3  22  DA22       -0.1054
    458  N1        23.0590    8.9070    8.3090 N.ar   22  DA22       -0.2040
    459  C2        23.4200    8.2380    9.4100 C.ar   22  DA22        0.2016
    460  N3        24.4670    7.4390    9.6030 N.ar   22  DA22       -0.2048
    461  C4        25.2070    7.3480    8.4850 C.ar   22  DA22        0.1691
    462  P         25.5510    0.8200    9.5120 P.3    23  DG23        0.2141
    463  OP1       25.4040   -0.2820   10.4880 O.3    23  DG23       -0.4373
    464  OP2       25.4120    0.5570    8.0640 O.2    23  DG23       -0.5172
    465  O5'       24.5240    1.9750    9.9190 O.3    23  DG23       -0.3114
    466  C5'       23.9890    2.0500   11.2350 C.3    23  DG23        0.1811
    467  C4'       23.3040    3.3900   11.4480 C.3    23  DG23        0.1746
    468  O4'       24.0100    4.4330   10.7280 O.3    23  DG23       -0.3327
    469  C3'       21.8830    3.4940   10.9180 C.3    23  DG23        0.1558
    470  O3'       20.9670    2.9150   11.8340 O.3    23  DG23       -0.3138
    471  C2'       21.7280    5.0060   10.8550 C.3    23  DG23        0.0865
    472  C1'       23.0840    5.4110   10.2860 C.3    23  DG23        0.2094
    473  N9        23.1090    5.4670    8.8070 N.ar   23  DG23       -0.2713
    474  C8        23.8860    4.6700    8.0000 C.ar   23  DG23        0.1816
    475  N7        23.8500    5.0200    6.7430 N.ar   23  DG23       -0.2173
    476  C5        23.0030    6.1120    6.7150 C.ar   23  DG23        0.1748
    477  C6        22.5740    6.9190    5.6300 C.ar   23  DG23        0.3023
    478  O6        22.8760    6.8190    4.4340 O.2    23  DG23       -0.2633
    479  N1        21.7070    7.9280    6.0430 N.ar   23  DG23       -0.1709
    480  C2        21.3040    8.1330    7.3400 C.ar   23  DG23        0.2606
    481  N2        20.4650    9.1580    7.5430 N.pl3  23  DG23       -0.0859
    482  N3        21.6930    7.3910    8.3580 N.ar   23  DG23       -0.1918
    483  C4        22.5340    6.4040    7.9810 C.ar   23  DG23        0.1722
    484  P         19.8020    2.3060   11.3350 P.3    24  DG24        0.2141
    485  OP1       18.9900    1.8890   12.5180 O.3    24  DG24       -0.4373
    486  OP2       19.9830    1.3640   10.1860 O.2    24  DG24       -0.5172
    487  O5'       19.2440    3.7190   10.8270 O.3    24  DG24       -0.3114
    488  C5'       18.9130    4.7370   11.7780 C.3    24  DG24        0.1811
    489  C4'       18.2960    5.9530   11.1190 C.3    24  DG24        0.1746
    490  O4'       19.2800    6.6020   10.2770 O.3    24  DG24       -0.3327
    491  C3'       17.0790    5.7740   10.2200 C.3    24  DG24        0.1558
    492  O3'       15.8610    5.6380   10.9470 O.3    24  DG24       -0.3138
    493  C2'       17.1250    7.0460    9.3780 C.3    24  DG24        0.0865
    494  C1'       18.6290    7.2260    9.1840 C.3    24  DG24        0.2094
    495  N9        19.0880    6.5520    7.9060 N.ar   24  DG24       -0.2713
    496  C8        19.8150    5.3960    7.7470 C.ar   24  DG24        0.1816
    497  N7        20.0230    5.0870    6.4960 N.ar   24  DG24       -0.2173
    498  C5        19.4020    6.0960    5.7850 C.ar   24  DG24        0.1748
    499  C6        19.2870    6.3040    4.3860 C.ar   24  DG24        0.3023
    500  O6        19.7340    5.6050    3.4680 O.2    24  DG24       -0.2633
    501  N1        18.5680    7.4590    4.0890 N.ar   24  DG24       -0.1709
    502  C2        18.0260    8.3080    5.0240 C.ar   24  DG24        0.2606
    503  N2        17.3680    9.3720    4.5440 N.pl3  24  DG24       -0.0859
    504  N3        18.1240    8.1280    6.3260 N.ar   24  DG24       -0.1918
    505  C4        18.8170    7.0120    6.6380 C.ar   24  DG24        0.1722
    506  P         14.4120    5.1750   10.1010 P.3    25  DG25        0.2141
    507  OP1       13.3270    5.6870   10.9780 O.3    25  DG25       -0.4373
    508  OP2       14.5430    3.7130    9.8750 O.2    25  DG25       -0.5172
    509  O5'       14.2660    5.8990    8.6910 O.3    25  DG25       -0.3114
    510  C5'       13.9780    7.2890    8.6160 C.3    25  DG25        0.1811
    511  C4'       13.8340    7.7220    7.1780 C.3    25  DG25        0.1746
    512  O4'       15.1120    7.5780    6.4980 O.3    25  DG25       -0.3327
    513  C3'       12.8690    6.9160    6.3160 C.3    25  DG25        0.1558
    514  O3'       11.5240    7.3390    6.4800 O.3    25  DG25       -0.3138
    515  C2'       13.3720    7.2560    4.9260 C.3    25  DG25        0.0865
    516  C1'       14.8860    7.2080    5.1470 C.3    25  DG25        0.2094
    517  N9        15.4520    5.8790    4.9440 N.ar   25  DG25       -0.2713
    518  C8        15.8020    4.9680    5.9120 C.ar   25  DG25        0.1816
    519  N7        16.3500    3.8870    5.4270 N.ar   25  DG25       -0.2173
    520  C5        16.3660    4.0930    4.0610 C.ar   25  DG25        0.1748
    521  C6        16.8390    3.2670    3.0080 C.ar   25  DG25        0.3035
    522  O6        17.3580    2.1470    3.0870 O.2    25  DG25       -0.2633
    523  N1        16.6620    3.8610    1.7610 N.ar   25  DG25       -0.1582
    524  C2        16.0990    5.0980    1.5540 C.ar   25  DG25        0.2617
    525  N2        16.0140    5.5020    0.2800 N.pl3  25  DG25       -0.0859
    526  N3        15.6550    5.8760    2.5220 N.ar   25  DG25       -0.1918
    527  C4        15.8160    5.3190    3.7410 C.ar   25  DG25        0.1722
    528  P         10.2500    6.3740    5.7680 P.3    26  DA26        0.2141
    529  OP1        8.9700    7.0710    6.0140 O.2    26  DA26       -0.5172
    530  OP2       10.5200    5.0670    6.4310 O.3    26  DA26       -0.4373
    531  O5'       10.4040    6.1630    4.1950 O.3    26  DA26       -0.3114
    532  C5'        9.9670    7.1660    3.2790 C.3    26  DA26        0.1811
    533  C4'       10.5640    6.9400    1.9060 C.3    26  DA26        0.1746
    534  O4'       11.9520    6.5260    2.0400 O.3    26  DA26       -0.3327
    535  C3'        9.9750    5.8510    1.0230 C.3    26  DA26        0.1558
    536  O3'        8.7770    6.2860    0.3790 O.3    26  DA26       -0.3138
    537  C2'       11.0940    5.6720    0.0080 C.3    26  DA26        0.0865
    538  C1'       12.3230    5.7560    0.9110 C.3    26  DA26        0.2094
    539  N9        12.7720    4.3460    1.4370 N.ar   26  DA26       -0.2714
    540  C8        12.6250    3.8030    2.6860 C.ar   26  DA26        0.1815
    541  N7        13.2770    2.6780    2.8550 N.ar   26  DA26       -0.2193
    542  C5        13.8950    2.4660    1.6320 C.ar   26  DA26        0.1518
    543  C6        14.7360    1.4420    1.1610 C.ar   26  DA26        0.1919
    544  N6        15.1130    0.3970    1.9010 N.pl3  26  DA26       -0.1054
    545  N1        15.1800    1.5310   -0.1100 N.ar   26  DA26       -0.2040
    546  C2        14.8010    2.5790   -0.8510 C.ar   26  DA26        0.2016
    547  N3        14.0170    3.6030   -0.5200 N.ar   26  DA26       -0.2048
    548  C4        13.5920    3.4850    0.7480 C.ar   26  DA26        0.1691
    549  P          7.7940    5.2820   -0.1180 P.3    27  DG27        0.2141
    550  OP1        6.6880    6.1090   -0.6500 O.2    27  DG27       -0.5172
    551  OP2        7.6240    4.5440    1.1540 O.3    27  DG27       -0.4373
    552  O5'        8.2180    4.2610   -1.2750 O.3    27  DG27       -0.3114
    553  C5'        8.1130    4.7080   -2.6200 C.3    27  DG27        0.1811
    554  C4'        8.8970    3.8440   -3.5900 C.3    27  DG27        0.1746
    555  O4'       10.2290    3.6220   -3.0620 O.3    27  DG27       -0.3327
    556  C3'        8.3240    2.4600   -3.8710 C.3    27  DG27        0.1558
    557  O3'        7.4380    2.5280   -4.9810 O.3    27  DG27       -0.3138
    558  C2'        9.5810    1.6790   -4.2350 C.3    27  DG27        0.0865
    559  C1'       10.6390    2.2950   -3.3280 C.3    27  DG27        0.2094
    560  N9        10.8840    1.6670   -2.0810 N.ar   27  DG27       -0.2713
    561  C8        10.7230    2.1880   -0.8210 C.ar   27  DG27        0.1816
    562  N7        10.9840    1.3320    0.1290 N.ar   27  DG27       -0.2173
    563  C5        11.3410    0.1760   -0.5400 C.ar   27  DG27        0.1748
    564  C6        11.7290   -1.0960   -0.0450 C.ar   27  DG27        0.3023
    565  O6        11.8360   -1.4580    1.1330 O.2    27  DG27       -0.2633
    566  N1        12.0060   -1.9930   -1.0730 N.ar   27  DG27       -0.1709
    567  C2        11.9200   -1.7000   -2.4130 C.ar   27  DG27        0.2606
    568  N2        12.2280   -2.6960   -3.2560 N.pl3  27  DG27       -0.0859
    569  N3        11.5610   -0.5240   -2.8880 N.ar   27  DG27       -0.1918
    570  C4        11.2860    0.3620   -1.9080 C.ar   27  DG27        0.1722
    571  P          6.3430    1.2920   -5.2830 P.3    28  DC28        0.2141
    572  OP1        5.5350    1.5600   -6.4970 O.2    28  DC28       -0.5172
    573  OP2        5.7080    1.4420   -3.9500 O.3    28  DC28       -0.4373
    574  O5'        6.8830   -0.1900   -5.4160 O.3    28  DC28       -0.3114
    575  C5'        7.5250   -0.6150   -6.6060 C.3    28  DC28        0.1811
    576  C4'        7.7310   -2.1000   -6.5680 C.3    28  DC28        0.1746
    577  O4'        8.7830   -2.4020   -5.6160 O.3    28  DC28       -0.3327
    578  C3'        6.4970   -2.8830   -6.1240 C.3    28  DC28        0.1558
    579  O3'        5.7140   -3.2720   -7.2570 O.3    28  DC28       -0.3138
    580  C2'        7.1110   -4.0850   -5.4210 C.3    28  DC28        0.0866
    581  C1'        8.3960   -3.4930   -4.8100 C.3    28  DC28        0.2106
    582  N1         8.3560   -3.0780   -3.4130 N.ar   28  DC28       -0.2556
    583  C2         8.4460   -4.0990   -2.4600 C.ar   28  DC28        0.3531
    584  O2         8.7380   -5.2460   -2.8380 O.2    28  DC28       -0.2443
    585  N3         8.2120   -3.8090   -1.1580 N.ar   28  DC28       -0.1739
    586  C4         7.9010   -2.5630   -0.7970 C.ar   28  DC28        0.1759
    587  N4         7.6790   -2.3240    0.4970 N.pl3  28  DC28       -0.1070
    588  C5         7.8050   -1.5140   -1.7480 C.ar   28  DC28        0.0566
    589  C6         8.0370   -1.8050   -3.0320 C.ar   28  DC28        0.0849
    590  P          4.1250   -3.4430   -7.1650 P.3    29  DA29        0.2141
    591  OP1        3.4150   -3.5480   -8.4770 O.2    29  DA29       -0.5172
    592  OP2        3.6960   -2.4270   -6.1520 O.3    29  DA29       -0.4373
    593  O5'        4.2360   -4.8830   -6.4790 O.3    29  DA29       -0.3114
    594  C5'        4.7480   -6.0140   -7.1970 C.3    29  DA29        0.1811
    595  C4'        4.7260   -7.2620   -6.3300 C.3    29  DA29        0.1746
    596  O4'        5.6710   -7.1200   -5.2280 O.3    29  DA29       -0.3327
    597  C3'        3.4100   -7.5410   -5.6260 C.3    29  DA29        0.1558
    598  O3'        2.4120   -8.1220   -6.4400 O.3    29  DA29       -0.3138
    599  C2'        3.8220   -8.3830   -4.4240 C.3    29  DA29        0.0865
    600  C1'        5.1560   -7.7440   -4.0480 C.3    29  DA29        0.2094
    601  N9         4.9940   -6.7290   -3.0440 N.ar   29  DA29       -0.2714
    602  C8         5.0040   -5.3650   -3.1720 C.ar   29  DA29        0.1815
    603  N7         4.7550   -4.7260   -2.0530 N.ar   29  DA29       -0.2193
    604  C5         4.5680   -5.7410   -1.1270 C.ar   29  DA29        0.1518
    605  C6         4.2720   -5.7240    0.2470 C.ar   29  DA29        0.1919
    606  N6         4.1080   -4.6030    0.9540 N.pl3  29  DA29       -0.1054
    607  N1         4.1500   -6.9120    0.8760 N.ar   29  DA29       -0.2040
    608  C2         4.3160   -8.0340    0.1670 C.ar   29  DA29        0.2016
    609  N3         4.5960   -8.1780   -1.1260 N.ar   29  DA29       -0.2048
    610  C4         4.7100   -6.9790   -1.7230 C.ar   29  DA29        0.1691
    611  P          0.8880   -7.7180   -6.1620 P.3    30  DT30        0.2141
    612  OP1        0.3760   -8.3740   -7.3890 O.2    30  DT30       -0.5172
    613  OP2        0.6550   -6.2770   -5.8990 O.3    30  DT30       -0.4373
    614  O5'        0.3320   -8.4660   -4.8560 O.3    30  DT30       -0.3114
    615  C5'        0.6190   -9.8470   -4.6810 C.3    30  DT30        0.1811
    616  C4'        0.5190  -10.2990   -3.2420 C.3    30  DT30        0.1746
    617  O4'        1.5380   -9.6470   -2.4370 O.3    30  DT30       -0.3327
    618  C3'       -0.7720   -9.9750   -2.5040 C.3    30  DT30        0.1558
    619  O3'       -1.8690  -10.8100   -2.8390 O.3    30  DT30       -0.3138
    620  C2'       -0.3320  -10.1020   -1.0570 C.3    30  DT30        0.0866
    621  C1'        1.0430   -9.4370   -1.1300 C.3    30  DT30        0.2106
    622  N1         0.9210   -7.9500   -0.8500 N.ar   30  DT30       -0.2559
    623  C2         0.7990   -7.4770    0.4430 C.ar   30  DT30        0.3545
    624  O2         0.6590   -8.2080    1.4070 O.2    30  DT30       -0.2443
    625  N3         0.8460   -6.1100    0.5680 N.ar   30  DT30       -0.1533
    626  C4         1.0000   -5.1890   -0.4470 C.ar   30  DT30        0.2804
    627  O4         1.0250   -3.9900   -0.1780 O.2    30  DT30       -0.2654
    628  C5         1.1190   -5.7580   -1.7600 C.ar   30  DT30        0.0534
    629  C6         1.0760   -7.0840   -1.9100 C.ar   30  DT30        0.0824
    630  C7         1.2890   -4.8370   -2.9320 C.3    30  DT30        0.0377
    631  P         -3.1410  -10.0350   -3.4240 P.3    31  DC31        0.2141
    632  OP1       -4.0800  -11.0270   -4.0310 O.3    31  DC31       -0.4373
    633  OP2       -2.6740   -8.7510   -4.0560 O.2    31  DC31       -0.5172
    634  O5'       -3.6120   -9.6560   -1.9320 O.3    31  DC31       -0.3114
    635  C5'       -4.3000  -10.6850   -1.2160 C.3    31  DC31        0.1811
    636  C4'       -4.5450  -10.3510    0.2330 C.3    31  DC31        0.1746
    637  O4'       -3.3300   -9.8280    0.7860 O.3    31  DC31       -0.3327
    638  C3'       -5.4750   -9.2120    0.5360 C.3    31  DC31        0.1558
    639  O3'       -6.7670   -9.6670    0.5370 O.3    31  DC31       -0.3138
    640  C2'       -5.1200   -8.8520    1.9520 C.3    31  DC31        0.0866
    641  C1'       -3.6150   -8.8420    1.7670 C.3    31  DC31        0.2106
    642  N1        -3.1120   -7.4900    1.2580 N.ar   31  DC31       -0.2556
    643  C2        -2.9740   -6.4410    2.1750 C.ar   31  DC31        0.3531
    644  O2        -3.2790   -6.6420    3.3620 O.2    31  DC31       -0.2443
    645  N3        -2.5140   -5.2430    1.7420 N.ar   31  DC31       -0.1739
    646  C4        -2.1990   -5.0730    0.4570 C.ar   31  DC31        0.1759
    647  N4        -1.7510   -3.8750    0.0770 N.pl3  31  DC31       -0.1070
    648  C5        -2.3320   -6.1230   -0.4880 C.ar   31  DC31        0.0566
    649  C6        -2.7860   -7.3050   -0.0560 C.ar   31  DC31        0.0849
    650  P         -7.6700   -8.7600   -0.0670 P.3    32  DG32        0.2141
    651  OP1       -9.0260   -9.2850   -0.3550 O.3    32  DG32       -0.4373
    652  OP2       -7.0000   -7.8660   -1.0560 O.2    32  DG32       -0.5172
    653  O5'       -7.7550   -8.0130    1.3360 O.3    32  DG32       -0.3114
    654  C5'       -8.2530   -8.6790    2.4860 C.3    32  DG32        0.1811
    655  C4'       -8.2380   -7.7370    3.6550 C.3    32  DG32        0.1746
    656  O4'       -6.8860   -7.2210    3.8000 O.3    32  DG32       -0.3327
    657  C3'       -9.0750   -6.4840    3.4540 C.3    32  DG32        0.1558
    658  O3'      -10.4460   -6.6940    3.7650 O.3    32  DG32       -0.3138
    659  C2'       -8.4130   -5.4930    4.3990 C.3    32  DG32        0.0865
    660  C1'       -6.9360   -5.8590    4.2100 C.3    32  DG32        0.2094
    661  N9        -6.5940   -4.9280    2.9540 N.ar   32  DG32       -0.2713
    662  C8        -6.6550   -5.1940    1.6080 C.ar   32  DG32        0.1816
    663  N7        -6.4470   -4.1410    0.8650 N.ar   32  DG32       -0.2173
    664  C5        -6.2340   -3.1180    1.7700 C.ar   32  DG32        0.1748
    665  C6        -5.9590   -1.7420    1.5610 C.ar   32  DG32        0.3025
    666  O6        -5.8460   -1.1390    0.4870 O.2    32  DG32       -0.2633
    667  N1        -5.8130   -1.0520    2.7610 N.ar   32  DG32       -0.1685
    668  C2        -5.9170   -1.6190    4.0090 C.ar   32  DG32        0.2746
    669  N2        -5.7430   -0.7920    5.0490 N.ar   32  DG32       -0.1050
    670  N3        -6.1730   -2.8950    4.2190 N.ar   32  DG32       -0.1895
    671  C4        -6.3200   -3.5840    3.0680 C.ar   32  DG32        0.1725
    672  P        -11.6350   -5.8550    2.8860 P.3    33  DG33        0.2141
    673  OP1      -12.6990   -6.7180    3.4460 O.3    33  DG33       -0.4373
    674  OP2      -11.7370   -5.3510    1.4970 O.2    33  DG33       -0.5172
    675  O5'      -11.4620   -4.6470    3.8830 O.3    33  DG33       -0.3114
    676  C5'      -11.8230   -4.8110    5.2290 C.3    33  DG33        0.1811
    677  C4'      -11.6750   -3.5180    5.9320 C.3    33  DG33        0.1746
    678  O4'      -10.2810   -3.1300    5.8690 O.3    33  DG33       -0.3327
    679  C3'      -12.3380   -2.3370    5.2630 C.3    33  DG33        0.1558
    680  O3'      -13.7510   -2.2630    5.4780 O.3    33  DG33       -0.3138
    681  C2'      -11.6100   -1.2060    5.9710 C.3    33  DG33        0.0865
    682  C1'      -10.1830   -1.7170    5.9210 C.3    33  DG33        0.2094
    683  N9        -9.5410   -1.2880    4.7450 N.ar   33  DG33       -0.2713
    684  C8        -9.4060   -2.0180    3.5890 C.ar   33  DG33        0.1816
    685  N7        -8.8400   -1.3500    2.6210 N.ar   33  DG33       -0.2173
    686  C5        -8.5830   -0.1060    3.1670 C.ar   33  DG33        0.1748
    687  C6        -7.9820    1.0460    2.5970 C.ar   33  DG33        0.3023
    688  O6        -7.5410    1.1920    1.4500 O.2    33  DG33       -0.2633
    689  N1        -7.9150    2.1000    3.5040 N.ar   33  DG33       -0.1709
    690  C2        -8.3720    2.0510    4.7990 C.ar   33  DG33        0.2606
    691  N2        -8.2190    3.1690    5.5220 N.pl3  33  DG33       -0.0859
    692  N3        -8.9330    0.9890    5.3420 N.ar   33  DG33       -0.1918
    693  C4        -9.0090   -0.0470    4.4800 C.ar   33  DG33        0.1722
    694  P        -14.6150   -1.4010    4.5460 P.3    34  DA34        0.2141
    695  OP1      -15.8960   -2.0610    4.2090 O.3    34  DA34       -0.4373
    696  OP2      -13.9300   -0.6100    3.5000 O.2    34  DA34       -0.5172
    697  O5'      -14.8000   -0.4760    5.8410 O.3    34  DA34       -0.3114
    698  C5'      -15.4010    0.7890    5.6790 C.3    34  DA34        0.1811
    699  C4'      -14.4730    1.9400    6.0280 C.3    34  DA34        0.1746
    700  O4'      -13.0650    1.6050    5.9470 O.3    34  DA34       -0.3327
    701  C3'      -14.5230    3.1270    5.0820 C.3    34  DA34        0.1558
    702  O3'      -15.7800    3.7740    5.1160 O.3    34  DA34       -0.3138
    703  C2'      -13.3490    3.9340    5.6340 C.3    34  DA34        0.0865
    704  C1'      -12.3390    2.7910    5.6410 C.3    34  DA34        0.2094
    705  N9       -11.8740    2.6920    4.1370 N.ar   34  DA34       -0.2714
    706  C8       -12.1240    1.5920    3.3590 C.ar   34  DA34        0.1815
    707  N7       -11.3650    1.5170    2.2910 N.ar   34  DA34       -0.2193
    708  C5       -10.5650    2.6450    2.3730 C.ar   34  DA34        0.1518
    709  C6        -9.5470    3.1450    1.5420 C.ar   34  DA34        0.1919
    710  N6        -9.1470    2.5440    0.4180 N.pl3  34  DA34       -0.1054
    711  N1        -8.9470    4.2980    1.9090 N.ar   34  DA34       -0.2040
    712  C2        -9.3470    4.8990    3.0360 C.ar   34  DA34        0.2016
    713  N3       -10.2900    4.5260    3.8980 N.ar   34  DA34       -0.2048
    714  C4       -10.8670    3.3790    3.5040 C.ar   34  DA34        0.1691
    715  P        -16.6290    3.5740    3.9010 P.3    35  DC35        0.2141
    716  OP1      -17.8940    4.1390    4.4310 O.3    35  DC35       -0.4373
    717  OP2      -16.6840    2.9040    2.5700 O.2    35  DC35       -0.5172
    718  O5'      -15.5510    4.7580    3.9180 O.3    35  DC35       -0.3114
    719  C5'      -15.7900    5.8580    4.7760 C.3    35  DC35        0.1811
    720  C4'      -14.9730    7.0650    4.3830 C.3    35  DC35        0.1746
    721  O4'      -13.5510    6.7350    4.4870 O.3    35  DC35       -0.3327
    722  C3'      -15.1950    7.5670    2.9530 C.3    35  DC35        0.1558
    723  O3'      -16.3900    8.3740    2.7520 O.3    35  DC35       -0.3138
    724  C2'      -13.8610    8.2800    2.7000 C.3    35  DC35        0.0866
    725  C1'      -12.8660    7.2980    3.3730 C.3    35  DC35        0.2106
    726  N1       -12.4650    6.2180    2.3700 N.ar   35  DC35       -0.2556
    727  C2       -11.3430    6.4570    1.5680 C.ar   35  DC35        0.3531
    728  O2       -10.7900    7.5680    1.6300 O.2    35  DC35       -0.2443
    729  N3       -10.8950    5.4740    0.7510 N.ar   35  DC35       -0.1739
    730  C4       -11.5220    4.2970    0.7170 C.ar   35  DC35        0.1759
    731  N4       -11.0440    3.3590   -0.1040 N.pl3  35  DC35       -0.1070
    732  C5       -12.6600    4.0350    1.5210 C.ar   35  DC35        0.0566
    733  C6       -13.0990    5.0080    2.3270 C.ar   35  DC35        0.0849
    734  P        -17.5260    8.0180    1.1820 P.3    36  DA36        0.2141
    735  OP1      -18.8370    8.5010    0.6810 O.2    36  DA36       -0.5172
    736  OP2      -17.1370    6.5880    1.0040 O.3    36  DA36       -0.4373
    737  O5'      -16.3840    8.9190    0.5460 O.3    36  DA36       -0.3114
    738  C5'      -16.4540   10.3410    0.6020 C.3    36  DA36        0.1811
    739  C4'      -15.3370   10.9360   -0.2140 C.3    36  DA36        0.1753
    740  O4'      -14.0790   10.7930    0.4990 O.3    36  DA36       -0.3510
    741  C3'      -15.0960   10.2160   -1.5310 C.3    36  DA36        0.1839
    742  O3'      -15.9900   10.6620   -2.5360 O.3    36  DA36       -0.2204
    743  C2'      -13.6490   10.5740   -1.8330 C.3    36  DA36        0.0676
    744  C1'      -13.0330   10.5440   -0.4310 C.3    36  DA36        0.1450
    745  N9       -13.2280    8.6480   -1.4220 N.2    36  DA36       -0.0102
    746  C8       -13.9440    7.6080   -0.8900 C.2    36  DA36        0.3354
    747  N7       -13.6330    6.4380   -1.3960 N.2    36  DA36       -0.2028
    748  C5       -12.6460    6.7300   -2.3240 C.3    36  DA36        0.3315
    749  C6       -11.9000    5.9200   -3.1980 C.2    36  DA36        0.4301
    750  N6       -12.0410    4.5950   -3.2790 N.pl3  36  DA36        0.2140
    751  N1       -10.9940    6.5260   -3.9940 N.2    36  DA36        0.0200
    752  C2       -10.8520    7.8540   -3.9110 C.2    36  DA36        0.4720
    753  N3       -11.4930    8.7200   -3.1300 N.2    36  DA36        0.0177
    754  C4       -12.3870    8.0870   -2.3520 C.2    36  DA36        0.3923
@<TRIPOS>BOND
     1   128   127    1
     2   128   129    1
     3   127   124    1
     4   129   131    1
     5   129   130    1
     6   125   124    2
     7    99    98    1
     8   110   124    1
     9   110   109    1
    10   132   131    1
    11   132   146    1
    12   111   109    1
    13   111   112    1
    14   107   109    1
    15   107   108    1
    16   107   106    1
    17   131   133    1
    18   124   126    1
    19   147   146    2
    20   130   134    1
    21   112   108    1
    22   112   113    1
    23   133   134    1
    24   106   105    1
    25   149   146    1
    26   149   150    1
    27   146   148    1
    28    98   100   ar
    29    98    97   ar
    30   134   135    1
    31   100   101   ar
    32   121   120    1
    33   122   120   ar
    34   122   123   ar
    35   150   151    1
    36   120   119   ar
    37    97    95   ar
    38   113   123   ar
    39   113   114   ar
    40    89    90    1
    41    89    87    1
    42    90    86    1
    43    90    91    1
    44   135   136   ar
    45   135   145   ar
    46   123   116   ar
    47   105   102    1
    48   151   152    1
    49   151   153    1
    50   101    91   ar
    51   101    94   ar
    52    74    73    2
    53   152   156    1
    54   103   102    2
    55    86    85    1
    56   136   137   ar
    57    88    87    1
    58    88   102    1
    59    91    92   ar
    60    85    87    1
    61    85    84    1
    62   102   104    1
    63    75    73   ar
    64    75    76   ar
    65   144   145   ar
    66   144   142   ar
    67   114   115   ar
    68    95    94   ar
    69    95    96    2
    70   119   117   ar
    71   145   138   ar
    72    73    72   ar
    73    94    93   ar
    74   116   115   ar
    75   116   117   ar
    76   156   155    1
    77   156   157    1
    78   154   153    1
    79   154   166    1
    80   153   155    1
    81    36    35    1
    82   591   590    2
    83   137   138   ar
    84    77    76    1
    85   164   157   ar
    86   164   163   ar
    87    92    93   ar
    88   117   118    2
    89   167   166    2
    90    76    78   ar
    91    84    83    1
    92   142   143    1
    93   142   141   ar
    94   138   139   ar
    95    54    53    2
    96   165   163    1
    97   157   158   ar
    98    37    35   ar
    99    37    38   ar
   100    72    71    1
   101    72    79   ar
   102    55    53   ar
   103    55    56   ar
   104   166   168    1
   105   166   169    1
   106    70    71    1
   107    70    68    1
   108    71    67    1
   109    57    56    2
   110   163   161   ar
   111    35    34   ar
   112    14    13    2
   113    53    52   ar
   114   612   611    2
   115   579   590    1
   116   579   578    1
   117   594   593    1
   118   594   595    1
   119    56    58   ar
   120   590   593    1
   121   590   592    1
   122    83    80    1
   123   141   139   ar
   124    38    39   ar
   125    78    79   ar
   126   158   159    2
   127   158   160   ar
   128   139   140    2
   129   161   160   ar
   130   161   162    2
   131   575   576    1
   132   575   574    1
   133   576   578    1
   134   576   577    1
   135    67    66    1
   136   572   571    2
   137   169   170    1
   138   598   611    1
   139   598   597    1
   140   170   171    1
   141    68    69    1
   142    68    66    1
   143   595   597    1
   144   595   596    1
   145    13    15   ar
   146    13    12   ar
   147    34    33   ar
   148    34    40   ar
   149   611   613    1
   150   611   614    1
   151   578   580    1
   152    69    80    1
   153    52    51    1
   154    52    59   ar
   155    58    59   ar
   156    58    60    1
   157   172   171    1
   158   172   176    1
   159    15    16   ar
   160    66    65    1
   161    39    40   ar
   162    80    81    2
   163    80    82    1
   164   597   599    1
   165   577   581    1
   166    33    32   ar
   167   384   383    1
   168   384   385    1
   169   384   386    1
   170   171   173    1
   171    51    50    1
   172    51    47    1
   173   580   581    1
   174   574   571    1
   175   382   383    1
   176   382   379    1
   177    40    31   ar
   178   571   557    1
   179   571   573    1
   180   596   600    1
   181    50    48    1
   182   387   386    1
   183   387   399    1
   184    11    12   ar
   185    11    10   ar
   186    12    19   ar
   187   400   399    2
   188   365   379    1
   189   365   364    1
   190   557   556    1
   191   385   389    1
   192   380   379    2
   193   178   179   ar
   194   178   177   ar
   195   614   615    1
   196   581   582    1
   197   362   363    1
   198   362   361    1
   199   362   364    1
   200   388   386    1
   201   388   389    1
   202   402   403    1
   203   402   399    1
   204   615   616    1
   205   403   404    1
   206   176   177    1
   207   176   175    1
   208   599   600    1
   209   389   390    1
   210    16    17    1
   211    16    18   ar
   212   379   381    1
   213   179   180   ar
   214   366   364    1
   215   366   367    1
   216   363   367    1
   217    65    64    1
   218   361   360    1
   219   558   556    1
   220   558   559    1
   221   177   187   ar
   222    32    31   ar
   223   399   401    1
   224    47    46    1
   225    31    30    1
   226   633   631    2
   227    64    61    1
   228   600   601    1
   229   632   631    1
   230   367   368    1
   231   751   752    1
   232   751   749    2
   233   173   175    1
   234   173   174    1
   235    10     9   ar
   236   752   753    2
   237   556   554    1
   238    19    18   ar
   239    19     9   ar
   240    48    49    1
   241    48    46    1
   242   404   405    1
   243   404   406    1
   244   554   555    1
   245   554   553    1
   246   631   619    1
   247   631   634    1
   248   582   589   ar
   249   582   583   ar
   250   174   188    1
   251   559   555    1
   252   559   560    1
   253   405   409    1
   254   180   187   ar
   255   180   181   ar
   256   750   749    1
   257   568   567    1
   258   616   618    1
   259   616   617    1
   260   187   186   ar
   261   749   748    1
   262   602   601   ar
   263   602   603   ar
   264    49    61    1
   265    46    45    1
   266   753   754    1
   267     9     8    1
   268   601   610   ar
   269   589   588   ar
   270   630   628    1
   271    30    29    1
   272    30    26    1
   273   569   567   ar
   274   569   570   ar
   275   619   618    1
   276   584   583    2
   277   360   357    1
   278   377   378   ar
   279   377   375   ar
   280   390   397   ar
   281   390   391   ar
   282   347   348    1
   283   347   345    1
   284   358   357    2
   285   392   391    2
   286    61    63    2
   287    61    62    1
   288   553   552    1
   289   368   378   ar
   290   368   369   ar
   291   376   375    1
   292   742   741    1
   293   351   350    2
   294   618   620    1
   295    29    27    1
   296   583   585   ar
   297   617   621    1
   298   346   357    1
   299   346   345    1
   300   567   566   ar
   301   181   182    2
   302   181   183   ar
   303   754   748    1
   304   754   745    2
   305   186   184   ar
   306   406   407    1
   307   406   408    1
   308   748   747    1
   309   348   344    1
   310   348   349    1
   311   190   188    2
   312   397   396   ar
   313   391   393   ar
   314   378   371   ar
   315   560   570   ar
   316   560   561   ar
   317   407   420    1
   318     1     2    1
   319   603   604   ar
   320   357   359    1
   321   375   374   ar
   322    44    45    1
   323    44    41    1
   324   343   344    1
   325   343   345    1
   326   343   342    1
   327   409   410    1
   328   409   408    1
   329   634   635    1
   330   629   628   ar
   331   629   622   ar
   332   570   563   ar
   333   411   410   ar
   334   411   412   ar
   335    26    25    1
   336   335   334    1
   337   743   741    1
   338   743   744    1
   339   628   626   ar
   340   588   586   ar
   341   188   189    1
   342   188   191    1
   343   610   604   ar
   344   610   609   ar
   345     8     4    1
   346     8     7    1
   347   410   419   ar
   348   207   205    1
   349   369   370   ar
   350   741   739    1
   351   183   184   ar
   352   184   185    1
   353   745   746    1
   354   747   746    2
   355    27    25    1
   356    27    28    1
   357   350   349   ar
   358   350   352   ar
   359    43    41    2
   360   552   549    1
   361     4     3    1
   362   635   636    1
   363   585   586   ar
   364     7     5    1
   365   621   620    1
   366   621   622    1
   367   604   605   ar
   368   609   608   ar
   369   566   564   ar
   370    22    20    2
   371   652   650    2
   372   412   413   ar
   373   349   356   ar
   374   396   398    1
   375   396   394   ar
   376     5     3    1
   377     5     6    1
   378   393   394   ar
   379   546   547   ar
   380   546   545   ar
   381   622   623   ar
   382   561   562   ar
   383   586   587    1
   384   421   420    2
   385   342   341    1
   386    41    28    1
   387    41    42    1
   388   422   420    1
   389   371   370   ar
   390   371   372   ar
   391    25    24    1
   392     2     3    1
   393    23    20    1
   394    23    24    1
   395   374   372   ar
   396   550   549    2
   397   420   423    1
   398   313   312    1
   399   419   413   ar
   400   419   418   ar
   401   563   564   ar
   402   563   562   ar
   403   334   336   ar
   404   334   333   ar
   405   547   548   ar
   406   648   649   ar
   407   648   646   ar
   408   626   627    2
   409   626   625   ar
   410   204   203    2
   411   744   740    1
   412   191   192    1
   413   205   203   ar
   414   205   206   ar
   415   651   650    1
   416   352   353   ar
   417   413   414   ar
   418   739   740    1
   419   739   738    1
   420   394   395    2
   421   549   536    1
   422   549   551    1
   423   545   543   ar
   424   731   730    1
   425    20     6    1
   426    20    21    1
   427   336   337   ar
   428   650   639    1
   429   650   653    1
   430   649   642   ar
   431   564   565    2
   432   537   538    1
   433   537   535    1
   434   418   417   ar
   435   203   202   ar
   436   647   646    1
   437   372   373    2
   438   608   607   ar
   439   206   199   ar
   440   636   638    1
   441   636   637    1
   442   356   355   ar
   443   605   607   ar
   444   605   606    1
   445   333   331   ar
   446   525   524    1
   447   536   535    1
   448   192   193    1
   449   710   709    1
   450   341   338    1
   451   623   625   ar
   452   623   624    2
   453   646   645   ar
   454   666   665    2
   455   638   639    1
   456   638   640    1
   457   737   738    1
   458   737   734    1
   459   735   734    2
   460   730   729   ar
   461   730   732   ar
   462   312   311   ar
   463   312   314   ar
   464   548   539   ar
   465   548   542   ar
   466   729   727   ar
   467   423   424    1
   468   637   641    1
   469   414   415    2
   470   414   416   ar
   471   663   662   ar
   472   663   664   ar
   473   538   539    1
   474   538   534    1
   475   353   355   ar
   476   353   354    1
   477   325   326    1
   478   325   323    1
   479   736   734    1
   480   535   533    1
   481   417   416   ar
   482   194   193    1
   483   194   198    1
   484   202   200   ar
   485   543   542   ar
   486   543   544    1
   487   734   723    1
   488   311   309   ar
   489   337   327   ar
   490   337   330   ar
   491   642   641    1
   492   642   643   ar
   493   199   200   ar
   494   199   198    1
   495   415   523    1
   496   424   425    1
   497   653   654    1
   498   539   540   ar
   499   688   687    2
   500   314   315   ar
   501   674   672    2
   502   732   733   ar
   503   709   711   ar
   504   709   708   ar
   505   193   195    1
   506   524   523   ar
   507   524   526   ar
   508   665   664   ar
   509   665   667   ar
   510   727   728    2
   511   727   726   ar
   512   662   661   ar
   513   542   541   ar
   514   433   432   ar
   515   433   434   ar
   516   331   330   ar
   517   331   332    2
   518   224   223    2
   519   326   327    1
   520   326   322    1
   521   645   643   ar
   522   339   338    2
   523   523   521   ar
   524   200   201    2
   525   641   640    1
   526   664   671   ar
   527   432   431   ar
   528   324   338    1
   529   324   323    1
   530   338   340    1
   531   533   534    1
   532   533   532    1
   533   711   712   ar
   534   198   197    1
   535   327   328   ar
   536   330   329   ar
   537   323   321    1
   538   643   644    2
   539   707   708   ar
   540   707   706   ar
   541   733   726   ar
   542   726   725    1
   543   708   714   ar
   544   436   435    1
   545   426   425    1
   546   426   430    1
   547   195   197    1
   548   195   196    1
   549   654   655    1
   550   246   245    2
   551   526   527   ar
   552   717   715    2
   553   687   686   ar
   554   687   689   ar
   555   309   310    2
   556   309   308   ar
   557   685   686   ar
   558   685   684   ar
   559   425   427    1
   560   540   541   ar
   561   724   722    1
   562   724   725    1
   563   723   722    1
   564   434   435   ar
   565   434   440   ar
   566   667   225   ar
   567   667   668   ar
   568   223   222   ar
   569   223   225   ar
   570   315   308   ar
   571   315   305   ar
   572   322   321    1
   573   221   222   ar
   574   221   220   ar
   575   321   320    1
   576   672   673    1
   577   672   658    1
   578   672   675    1
   579   722   720    1
   580   661   671   ar
   581   661   660    1
   582   521   522    2
   583   521   520   ar
   584   431   430    1
   585   431   440   ar
   586   712   713   ar
   587   268   267    2
   588   671   670   ar
   589   435   437   ar
   590   686   693   ar
   591   269   267   ar
   592   269   270   ar
   593   271   270    1
   594   532   531    1
   595   328   329   ar
   596   210   208    2
   597   222   229   ar
   598   706   705   ar
   599   725   721    1
   600   308   307   ar
   601   196   208    1
   602   657   655    1
   603   657   658    1
   604   657   659    1
   605   500   499    2
   606   696   694    2
   607   714   713   ar
   608   714   705   ar
   609   689   690   ar
   610   430   429    1
   611   245   247   ar
   612   245   244   ar
   613   684   683   ar
   614   440   439   ar
   615   427   428    1
   616   427   429    1
   617   225   226   ar
   618   303   304    1
   619   303   301    1
   620   655   656    1
   621   267   266   ar
   622   527   520   ar
   623   527   517   ar
   624   220   219   ar
   625   305   304    1
   626   305   306   ar
   627   656   660    1
   628   304   300    1
   629   247   248   ar
   630   287   286    2
   631   270   272   ar
   632   675   676    1
   633   715   718    1
   634   715   716    1
   635   715   702    1
   636   718   719    1
   637   668   670   ar
   638   668   669   ar
   639   520   519   ar
   640   501   499   ar
   641   501   502   ar
   642   705   704    1
   643   208   209    1
   644   208   211    1
   645   288   286   ar
   646   288   289   ar
   647   531   528    1
   648   695   694    1
   649   660   659    1
   650   320   319    1
   651   437   438   ar
   652   428   441    1
   653   720   721    1
   654   720   719    1
   655   499   498   ar
   656   290   289    2
   657   478   477    2
   658   693   683   ar
   659   693   692   ar
   660   503   502    1
   661   694   680    1
   662   694   697    1
   663   244   243   ar
   664   244   251   ar
   665   286   285   ar
   666   229   219   ar
   667   229   228   ar
   668   243   242   ar
   669   683   682    1
   670   307   306   ar
   671   439   438   ar
   672   690   692   ar
   673   690   691    1
   674   219   218    1
   675   226   228   ar
   676   226   227   ar
   677   515   516    1
   678   515   513    1
   679   289   291   ar
   680   517   516    1
   681   517   518   ar
   682   443   441    2
   683   248   249    1
   684   248   250   ar
   685   266   273   ar
   686   266   265   ar
   687   502   504   ar
   688   300   299    1
   689   669   227   ar
   690   272   273   ar
   691   701   702    1
   692   701   703    1
   693   701   699    1
   694   301   302    1
   695   301   299    1
   696   442   441    1
   697   441   444    1
   698   319   316    1
   699   516   512    1
   700   211   212    1
   701   676   677    1
   702   679   680    1
   703   679   677    1
   704   679   681    1
   705   302   316    1
   706   519   518   ar
   707   273   263   ar
   708   477   479   ar
   709   477   476   ar
   710   703   704    1
   711   704   700    1
   712   251   250   ar
   713   251   241   ar
   714   698   697    1
   715   698   699    1
   716   299   298    1
   717   528   529    2
   718   528   530    1
   719   528   514    1
   720   498   497   ar
   721   498   505   ar
   722   242   241   ar
   723   214   218    1
   724   214   213    1
   725   678   682    1
   726   678   677    1
   727   265   264   ar
   728   218   217    1
   729   682   681    1
   730   285   284    1
   731   285   292   ar
   732   700   699    1
   733   479   480   ar
   734   457   456    1
   735   212   213    1
   736   291   292   ar
   737   291   293    1
   738   513   514    1
   739   513   511    1
   740   504   505   ar
   741   454   453   ar
   742   454   455   ar
   743   444   445    1
   744   241   240    1
   745   284   283    1
   746   284   280    1
   747   497   496   ar
   748   512   511    1
   749   316   318    2
   750   316   317    1
   751   505   495   ar
   752   476   475   ar
   753   476   483   ar
   754   475   474   ar
   755   263   264   ar
   756   263   262    1
   757   213   215    1
   758   283   281    1
   759   453   452   ar
   760   232   230    2
   761   298   297    1
   762   511   510    1
   763   215   217    1
   764   215   216    1
   765   456   455   ar
   766   456   458   ar
   767   455   461   ar
   768   480   481    1
   769   480   482   ar
   770   280   279    1
   771   445   446    1
   772   496   495   ar
   773   297   294    1
   774   262   261    1
   775   262   258    1
   776   240   236    1
   777   240   239    1
   778   495   494    1
   779   483   482   ar
   780   483   473   ar
   781   474   473   ar
   782   464   462    2
   783   452   461   ar
   784   452   451    1
   785   458   459   ar
   786   230   216    1
   787   230   233    1
   788   230   231    1
   789   236   235    1
   790   281   279    1
   791   281   282    1
   792   233   234    1
   793   461   460   ar
   794   510   509    1
   795   261   259    1
   796   509   506    1
   797   258   257    1
   798   239   237    1
   799   279   278    1
   800   447   446    1
   801   447   451    1
   802   296   294    2
   803   473   472    1
   804   446   448    1
   805   448   449    1
   806   448   450    1
   807   294   282    1
   808   294   295    1
   809   494   493    1
   810   494   490    1
   811   451   450    1
   812   493   491    1
   813   237   235    1
   814   237   238    1
   815   459   460   ar
   816   462   449    1
   817   462   465    1
   818   462   463    1
   819   235   234    1
   820   254   252    2
   821   259   257    1
   822   259   260    1
   823   508   506    2
   824   465   466    1
   825   277   278    1
   826   277   274    1
   827   257   256    1
   828   506   492    1
   829   506   507    1
   830   486   484    2
   831   491   492    1
   832   491   489    1
   833   255   256    1
   834   255   252    1
   835   490   489    1
   836   472   468    1
   837   472   471    1
   838   276   274    2
   839   238   252    1
   840   468   467    1
   841   252   253    1
   842   487   484    1
   843   487   488    1
   844   471   469    1
   845   469   467    1
   846   469   470    1
   847   274   260    1
   848   274   275    1
   849   489   488    1
   850   466   467    1
   851   484   470    1
   852   484   485    1
