FB1.pdb
  RxDock  10102001053D
librxdock.so/0.1.0
 59 58  0  0  0  0  0  0  0  0999 V2000
   -8.0642   -5.9652    7.5672 C   0  0  0  0  0  0
   -6.7391   -5.2839    7.9010 C   0  0  0  0  0  0
   -5.7915   -6.2246    8.6635 C   0  0  0  0  0  0
   -4.3087   -6.0859    8.2373 C   0  0  0  0  0  0
   -3.9997   -6.5279    6.7643 C   0  0  0  0  0  0
   -4.3954   -5.3716    5.8172 C   0  0  0  0  0  0
   -2.4892   -6.9570    6.5357 C   0  0  0  0  0  0
   -1.3687   -5.8483    6.8208 C   0  0  0  0  0  0
   -1.6137   -4.2772    6.8153 C   0  0  0  0  0  0
   -1.3397   -3.5316    5.3695 C   0  0  0  0  0  0
   -1.4680   -2.0225    5.5700 C   0  0  0  0  0  0
    0.0511   -3.8608    4.6611 C   0  0  0  0  0  0
    0.4352   -3.4012    3.1578 C   0  0  0  0  0  0
    0.1919   -1.9432    2.6370 C   0  0  0  0  0  0
    0.7656   -1.5464    1.2008 C   0  0  0  0  0  0
    0.5520   -0.1391    0.5164 C   0  0  0  0  0  0
    1.0533    1.1431    1.2320 C   0  0  0  0  0  0
    2.3761    1.0060    2.0810 C   0  0  0  0  0  0
    3.6260    0.5441    1.3214 C   0  0  0  0  0  0
    4.7642   -0.1463    2.1253 C   0  0  0  0  0  0
    6.1600   -0.3831    1.4764 C   0  0  0  0  0  0
    7.0442    0.8441    1.3043 C   0  0  0  0  0  0
    6.8862   -1.4630    2.1714 N   0  0  0  0  0  0
    5.0159    0.7426    3.2434 O   0  0  0  0  0  0
    2.6512    2.2775    2.6787 O   0  0  0  0  0  0
    1.8554   -3.6020    3.0614 O   0  0  0  0  0  0
   -0.8502   -6.1269    8.1496 O   0  0  0  0  0  0
    0.0937   -7.0985    8.2523 C   0  0  0  0  0  0
    0.4035   -7.8948    7.3867 O   0  0  0  0  0  0
    0.7715   -6.9644    9.5879 C   0  0  0  0  0  0
    2.2734   -6.6633    9.4601 C   0  0  0  0  0  0
    2.6135   -5.2080    9.8061 C   0  0  0  0  0  0
    3.1666   -4.4771    8.6047 C   0  0  0  0  0  0
    4.2111   -4.7887    8.0428 O   0  0  0  0  0  0
    2.4024   -3.4495    8.2060 O   0  0  0  0  0  0
    2.9788   -7.6141   10.4371 C   0  0  0  0  0  0
    2.4454   -8.0496   11.4462 O   0  0  0  0  0  0
    4.2507   -7.8907   10.1184 O   0  0  0  0  0  0
   -2.1874   -8.2385    7.2187 O   0  0  0  0  0  0
   -2.2654   -9.4107    6.4851 C   0  0  0  0  0  0
   -1.3071  -10.1137    6.1921 O   0  0  0  0  0  0
   -3.7041   -9.7448    6.0697 C   0  0  0  0  0  0
   -4.6060  -10.3588    7.1851 C   0  0  0  0  0  0
   -6.0275  -10.8080    6.8004 C   0  0  0  0  0  0
   -7.0990  -10.0675    7.5474 C   0  0  0  0  0  0
   -7.8525  -10.5516    8.3807 O   0  0  0  0  0  0
   -7.1476   -8.7671    7.2201 O   0  0  0  0  0  0
   -3.9614  -11.5127    7.9631 C   0  0  0  0  0  0
   -3.0629  -12.1939    7.5099 O   0  0  0  0  0  0
   -4.3838  -11.6604    9.2363 O   0  0  0  0  0  0
    6.2142   -2.1375    2.5346 H   0  0  0  0  0  0
    7.3398   -1.0710    2.9997 H   0  0  0  0  0  0
    5.4940    0.1887    3.8961 H   0  0  0  0  0  0
    1.9022    2.5097    3.2581 H   0  0  0  0  0  0
    2.0277   -4.5574    3.1059 H   0  0  0  0  0  0
    1.6812   -3.2049    8.8171 H   0  0  0  0  0  0
    4.7071   -7.1820    9.6005 H   0  0  0  0  0  0
   -6.5856   -8.6561    6.4244 H   0  0  0  0  0  0
   -5.0208  -10.9800    9.5487 H   0  0  0  0  0  0
  1  2  1  0  0  0
  2  3  1  0  0  0
  3  4  1  0  0  0
  4  5  1  0  0  0
  5  6  1  0  0  0
  5  7  1  0  0  0
  7  8  1  0  0  0
  7 39  1  0  0  0
  8  9  1  0  0  0
  8 27  1  0  0  0
  9 10  1  0  0  0
 10 11  1  0  0  0
 10 12  1  0  0  0
 12 13  1  0  0  0
 13 14  1  0  0  0
 13 26  1  0  0  0
 14 15  1  0  0  0
 15 16  1  0  0  0
 16 17  1  0  0  0
 17 18  1  0  0  0
 18 19  1  0  0  0
 18 25  1  0  0  0
 19 20  1  0  0  0
 20 21  1  0  0  0
 20 24  1  0  0  0
 21 22  1  0  0  0
 21 23  1  0  0  0
 23 51  1  0  0  0
 23 52  1  0  0  0
 24 53  1  0  0  0
 25 54  1  0  0  0
 26 55  1  0  0  0
 27 28  1  0  0  0
 28 29  2  0  0  0
 28 30  1  0  0  0
 30 31  1  0  0  0
 31 32  1  0  0  0
 31 36  1  0  0  0
 32 33  1  0  0  0
 33 34  2  0  0  0
 33 35  1  0  0  0
 35 56  1  0  0  0
 36 37  2  0  0  0
 36 38  1  0  0  0
 38 57  1  0  0  0
 39 40  1  0  0  0
 40 41  2  0  0  0
 40 42  1  0  0  0
 42 43  1  0  0  0
 43 44  1  0  0  0
 43 48  1  0  0  0
 44 45  1  0  0  0
 45 46  2  0  0  0
 45 47  1  0  0  0
 47 58  1  0  0  0
 48 49  2  0  0  0
 48 50  1  0  0  0
 50 59  1  0  0  0
M  END
>  <AUTHOR>
    GENERATED BY OPEN BABEL 2.4.1

>  <CHROM.1>
141.08955069,-65.86610227,80.51178642,-60.29007293,-22.40091227,95.58657538
-92.24596296,81.76474131,-173.84389724,171.38533058,46.57544697,172.74545974
66.99486171,177.41872456,58.98926217,34.11190874,59.08144780,-155.86419625
60.76949894,-167.93778806,73.62920685,161.53249716,31.13732658,-11.94022654
-117.98552757,106.17092933,-116.18236925,-27.41392270,-62.81161506,10.06437925
27.39836953,112.31161794,-77.64334596,-175.68272603,-118.72461280,-23.66967102
-112.49057460,11.71242772,-3.49219170,-0.50255432,-5.34214648,6.13568134
2.26888920,0.23973019,2.40752746

>  <COMPND>
    UNNAMED

>  <MASTER>
        0    0    0    0    0    0    0    0  109    0  109    0

>  <Name>
FB1.pdb

>  <RI>
0

>  <Rbt.Current_Directory>
/home/fc/tossine/F10/p3/2_clust03

>  <Rbt.Executable>
rbdock/0.1.0

>  <Rbt.Library>
librxdock.so/0.1.0

>  <Rbt.Parameter_File>
/cluster/rxdock/data/scripts/dock.prm

>  <Rbt.Receptor>
rx_2.prm

>  <SCORE>
11.5455

>  <SCORE.INTER>
-11.9655

>  <SCORE.INTER.CONST>
1

>  <SCORE.INTER.POLAR>
-5.67604

>  <SCORE.INTER.REPUL>
0.314915

>  <SCORE.INTER.ROT>
32

>  <SCORE.INTER.VDW>
-31.6415

>  <SCORE.INTER.norm>
-0.23931

>  <SCORE.INTRA>
23.0709

>  <SCORE.INTRA.DIHEDRAL>
37.0719

>  <SCORE.INTRA.DIHEDRAL.0>
47.3121

>  <SCORE.INTRA.POLAR>
1.47808

>  <SCORE.INTRA.POLAR.0>
-1.47808

>  <SCORE.INTRA.REPUL>
0

>  <SCORE.INTRA.REPUL.0>
0

>  <SCORE.INTRA.VDW>
-0.4905

>  <SCORE.INTRA.VDW.0>
-2.78316

>  <SCORE.INTRA.norm>
0.461419

>  <SCORE.RESTR>
0.440113

>  <SCORE.RESTR.CAVITY>
0.440113

>  <SCORE.RESTR.norm>
0.00880225

>  <SCORE.SYSTEM>
0

>  <SCORE.SYSTEM.CONST>
0

>  <SCORE.SYSTEM.DIHEDRAL>
0

>  <SCORE.SYSTEM.norm>
0

>  <SCORE.heavy>
50

>  <SCORE.norm>
0.230911

$$$$
