FB1.pdb
  RxDock  10102000013D
librxdock.so/0.1.0
 59 58  0  0  0  0  0  0  0  0999 V2000
   -9.3023   -6.3557    7.0643 C   0  0  0  0  0  0
   -7.8894   -6.9115    7.2262 C   0  0  0  0  0  0
   -7.6435   -7.4352    8.6508 C   0  0  0  0  0  0
   -6.4058   -8.3600    8.7637 C   0  0  0  0  0  0
   -5.0231   -7.6196    8.7476 C   0  0  0  0  0  0
   -4.2488   -8.0091   10.0280 C   0  0  0  0  0  0
   -4.1601   -7.9178    7.4498 C   0  0  0  0  0  0
   -2.5846   -7.6453    7.5475 C   0  0  0  0  0  0
   -1.5511   -7.8125    6.3508 C   0  0  0  0  0  0
    0.0259   -7.9768    6.8063 C   0  0  0  0  0  0
    0.7648   -8.7600    5.7224 C   0  0  0  0  0  0
    0.8119   -6.6243    7.1188 C   0  0  0  0  0  0
    2.2408   -6.5591    7.8756 C   0  0  0  0  0  0
    3.1726   -5.3010    7.8043 C   0  0  0  0  0  0
    2.5465   -3.8741    8.1523 C   0  0  0  0  0  0
    3.3975   -2.5666    8.3990 C   0  0  0  0  0  0
    4.2160   -1.9553    7.2312 C   0  0  0  0  0  0
    3.3894   -1.3170    6.0486 C   0  0  0  0  0  0
    2.4732   -2.2685    5.2691 C   0  0  0  0  0  0
    1.5690   -1.6723    4.1531 C   0  0  0  0  0  0
    2.1956   -1.1121    2.8420 C   0  0  0  0  0  0
    3.0164    0.1631    2.9743 C   0  0  0  0  0  0
    2.9577   -2.1588    2.1348 N   0  0  0  0  0  0
    0.7332   -2.7785    3.7271 O   0  0  0  0  0  0
    2.5915   -0.2580    6.5885 O   0  0  0  0  0  0
    1.9279   -6.7157    9.2700 O   0  0  0  0  0  0
   -2.4367   -6.2593    7.9595 O   0  0  0  0  0  0
   -2.9558   -5.3121    7.1357 C   0  0  0  0  0  0
   -3.4281   -5.5003    6.0307 O   0  0  0  0  0  0
   -2.9442   -3.9939    7.8592 C   0  0  0  0  0  0
   -2.9434   -2.7936    6.8992 C   0  0  0  0  0  0
   -4.0580   -1.7875    7.2136 C   0  0  0  0  0  0
   -4.5057   -1.9020    8.6523 C   0  0  0  0  0  0
   -5.5677   -2.4113    8.9937 O   0  0  0  0  0  0
   -3.6264   -1.3926    9.5277 O   0  0  0  0  0  0
   -1.5712   -2.1249    7.0610 C   0  0  0  0  0  0
   -0.6350   -2.3320    6.3041 O   0  0  0  0  0  0
   -1.4670   -1.3290    8.1342 O   0  0  0  0  0  0
   -4.4569   -9.2661    6.9077 O   0  0  0  0  0  0
   -3.6323  -10.3182    7.2700 C   0  0  0  0  0  0
   -2.5934  -10.6182    6.6964 O   0  0  0  0  0  0
   -4.1644  -11.0842    8.4884 C   0  0  0  0  0  0
   -5.4792  -11.8925    8.2590 C   0  0  0  0  0  0
   -6.5877  -11.2447    7.4093 C   0  0  0  0  0  0
   -6.3768  -11.4256    5.9337 C   0  0  0  0  0  0
   -5.7167  -10.6909    5.2119 O   0  0  0  0  0  0
   -6.9874  -12.5219    5.4586 O   0  0  0  0  0  0
   -5.2686  -13.3135    7.7217 C   0  0  0  0  0  0
   -6.1774  -14.0016    7.3007 O   0  0  0  0  0  0
   -3.9838  -13.7193    7.6447 O   0  0  0  0  0  0
    3.7655   -2.4218    2.6978 H   0  0  0  0  0  0
    3.3513   -1.7560    1.2814 H   0  0  0  0  0  0
    0.1070   -2.9146    4.4692 H   0  0  0  0  0  0
    1.9834   -0.6409    7.2475 H   0  0  0  0  0  0
    1.5796   -7.6135    9.4010 H   0  0  0  0  0  0
   -2.7665   -1.1278    9.1482 H   0  0  0  0  0  0
   -0.5873   -0.8874    8.2333 H   0  0  0  0  0  0
   -6.7172  -12.6100    4.5203 H   0  0  0  0  0  0
   -3.3324  -13.1385    8.0969 H   0  0  0  0  0  0
  1  2  1  0  0  0
  2  3  1  0  0  0
  3  4  1  0  0  0
  4  5  1  0  0  0
  5  6  1  0  0  0
  5  7  1  0  0  0
  7  8  1  0  0  0
  7 39  1  0  0  0
  8  9  1  0  0  0
  8 27  1  0  0  0
  9 10  1  0  0  0
 10 11  1  0  0  0
 10 12  1  0  0  0
 12 13  1  0  0  0
 13 14  1  0  0  0
 13 26  1  0  0  0
 14 15  1  0  0  0
 15 16  1  0  0  0
 16 17  1  0  0  0
 17 18  1  0  0  0
 18 19  1  0  0  0
 18 25  1  0  0  0
 19 20  1  0  0  0
 20 21  1  0  0  0
 20 24  1  0  0  0
 21 22  1  0  0  0
 21 23  1  0  0  0
 23 51  1  0  0  0
 23 52  1  0  0  0
 24 53  1  0  0  0
 25 54  1  0  0  0
 26 55  1  0  0  0
 27 28  1  0  0  0
 28 29  2  0  0  0
 28 30  1  0  0  0
 30 31  1  0  0  0
 31 32  1  0  0  0
 31 36  1  0  0  0
 32 33  1  0  0  0
 33 34  2  0  0  0
 33 35  1  0  0  0
 35 56  1  0  0  0
 36 37  2  0  0  0
 36 38  1  0  0  0
 38 57  1  0  0  0
 39 40  1  0  0  0
 40 41  2  0  0  0
 40 42  1  0  0  0
 42 43  1  0  0  0
 43 44  1  0  0  0
 43 48  1  0  0  0
 44 45  1  0  0  0
 45 46  2  0  0  0
 45 47  1  0  0  0
 47 58  1  0  0  0
 48 49  2  0  0  0
 48 50  1  0  0  0
 50 59  1  0  0  0
M  END
>  <AUTHOR>
    GENERATED BY OPEN BABEL 2.4.1

>  <CHROM.1>
163.47235564,76.26657796,123.76034881,-159.54680085,-177.03963688,-95.65465365
-160.02607477,-60.50758997,153.35695554,166.29878046,161.81604657,51.50245063
66.24721771,167.63416698,65.69966958,68.53158036,-62.10963178,176.16096483
-61.22757839,68.61183235,-68.64768718,72.02649718,-66.23699719,-6.94708866
156.23197748,127.62808379,23.06314894,97.49561511,-106.01542441,-8.02625706
-179.19496481,-86.31230602,68.02509281,-40.73359823,83.28585564,-168.63859408
-87.08307990,-174.03609950,11.25857372,-2.15407061,-6.12839171,6.98819735
2.29200217,-0.23293899,-3.10547035

>  <COMPND>
    UNNAMED

>  <MASTER>
        0    0    0    0    0    0    0    0  109    0  109    0

>  <Name>
FB1.pdb

>  <RI>
0

>  <Rbt.Current_Directory>
/home/fc/tossine/F10/p3/2_clust03

>  <Rbt.Executable>
rbdock/0.1.0

>  <Rbt.Library>
librxdock.so/0.1.0

>  <Rbt.Parameter_File>
/cluster/rxdock/data/scripts/dock.prm

>  <Rbt.Receptor>
rx_1.prm

>  <SCORE>
17.8015

>  <SCORE.INTER>
5.73365

>  <SCORE.INTER.CONST>
1

>  <SCORE.INTER.POLAR>
-0.466585

>  <SCORE.INTER.REPUL>
0.14845

>  <SCORE.INTER.ROT>
32

>  <SCORE.INTER.VDW>
-30.8222

>  <SCORE.INTER.norm>
0.114673

>  <SCORE.INTRA>
11.8938

>  <SCORE.INTRA.DIHEDRAL>
24.7894

>  <SCORE.INTRA.DIHEDRAL.0>
47.3121

>  <SCORE.INTRA.POLAR>
-0.516341

>  <SCORE.INTRA.POLAR.0>
-1.47808

>  <SCORE.INTRA.REPUL>
0

>  <SCORE.INTRA.REPUL.0>
0

>  <SCORE.INTRA.VDW>
1.25464

>  <SCORE.INTRA.VDW.0>
-2.78316

>  <SCORE.INTRA.norm>
0.237876

>  <SCORE.RESTR>
0.174088

>  <SCORE.RESTR.CAVITY>
0.174088

>  <SCORE.RESTR.norm>
0.00348176

>  <SCORE.SYSTEM>
0

>  <SCORE.SYSTEM.CONST>
0

>  <SCORE.SYSTEM.DIHEDRAL>
0

>  <SCORE.SYSTEM.norm>
0

>  <SCORE.heavy>
50

>  <SCORE.norm>
0.356031

$$$$
