FB1.pdb
  RxDock  10092023123D
librxdock.so/0.1.0
 59 58  0  0  0  0  0  0  0  0999 V2000
   -6.7931   -2.4491   10.0462 C   0  0  0  0  0  0
   -6.9743   -3.3493    8.8263 C   0  0  0  0  0  0
   -5.8810   -4.4275    8.7469 C   0  0  0  0  0  0
   -5.7064   -5.0268    7.3291 C   0  0  0  0  0  0
   -4.5553   -6.0839    7.1948 C   0  0  0  0  0  0
   -4.5660   -6.6323    5.7492 C   0  0  0  0  0  0
   -3.1242   -5.5134    7.5748 C   0  0  0  0  0  0
   -1.8648   -6.4589    7.2813 C   0  0  0  0  0  0
   -0.6589   -6.7147    8.2856 C   0  0  0  0  0  0
    0.7196   -7.2952    7.5899 C   0  0  0  0  0  0
    0.4199   -7.6376    6.1315 C   0  0  0  0  0  0
    1.9987   -6.3449    7.6643 C   0  0  0  0  0  0
    1.9678   -4.8227    8.2126 C   0  0  0  0  0  0
    1.0502   -3.7205    7.5806 C   0  0  0  0  0  0
    1.6414   -2.2467    7.4144 C   0  0  0  0  0  0
    2.8979   -1.8881    6.5271 C   0  0  0  0  0  0
    2.9627   -2.3828    5.0579 C   0  0  0  0  0  0
    1.6513   -2.2122    4.1975 C   0  0  0  0  0  0
    1.4714   -0.8613    3.4937 C   0  0  0  0  0  0
    2.6113   -0.3566    2.5642 C   0  0  0  0  0  0
    3.8838    0.3118    3.1638 C   0  0  0  0  0  0
    5.1405    0.2677    2.3057 C   0  0  0  0  0  0
    3.5951    1.6894    3.6057 N   0  0  0  0  0  0
    3.0940   -1.5488    1.8938 O   0  0  0  0  0  0
    1.6347   -3.2464    3.2076 O   0  0  0  0  0  0
    1.5368   -4.9310    9.5798 O   0  0  0  0  0  0
   -2.4031   -7.7835    7.0206 O   0  0  0  0  0  0
   -2.9979   -8.4234    8.0608 C   0  0  0  0  0  0
   -3.3133   -7.9268    9.1254 O   0  0  0  0  0  0
   -3.2986   -9.8359    7.6416 C   0  0  0  0  0  0
   -4.5923  -10.3761    8.2718 C   0  0  0  0  0  0
   -5.7855  -10.3158    7.3095 C   0  0  0  0  0  0
   -7.0248  -10.9071    7.9403 C   0  0  0  0  0  0
   -7.0280  -11.4739    9.0277 O   0  0  0  0  0  0
   -8.1294  -10.7518    7.1956 O   0  0  0  0  0  0
   -4.2988  -11.8334    8.6540 C   0  0  0  0  0  0
   -4.3283  -12.2397    9.8057 O   0  0  0  0  0  0
   -3.9574  -12.6177    7.6224 O   0  0  0  0  0  0
   -2.9306   -4.1473    7.0305 O   0  0  0  0  0  0
   -2.4302   -3.1676    7.8718 C   0  0  0  0  0  0
   -2.2878   -3.2942    9.0810 O   0  0  0  0  0  0
   -2.0646   -1.8820    7.1182 C   0  0  0  0  0  0
   -1.6486   -0.6699    8.0084 C   0  0  0  0  0  0
   -1.2051    0.6257    7.3049 C   0  0  0  0  0  0
    0.2796    0.6996    7.0933 C   0  0  0  0  0  0
    0.8873    0.2428    6.1349 O   0  0  0  0  0  0
    0.9068    1.3555    8.0816 O   0  0  0  0  0  0
   -2.6804   -0.2769    9.0729 C   0  0  0  0  0  0
   -3.6644    0.3912    8.8238 O   0  0  0  0  0  0
   -2.4839   -0.8127   10.2959 O   0  0  0  0  0  0
    4.3226    1.9923    4.2519 H   0  0  0  0  0  0
    2.7364    1.6813    4.1607 H   0  0  0  0  0  0
    2.3096   -1.9018    1.4232 H   0  0  0  0  0  0
    1.5059   -4.0997    3.6613 H   0  0  0  0  0  0
    1.5213   -4.0376    9.9619 H   0  0  0  0  0  0
   -8.0074  -10.2451    6.3698 H   0  0  0  0  0  0
   -4.0430  -12.1885    6.7351 H   0  0  0  0  0  0
    1.8684    1.2346    7.9335 H   0  0  0  0  0  0
   -1.5661   -1.1123   10.4803 H   0  0  0  0  0  0
  1  2  1  0  0  0
  2  3  1  0  0  0
  3  4  1  0  0  0
  4  5  1  0  0  0
  5  6  1  0  0  0
  5  7  1  0  0  0
  7  8  1  0  0  0
  7 39  1  0  0  0
  8  9  1  0  0  0
  8 27  1  0  0  0
  9 10  1  0  0  0
 10 11  1  0  0  0
 10 12  1  0  0  0
 12 13  1  0  0  0
 13 14  1  0  0  0
 13 26  1  0  0  0
 14 15  1  0  0  0
 15 16  1  0  0  0
 16 17  1  0  0  0
 17 18  1  0  0  0
 18 19  1  0  0  0
 18 25  1  0  0  0
 19 20  1  0  0  0
 20 21  1  0  0  0
 20 24  1  0  0  0
 21 22  1  0  0  0
 21 23  1  0  0  0
 23 51  1  0  0  0
 23 52  1  0  0  0
 24 53  1  0  0  0
 25 54  1  0  0  0
 26 55  1  0  0  0
 27 28  1  0  0  0
 28 29  2  0  0  0
 28 30  1  0  0  0
 30 31  1  0  0  0
 31 32  1  0  0  0
 31 36  1  0  0  0
 32 33  1  0  0  0
 33 34  2  0  0  0
 33 35  1  0  0  0
 35 56  1  0  0  0
 36 37  2  0  0  0
 36 38  1  0  0  0
 38 57  1  0  0  0
 39 40  1  0  0  0
 40 41  2  0  0  0
 40 42  1  0  0  0
 42 43  1  0  0  0
 43 44  1  0  0  0
 43 48  1  0  0  0
 44 45  1  0  0  0
 45 46  2  0  0  0
 45 47  1  0  0  0
 47 58  1  0  0  0
 48 49  2  0  0  0
 48 50  1  0  0  0
 50 59  1  0  0  0
M  END
>  <AUTHOR>
    GENERATED BY OPEN BABEL 2.4.1

>  <CHROM.1>
-159.56660344,177.34984209,177.04418483,-172.04881589,-135.12822863,132.47611355
-160.44296265,-67.05304008,-8.06336203,-7.33983532,-58.03759225,-140.28477073
178.74998374,61.57660263,50.50681687,44.96312396,86.47556038,54.50849084
68.25501336,-79.71566519,156.35149018,59.14138290,161.70682375,12.38913892
-146.04222658,99.86512010,177.61072557,117.63625286,-6.56048467,-2.81094408
-6.99654750,-9.57527576,173.20737580,177.07882270,-92.67049221,-80.07262535
86.85488807,171.45552160,21.59436775,-1.55766248,-4.57877736,7.09123023,2.32002626
-0.51899540,-3.03494679

>  <COMPND>
    UNNAMED

>  <MASTER>
        0    0    0    0    0    0    0    0  109    0  109    0

>  <Name>
FB1.pdb

>  <RI>
0

>  <Rbt.Current_Directory>
/home/fc/tossine/F10/p3/2_clust03

>  <Rbt.Executable>
rbdock/0.1.0

>  <Rbt.Library>
librxdock.so/0.1.0

>  <Rbt.Parameter_File>
/cluster/rxdock/data/scripts/dock.prm

>  <Rbt.Receptor>
rx_0.prm

>  <SCORE>
10.8284

>  <SCORE.INTER>
-2.15938

>  <SCORE.INTER.CONST>
1

>  <SCORE.INTER.POLAR>
-4.25284

>  <SCORE.INTER.REPUL>
0.0149631

>  <SCORE.INTER.ROT>
32

>  <SCORE.INTER.VDW>
-25.1745

>  <SCORE.INTER.norm>
-0.0431877

>  <SCORE.INTRA>
12.9878

>  <SCORE.INTRA.DIHEDRAL>
14.48

>  <SCORE.INTRA.DIHEDRAL.0>
47.3121

>  <SCORE.INTRA.POLAR>
1.47808

>  <SCORE.INTRA.POLAR.0>
-1.47808

>  <SCORE.INTRA.REPUL>
0

>  <SCORE.INTRA.REPUL.0>
0

>  <SCORE.INTRA.VDW>
0.722309

>  <SCORE.INTRA.VDW.0>
-2.78316

>  <SCORE.INTRA.norm>
0.259755

>  <SCORE.RESTR>
0

>  <SCORE.RESTR.CAVITY>
0

>  <SCORE.RESTR.norm>
0

>  <SCORE.SYSTEM>
0

>  <SCORE.SYSTEM.CONST>
0

>  <SCORE.SYSTEM.DIHEDRAL>
0

>  <SCORE.SYSTEM.norm>
0

>  <SCORE.heavy>
50

>  <SCORE.norm>
0.216568

$$$$
