FB1.pdb
  RxDock  10102002223D
librxdock.so/0.1.0
 59 58  0  0  0  0  0  0  0  0999 V2000
    0.2416    2.6213    9.1771 C   0  0  0  0  0  0
    1.5335    1.9274    8.7519 C   0  0  0  0  0  0
    1.3388    1.0950    7.4739 C   0  0  0  0  0  0
    0.6411   -0.2654    7.7232 C   0  0  0  0  0  0
    1.1912   -1.4581    6.8656 C   0  0  0  0  0  0
    1.9053   -2.4489    7.8137 C   0  0  0  0  0  0
    0.0731   -2.1938    6.0134 C   0  0  0  0  0  0
   -1.1991   -2.7505    6.8119 C   0  0  0  0  0  0
   -1.4945   -4.2846    7.1075 C   0  0  0  0  0  0
   -1.6891   -5.2299    5.7696 C   0  0  0  0  0  0
   -0.4251   -6.0666    5.5788 C   0  0  0  0  0  0
   -2.9679   -6.1835    5.7625 C   0  0  0  0  0  0
   -4.4592   -5.7051    6.1697 C   0  0  0  0  0  0
   -4.9017   -5.5119    7.6606 C   0  0  0  0  0  0
   -4.5659   -6.6706    8.7065 C   0  0  0  0  0  0
   -4.8818   -8.2000    8.4702 C   0  0  0  0  0  0
   -3.9559   -9.2773    9.0942 C   0  0  0  0  0  0
   -3.6227  -10.5289    8.1932 C   0  0  0  0  0  0
   -3.3350  -10.2439    6.7139 C   0  0  0  0  0  0
   -2.2169  -11.0631    6.0090 C   0  0  0  0  0  0
   -0.7308  -10.6037    6.0864 C   0  0  0  0  0  0
   -0.3233   -9.8359    7.3361 C   0  0  0  0  0  0
    0.1827  -11.7359    5.8418 N   0  0  0  0  0  0
   -2.2438  -12.3585    6.6609 O   0  0  0  0  0  0
   -2.4855  -11.1899    8.7585 O   0  0  0  0  0  0
   -4.6107   -4.4108    5.5626 O   0  0  0  0  0  0
   -1.1559   -2.1326    8.1268 O   0  0  0  0  0  0
   -2.3041   -2.1455    8.8525 C   0  0  0  0  0  0
   -3.2661   -2.8655    8.6642 O   0  0  0  0  0  0
   -2.1523   -1.1863   10.0007 C   0  0  0  0  0  0
   -3.4525   -0.4283   10.3125 C   0  0  0  0  0  0
   -4.5261   -0.6334    9.2360 C   0  0  0  0  0  0
   -5.8646   -0.1013    9.6927 C   0  0  0  0  0  0
   -5.9951    0.9025   10.3848 O   0  0  0  0  0  0
   -6.9043   -0.8334    9.2662 O   0  0  0  0  0  0
   -3.9472   -0.9751   11.6587 C   0  0  0  0  0  0
   -4.6093   -1.9967   11.7608 O   0  0  0  0  0  0
   -3.6347   -0.2112   12.7144 O   0  0  0  0  0  0
   -0.3226   -1.3833    4.8359 O   0  0  0  0  0  0
    0.6453   -0.6178    4.2074 C   0  0  0  0  0  0
    1.7423   -0.3548    4.6827 O   0  0  0  0  0  0
    0.1934   -0.1237    2.8268 C   0  0  0  0  0  0
    1.3261    0.0632    1.7701 C   0  0  0  0  0  0
    1.0930   -0.4934    0.3537 C   0  0  0  0  0  0
    0.6824   -1.9376    0.3512 C   0  0  0  0  0  0
    1.1053   -2.8009    1.1078 O   0  0  0  0  0  0
   -0.2432   -2.2064   -0.5822 O   0  0  0  0  0  0
    1.8205    1.5067    1.6139 C   0  0  0  0  0  0
    1.0799    2.4683    1.6735 O   0  0  0  0  0  0
    3.1581    1.6530    1.5109 O   0  0  0  0  0  0
    1.1256  -11.3785    5.6942 H   0  0  0  0  0  0
   -0.0736  -12.1768    4.9555 H   0  0  0  0  0  0
   -1.7719  -12.2178    7.5088 H   0  0  0  0  0  0
   -2.4681  -12.1053    8.4236 H   0  0  0  0  0  0
   -5.5582   -4.1955    5.5460 H   0  0  0  0  0  0
   -7.7243   -0.7358    9.7874 H   0  0  0  0  0  0
   -3.5109   -0.7104   13.5595 H   0  0  0  0  0  0
   -0.6874   -3.0361   -0.3072 H   0  0  0  0  0  0
    3.6689    0.8151    1.4556 H   0  0  0  0  0  0
  1  2  1  0  0  0
  2  3  1  0  0  0
  3  4  1  0  0  0
  4  5  1  0  0  0
  5  6  1  0  0  0
  5  7  1  0  0  0
  7  8  1  0  0  0
  7 39  1  0  0  0
  8  9  1  0  0  0
  8 27  1  0  0  0
  9 10  1  0  0  0
 10 11  1  0  0  0
 10 12  1  0  0  0
 12 13  1  0  0  0
 13 14  1  0  0  0
 13 26  1  0  0  0
 14 15  1  0  0  0
 15 16  1  0  0  0
 16 17  1  0  0  0
 17 18  1  0  0  0
 18 19  1  0  0  0
 18 25  1  0  0  0
 19 20  1  0  0  0
 20 21  1  0  0  0
 20 24  1  0  0  0
 21 22  1  0  0  0
 21 23  1  0  0  0
 23 51  1  0  0  0
 23 52  1  0  0  0
 24 53  1  0  0  0
 25 54  1  0  0  0
 26 55  1  0  0  0
 27 28  1  0  0  0
 28 29  2  0  0  0
 28 30  1  0  0  0
 30 31  1  0  0  0
 31 32  1  0  0  0
 31 36  1  0  0  0
 32 33  1  0  0  0
 33 34  2  0  0  0
 33 35  1  0  0  0
 35 56  1  0  0  0
 36 37  2  0  0  0
 36 38  1  0  0  0
 38 57  1  0  0  0
 39 40  1  0  0  0
 40 41  2  0  0  0
 40 42  1  0  0  0
 42 43  1  0  0  0
 43 44  1  0  0  0
 43 48  1  0  0  0
 44 45  1  0  0  0
 45 46  2  0  0  0
 45 47  1  0  0  0
 47 58  1  0  0  0
 48 49  2  0  0  0
 48 50  1  0  0  0
 50 59  1  0  0  0
M  END
>  <AUTHOR>
    GENERATED BY OPEN BABEL 2.4.1

>  <CHROM.1>
-78.18775060,-141.80102611,111.89820727,-55.10329916,-107.37607357,34.39258611
-61.31682490,162.09636274,104.62553449,46.45240136,-77.41879565,-47.93853957
163.28962830,-49.56141799,148.84310248,-139.40493102,41.23277535,141.59423469
159.87582530,-85.83501083,29.47205458,-78.58675474,167.65124238,17.82944176
142.74595075,-10.23230279,169.15491658,-83.79676510,35.75704069,158.22795529
-149.95653385,-14.38771085,-149.22430076,133.95911620,-52.36792038,-37.37795412
-37.39749286,-159.24380511,5.90795250,-1.57974125,-3.41286953,6.62430706
0.94533793,0.97626201,0.20825475

>  <COMPND>
    UNNAMED

>  <MASTER>
        0    0    0    0    0    0    0    0  109    0  109    0

>  <Name>
FB1.pdb

>  <RI>
0

>  <Rbt.Current_Directory>
/home/fc/tossine/F10/p3/2_clust03

>  <Rbt.Executable>
rbdock/0.1.0

>  <Rbt.Library>
librxdock.so/0.1.0

>  <Rbt.Parameter_File>
/cluster/rxdock/data/scripts/dock.prm

>  <Rbt.Receptor>
rx_4.prm

>  <SCORE>
73.1755

>  <SCORE.INTER>
32.7297

>  <SCORE.INTER.CONST>
1

>  <SCORE.INTER.POLAR>
-2.31754

>  <SCORE.INTER.REPUL>
1.18881

>  <SCORE.INTER.ROT>
32

>  <SCORE.INTER.VDW>
-2.73473

>  <SCORE.INTER.norm>
0.654594

>  <SCORE.INTRA>
40.0885

>  <SCORE.INTRA.DIHEDRAL>
45.4461

>  <SCORE.INTRA.DIHEDRAL.0>
47.3121

>  <SCORE.INTRA.POLAR>
1.47808

>  <SCORE.INTRA.POLAR.0>
-1.47808

>  <SCORE.INTRA.REPUL>
0

>  <SCORE.INTRA.REPUL.0>
0

>  <SCORE.INTRA.VDW>
12.34

>  <SCORE.INTRA.VDW.0>
-2.78316

>  <SCORE.INTRA.norm>
0.801771

>  <SCORE.RESTR>
0.357327

>  <SCORE.RESTR.CAVITY>
0.357327

>  <SCORE.RESTR.norm>
0.00714653

>  <SCORE.SYSTEM>
0

>  <SCORE.SYSTEM.CONST>
0

>  <SCORE.SYSTEM.DIHEDRAL>
0

>  <SCORE.SYSTEM.norm>
0

>  <SCORE.heavy>
50

>  <SCORE.norm>
1.46351

$$$$
