FB1.pdb
  RxDock  10102000083D
librxdock.so/0.1.0
 59 58  0  0  0  0  0  0  0  0999 V2000
    5.3959   -0.7616    2.3417 C   0  0  0  0  0  0
    4.9598   -2.1933    2.0392 C   0  0  0  0  0  0
    4.5898   -2.9585    3.3206 C   0  0  0  0  0  0
    3.3393   -2.3926    4.0386 C   0  0  0  0  0  0
    2.7651   -3.3005    5.1816 C   0  0  0  0  0  0
    3.6087   -3.0681    6.4563 C   0  0  0  0  0  0
    1.2236   -3.0576    5.4691 C   0  0  0  0  0  0
    0.3516   -4.3371    5.8799 C   0  0  0  0  0  0
    0.7670   -5.4151    6.9725 C   0  0  0  0  0  0
    0.7486   -6.9806    6.4528 C   0  0  0  0  0  0
    1.3149   -7.0277    5.0347 C   0  0  0  0  0  0
    1.5167   -8.0352    7.3708 C   0  0  0  0  0  0
    1.1862   -8.2875    8.9347 C   0  0  0  0  0  0
    2.1960   -7.9224   10.0763 C   0  0  0  0  0  0
    3.6872   -8.4842    9.9767 C   0  0  0  0  0  0
    4.0506  -10.0019    9.7334 C   0  0  0  0  0  0
    5.5247  -10.4665    9.8699 C   0  0  0  0  0  0
    6.2687  -10.0704   11.2036 C   0  0  0  0  0  0
    5.6810  -10.6352   12.5029 C   0  0  0  0  0  0
    6.2774  -11.9548   13.0694 C   0  0  0  0  0  0
    5.5083  -12.7710   14.1501 C   0  0  0  0  0  0
    6.1521  -14.0752   14.5995 C   0  0  0  0  0  0
    5.1717  -11.9223   15.3089 N   0  0  0  0  0  0
    6.3667  -12.8396   11.9236 O   0  0  0  0  0  0
    7.6296  -10.5015   11.0949 O   0  0  0  0  0  0
    0.0181   -7.4922    9.1985 O   0  0  0  0  0  0
   -0.9260   -3.8253    6.3470 O   0  0  0  0  0  0
   -1.9915   -4.6645    6.2716 C   0  0  0  0  0  0
   -2.0213   -5.7402    5.7048 O   0  0  0  0  0  0
   -3.1097   -4.0893    7.0964 C   0  0  0  0  0  0
   -4.3556   -4.9892    7.1113 C   0  0  0  0  0  0
   -4.1127   -6.3189    7.8368 C   0  0  0  0  0  0
   -4.7613   -7.4680    7.1005 C   0  0  0  0  0  0
   -5.7979   -8.0104    7.4681 O   0  0  0  0  0  0
   -4.0940   -7.8413    5.9986 O   0  0  0  0  0  0
   -5.4464   -4.1876    7.8349 C   0  0  0  0  0  0
   -5.2410   -3.1025    8.3570 O   0  0  0  0  0  0
   -6.6372   -4.7998    7.8910 O   0  0  0  0  0  0
    1.0258   -1.9272    6.4088 O   0  0  0  0  0  0
    0.7504   -0.6752    5.8849 C   0  0  0  0  0  0
    0.3426    0.2778    6.5361 O   0  0  0  0  0  0
    1.0144   -0.6030    4.3752 C   0  0  0  0  0  0
   -0.2531   -0.6002    3.4652 C   0  0  0  0  0  0
   -0.4618   -1.7910    2.5119 C   0  0  0  0  0  0
    0.5850   -1.8736    1.4386 C   0  0  0  0  0  0
    0.5986   -1.2218    0.4034 O   0  0  0  0  0  0
    1.5568   -2.7497    1.7360 O   0  0  0  0  0  0
   -1.5743   -0.3817    4.2129 C   0  0  0  0  0  0
   -2.3097    0.5603    3.9925 O   0  0  0  0  0  0
   -1.9274   -1.3665    5.0654 O   0  0  0  0  0  0
    4.6354  -11.1171   14.9886 H   0  0  0  0  0  0
    6.0361  -11.5292   15.6879 H   0  0  0  0  0  0
    7.2221  -13.3051   12.0374 H   0  0  0  0  0  0
    8.0093  -10.1093   10.2871 H   0  0  0  0  0  0
   -0.2171   -7.6048   10.1348 H   0  0  0  0  0  0
   -3.2775   -7.3381    5.8155 H   0  0  0  0  0  0
   -7.3127   -4.3328    8.4427 H   0  0  0  0  0  0
    1.2137   -3.3155    2.4595 H   0  0  0  0  0  0
   -1.2422   -2.0544    5.2189 H   0  0  0  0  0  0
  1  2  1  0  0  0
  2  3  1  0  0  0
  3  4  1  0  0  0
  4  5  1  0  0  0
  5  6  1  0  0  0
  5  7  1  0  0  0
  7  8  1  0  0  0
  7 39  1  0  0  0
  8  9  1  0  0  0
  8 27  1  0  0  0
  9 10  1  0  0  0
 10 11  1  0  0  0
 10 12  1  0  0  0
 12 13  1  0  0  0
 13 14  1  0  0  0
 13 26  1  0  0  0
 14 15  1  0  0  0
 15 16  1  0  0  0
 16 17  1  0  0  0
 17 18  1  0  0  0
 18 19  1  0  0  0
 18 25  1  0  0  0
 19 20  1  0  0  0
 20 21  1  0  0  0
 20 24  1  0  0  0
 21 22  1  0  0  0
 21 23  1  0  0  0
 23 51  1  0  0  0
 23 52  1  0  0  0
 24 53  1  0  0  0
 25 54  1  0  0  0
 26 55  1  0  0  0
 27 28  1  0  0  0
 28 29  2  0  0  0
 28 30  1  0  0  0
 30 31  1  0  0  0
 31 32  1  0  0  0
 31 36  1  0  0  0
 32 33  1  0  0  0
 33 34  2  0  0  0
 33 35  1  0  0  0
 35 56  1  0  0  0
 36 37  2  0  0  0
 36 38  1  0  0  0
 38 57  1  0  0  0
 39 40  1  0  0  0
 40 41  2  0  0  0
 40 42  1  0  0  0
 42 43  1  0  0  0
 43 44  1  0  0  0
 43 48  1  0  0  0
 44 45  1  0  0  0
 45 46  2  0  0  0
 45 47  1  0  0  0
 47 58  1  0  0  0
 48 49  2  0  0  0
 48 50  1  0  0  0
 50 59  1  0  0  0
M  END
>  <AUTHOR>
    GENERATED BY OPEN BABEL 2.4.1

>  <CHROM.1>
65.63654376,168.63079143,80.91946547,144.75815685,47.37986511,96.38807235
-126.38001315,155.63354820,40.32446078,57.30690966,-113.14592132,-52.69174457
-179.50367889,-51.33357159,-170.71478539,51.60799919,61.93094493,94.77889305
55.48926975,-164.03521226,177.71087212,139.88920464,56.35975632,-9.62532708
-178.30367101,66.70091162,-139.00880113,-5.17589599,-104.28606240,0.62492367
173.47854313,166.73632943,105.21541174,-115.76253190,-65.79675514,119.23204162
-80.96651031,16.33109005,8.67573028,0.93614114,-5.51070982,7.08614152,-2.03497061
-0.06572319,2.40567766

>  <COMPND>
    UNNAMED

>  <MASTER>
        0    0    0    0    0    0    0    0  109    0  109    0

>  <Name>
FB1.pdb

>  <RI>
0

>  <Rbt.Current_Directory>
/home/fc/tossine/F10/p3/2_clust03

>  <Rbt.Executable>
rbdock/0.1.0

>  <Rbt.Library>
librxdock.so/0.1.0

>  <Rbt.Parameter_File>
/cluster/rxdock/data/scripts/dock.prm

>  <Rbt.Receptor>
rx_1.prm

>  <SCORE>
15.0221

>  <SCORE.INTER>
5.84158

>  <SCORE.INTER.CONST>
1

>  <SCORE.INTER.POLAR>
-2.18698

>  <SCORE.INTER.REPUL>
0.441761

>  <SCORE.INTER.ROT>
32

>  <SCORE.INTER.VDW>
-26.3315

>  <SCORE.INTER.norm>
0.116832

>  <SCORE.INTRA>
9.18054

>  <SCORE.INTRA.DIHEDRAL>
13.9981

>  <SCORE.INTRA.DIHEDRAL.0>
47.3121

>  <SCORE.INTRA.POLAR>
-0.329705

>  <SCORE.INTRA.POLAR.0>
-1.47808

>  <SCORE.INTRA.REPUL>
0

>  <SCORE.INTRA.REPUL.0>
0

>  <SCORE.INTRA.VDW>
3.30246

>  <SCORE.INTRA.VDW.0>
-2.78316

>  <SCORE.INTRA.norm>
0.183611

>  <SCORE.RESTR>
0

>  <SCORE.RESTR.CAVITY>
0

>  <SCORE.RESTR.norm>
0

>  <SCORE.SYSTEM>
0

>  <SCORE.SYSTEM.CONST>
0

>  <SCORE.SYSTEM.DIHEDRAL>
0

>  <SCORE.SYSTEM.norm>
0

>  <SCORE.heavy>
50

>  <SCORE.norm>
0.300442

$$$$
