FB1.pdb
  RxDock  10102001463D
librxdock.so/0.1.0
 59 58  0  0  0  0  0  0  0  0999 V2000
    0.3497   -8.2829   11.1628 C   0  0  0  0  0  0
   -0.0405   -7.9095    9.7346 C   0  0  0  0  0  0
   -1.1902   -8.7860    9.2109 C   0  0  0  0  0  0
   -1.6839   -8.3788    7.8001 C   0  0  0  0  0  0
   -2.5889   -7.0983    7.7600 C   0  0  0  0  0  0
   -3.7626   -7.3022    8.7457 C   0  0  0  0  0  0
   -1.8037   -5.7576    8.0821 C   0  0  0  0  0  0
   -0.6314   -5.3426    7.0723 C   0  0  0  0  0  0
   -0.6945   -5.4833    5.4898 C   0  0  0  0  0  0
    0.7588   -5.3635    4.7184 C   0  0  0  0  0  0
    1.6732   -6.4748    5.2312 C   0  0  0  0  0  0
    0.7138   -5.4008    3.1242 C   0  0  0  0  0  0
    0.1076   -4.2147    2.2053 C   0  0  0  0  0  0
    0.7060   -2.7663    2.2006 C   0  0  0  0  0  0
    0.0054   -1.6604    1.2866 C   0  0  0  0  0  0
    0.6067   -0.2267    1.0081 C   0  0  0  0  0  0
    1.2537    0.5702    2.1715 C   0  0  0  0  0  0
    2.8151    0.7845    2.0974 C   0  0  0  0  0  0
    3.6679   -0.4811    1.9439 C   0  0  0  0  0  0
    5.2159   -0.3323    1.9505 C   0  0  0  0  0  0
    6.1247   -1.4946    1.4521 C   0  0  0  0  0  0
    6.9777   -2.1872    2.5057 C   0  0  0  0  0  0
    5.3436   -2.4771    0.6768 N   0  0  0  0  0  0
    5.4833    0.7683    1.0445 O   0  0  0  0  0  0
    3.0896    1.6545    0.9940 O   0  0  0  0  0  0
    0.2506   -4.6842    0.8542 O   0  0  0  0  0  0
   -0.3821   -3.9287    7.2981 O   0  0  0  0  0  0
    0.8897   -3.5689    7.6117 C   0  0  0  0  0  0
    1.4560   -2.5504    7.2633 O   0  0  0  0  0  0
    1.4566   -4.5960    8.5526 C   0  0  0  0  0  0
    2.7271   -5.2633    8.0022 C   0  0  0  0  0  0
    4.0015   -4.4877    8.3598 C   0  0  0  0  0  0
    4.0695   -3.1765    7.6119 C   0  0  0  0  0  0
    4.3416   -2.1056    8.1437 O   0  0  0  0  0  0
    3.8044   -3.2939    6.3024 O   0  0  0  0  0  0
    2.7722   -6.6645    8.6271 C   0  0  0  0  0  0
    3.3849   -6.9177    9.6532 O   0  0  0  0  0  0
    2.1225   -7.6039    7.9262 O   0  0  0  0  0  0
   -2.7406   -4.6358    8.3347 O   0  0  0  0  0  0
   -2.2491   -3.4893    8.9363 C   0  0  0  0  0  0
   -1.1859   -3.4201    9.5389 O   0  0  0  0  0  0
   -3.1917   -2.2906    8.7661 C   0  0  0  0  0  0
   -4.6951   -2.6386    8.5353 C   0  0  0  0  0  0
   -5.6706   -1.4811    8.2544 C   0  0  0  0  0  0
   -6.1602   -0.8100    9.5052 C   0  0  0  0  0  0
   -5.6088    0.1190   10.0791 O   0  0  0  0  0  0
   -7.3158   -1.3291    9.9474 O   0  0  0  0  0  0
   -4.9448   -3.7106    7.4672 C   0  0  0  0  0  0
   -5.6402   -4.6878    7.6624 O   0  0  0  0  0  0
   -4.4264   -3.4469    6.2494 O   0  0  0  0  0  0
    4.5075   -2.0244    0.3099 H   0  0  0  0  0  0
    4.9954   -3.1952    1.3160 H   0  0  0  0  0  0
    5.2414    0.4234    0.1591 H   0  0  0  0  0  0
    4.0355    1.8894    1.0199 H   0  0  0  0  0  0
   -0.1225   -5.5803    0.8061 H   0  0  0  0  0  0
    3.6818   -4.2083    5.9825 H   0  0  0  0  0  0
    2.1915   -8.5167    8.3015 H   0  0  0  0  0  0
   -7.5653   -2.0377    9.3173 H   0  0  0  0  0  0
   -4.6501   -4.0983    5.5480 H   0  0  0  0  0  0
  1  2  1  0  0  0
  2  3  1  0  0  0
  3  4  1  0  0  0
  4  5  1  0  0  0
  5  6  1  0  0  0
  5  7  1  0  0  0
  7  8  1  0  0  0
  7 39  1  0  0  0
  8  9  1  0  0  0
  8 27  1  0  0  0
  9 10  1  0  0  0
 10 11  1  0  0  0
 10 12  1  0  0  0
 12 13  1  0  0  0
 13 14  1  0  0  0
 13 26  1  0  0  0
 14 15  1  0  0  0
 15 16  1  0  0  0
 16 17  1  0  0  0
 17 18  1  0  0  0
 18 19  1  0  0  0
 18 25  1  0  0  0
 19 20  1  0  0  0
 20 21  1  0  0  0
 20 24  1  0  0  0
 21 22  1  0  0  0
 21 23  1  0  0  0
 23 51  1  0  0  0
 23 52  1  0  0  0
 24 53  1  0  0  0
 25 54  1  0  0  0
 26 55  1  0  0  0
 27 28  1  0  0  0
 28 29  2  0  0  0
 28 30  1  0  0  0
 30 31  1  0  0  0
 31 32  1  0  0  0
 31 36  1  0  0  0
 32 33  1  0  0  0
 33 34  2  0  0  0
 33 35  1  0  0  0
 35 56  1  0  0  0
 36 37  2  0  0  0
 36 38  1  0  0  0
 38 57  1  0  0  0
 39 40  1  0  0  0
 40 41  2  0  0  0
 40 42  1  0  0  0
 42 43  1  0  0  0
 43 44  1  0  0  0
 43 48  1  0  0  0
 44 45  1  0  0  0
 45 46  2  0  0  0
 45 47  1  0  0  0
 47 58  1  0  0  0
 48 49  2  0  0  0
 48 50  1  0  0  0
 50 59  1  0  0  0
M  END
>  <AUTHOR>
    GENERATED BY OPEN BABEL 2.4.1

>  <CHROM.1>
176.08056641,-76.55441364,-54.02068128,62.66165495,40.16638302,164.80306939
-164.65047179,124.23398288,60.10176505,69.64529147,61.82180662,-178.31806840
50.59234459,-170.57640475,-42.10060647,111.71131965,-54.55354792,-176.44439855
172.17099356,-164.69116012,-112.16992175,-68.25329750,23.12827778,144.02619888
121.27759685,87.73525182,-69.56552860,-93.82660215,132.74563644,-5.24612806
176.85916204,-16.70171612,24.83405274,-175.57391997,-83.48062123,129.06034302
87.85006749,-0.45557096,-175.16790997,0.20546507,-3.66819854,6.15719409,-2.39979613
0.35971218,-0.75095575

>  <COMPND>
    UNNAMED

>  <MASTER>
        0    0    0    0    0    0    0    0  109    0  109    0

>  <Name>
FB1.pdb

>  <RI>
0

>  <Rbt.Current_Directory>
/home/fc/tossine/F10/p3/2_clust03

>  <Rbt.Executable>
rbdock/0.1.0

>  <Rbt.Library>
librxdock.so/0.1.0

>  <Rbt.Parameter_File>
/cluster/rxdock/data/scripts/dock.prm

>  <Rbt.Receptor>
rx_3.prm

>  <SCORE>
30.4567

>  <SCORE.INTER>
15.9342

>  <SCORE.INTER.CONST>
1

>  <SCORE.INTER.POLAR>
-2.97115

>  <SCORE.INTER.REPUL>
1.20821

>  <SCORE.INTER.ROT>
32

>  <SCORE.INTER.VDW>
-17.4049

>  <SCORE.INTER.norm>
0.318684

>  <SCORE.INTRA>
13.8131

>  <SCORE.INTRA.DIHEDRAL>
8.32663

>  <SCORE.INTRA.DIHEDRAL.0>
47.3121

>  <SCORE.INTRA.POLAR>
1.07687

>  <SCORE.INTRA.POLAR.0>
-1.47808

>  <SCORE.INTRA.REPUL>
0

>  <SCORE.INTRA.REPUL.0>
0

>  <SCORE.INTRA.VDW>
5.98845

>  <SCORE.INTRA.VDW.0>
-2.78316

>  <SCORE.INTRA.norm>
0.276263

>  <SCORE.RESTR>
0.709392

>  <SCORE.RESTR.CAVITY>
0.709392

>  <SCORE.RESTR.norm>
0.0141878

>  <SCORE.SYSTEM>
0

>  <SCORE.SYSTEM.CONST>
0

>  <SCORE.SYSTEM.DIHEDRAL>
0

>  <SCORE.SYSTEM.norm>
0

>  <SCORE.heavy>
50

>  <SCORE.norm>
0.609135

$$$$
