FB1.pdb
  RxDock  10102002253D
librxdock.so/0.1.0
 59 58  0  0  0  0  0  0  0  0999 V2000
   -5.0796   -9.1717    6.2541 C   0  0  0  0  0  0
   -6.0961   -8.4491    7.1350 C   0  0  0  0  0  0
   -5.4476   -7.8910    8.4126 C   0  0  0  0  0  0
   -4.9793   -6.4207    8.2758 C   0  0  0  0  0  0
   -3.8542   -6.1813    7.2093 C   0  0  0  0  0  0
   -4.4926   -5.5063    5.9733 C   0  0  0  0  0  0
   -2.6348   -5.3260    7.7564 C   0  0  0  0  0  0
   -1.3310   -5.2452    6.8291 C   0  0  0  0  0  0
   -0.0380   -4.3745    7.1421 C   0  0  0  0  0  0
    0.0718   -2.9585    6.3028 C   0  0  0  0  0  0
    0.6099   -1.8792    7.2407 C   0  0  0  0  0  0
    0.9498   -2.9965    4.9715 C   0  0  0  0  0  0
    2.3478   -3.7989    4.8289 C   0  0  0  0  0  0
    3.3504   -3.5374    3.6531 C   0  0  0  0  0  0
    3.6186   -2.0277    3.2080 C   0  0  0  0  0  0
    3.7552   -0.8162    4.2121 C   0  0  0  0  0  0
    4.4370    0.4951    3.7398 C   0  0  0  0  0  0
    4.0302    1.0269    2.3112 C   0  0  0  0  0  0
    4.5816    0.2446    1.1126 C   0  0  0  0  0  0
    6.1242    0.1476    0.9420 C   0  0  0  0  0  0
    6.9800    1.4325    0.7366 C   0  0  0  0  0  0
    8.4661    1.3130    1.0442 C   0  0  0  0  0  0
    6.7638    1.9984   -0.6086 N   0  0  0  0  0  0
    6.5969   -0.4229    2.1890 O   0  0  0  0  0  0
    2.6007    1.0319    2.2323 O   0  0  0  0  0  0
    3.0802   -3.4805    6.0243 O   0  0  0  0  0  0
   -0.8300   -6.6046    6.7132 O   0  0  0  0  0  0
   -1.4174   -7.4013    5.7828 C   0  0  0  0  0  0
   -1.5389   -7.1548    4.5980 O   0  0  0  0  0  0
   -1.8073   -8.6954    6.4422 C   0  0  0  0  0  0
   -0.6012   -9.4454    7.0298 C   0  0  0  0  0  0
   -1.0003  -10.7625    7.7077 C   0  0  0  0  0  0
   -2.0931  -11.4640    6.9349 C   0  0  0  0  0  0
   -3.2608  -11.5145    7.3057 O   0  0  0  0  0  0
   -1.6642  -12.0290    5.7966 O   0  0  0  0  0  0
    0.3374   -9.7262    5.8482 C   0  0  0  0  0  0
    0.4919  -10.8393    5.3690 O   0  0  0  0  0  0
    1.0151   -8.6549    5.4135 O   0  0  0  0  0  0
   -3.0802   -3.9841    8.2045 O   0  0  0  0  0  0
   -3.4076   -3.0431    7.2425 C   0  0  0  0  0  0
   -2.9242   -2.9988    6.1188 O   0  0  0  0  0  0
   -4.4595   -2.0424    7.7389 C   0  0  0  0  0  0
   -4.2998   -1.5691    9.2171 C   0  0  0  0  0  0
   -4.0210   -0.0766    9.4726 C   0  0  0  0  0  0
   -2.5790    0.2928    9.2758 C   0  0  0  0  0  0
   -2.0073    0.3875    8.1984 O   0  0  0  0  0  0
   -1.9496    0.5389   10.4349 O   0  0  0  0  0  0
   -5.4486   -1.9807   10.1461 C   0  0  0  0  0  0
   -6.5403   -2.3213    9.7353 O   0  0  0  0  0  0
   -5.1382   -2.0451   11.4579 O   0  0  0  0  0  0
    7.1322    1.3528   -1.3057 H   0  0  0  0  0  0
    7.3337    2.8420   -0.7035 H   0  0  0  0  0  0
    7.4398   -0.8652    1.9540 H   0  0  0  0  0  0
    2.2590    1.6075    2.9411 H   0  0  0  0  0  0
    3.7996   -4.1273    6.1174 H   0  0  0  0  0  0
   -0.7008  -11.9815    5.6451 H   0  0  0  0  0  0
    0.8675   -7.8332    5.9445 H   0  0  0  0  0  0
   -1.0175    0.7447   10.2107 H   0  0  0  0  0  0
   -5.8424   -2.4102   12.0384 H   0  0  0  0  0  0
  1  2  1  0  0  0
  2  3  1  0  0  0
  3  4  1  0  0  0
  4  5  1  0  0  0
  5  6  1  0  0  0
  5  7  1  0  0  0
  7  8  1  0  0  0
  7 39  1  0  0  0
  8  9  1  0  0  0
  8 27  1  0  0  0
  9 10  1  0  0  0
 10 11  1  0  0  0
 10 12  1  0  0  0
 12 13  1  0  0  0
 13 14  1  0  0  0
 13 26  1  0  0  0
 14 15  1  0  0  0
 15 16  1  0  0  0
 16 17  1  0  0  0
 17 18  1  0  0  0
 18 19  1  0  0  0
 18 25  1  0  0  0
 19 20  1  0  0  0
 20 21  1  0  0  0
 20 24  1  0  0  0
 21 22  1  0  0  0
 21 23  1  0  0  0
 23 51  1  0  0  0
 23 52  1  0  0  0
 24 53  1  0  0  0
 25 54  1  0  0  0
 26 55  1  0  0  0
 27 28  1  0  0  0
 28 29  2  0  0  0
 28 30  1  0  0  0
 30 31  1  0  0  0
 31 32  1  0  0  0
 31 36  1  0  0  0
 32 33  1  0  0  0
 33 34  2  0  0  0
 33 35  1  0  0  0
 35 56  1  0  0  0
 36 37  2  0  0  0
 36 38  1  0  0  0
 38 57  1  0  0  0
 39 40  1  0  0  0
 40 41  2  0  0  0
 40 42  1  0  0  0
 42 43  1  0  0  0
 43 44  1  0  0  0
 43 48  1  0  0  0
 44 45  1  0  0  0
 45 46  2  0  0  0
 45 47  1  0  0  0
 47 58  1  0  0  0
 48 49  2  0  0  0
 48 50  1  0  0  0
 50 59  1  0  0  0
M  END
>  <AUTHOR>
    GENERATED BY OPEN BABEL 2.4.1

>  <CHROM.1>
93.32228854,-63.18778941,105.33330529,169.68228332,176.01313714,-73.95326518
-101.52076677,82.48010625,140.17350282,-39.85716816,-164.54133920,41.86189823
163.58277115,39.63300052,161.08590042,44.01263014,-73.08437948,-60.60330163
59.02238908,-61.55896542,160.04665211,154.28388013,-66.60552510,54.71710387
-60.11003967,179.75130877,38.41795698,-107.62333205,-106.23074959,4.71230104
3.65084008,-28.78900706,39.66430115,116.73948137,-80.45608785,-18.70366285
73.33743670,178.44218477,-173.08070413,-0.44405939,-4.10571420,6.01577435
-2.57734928,0.62838943,0.12273820

>  <COMPND>
    UNNAMED

>  <MASTER>
        0    0    0    0    0    0    0    0  109    0  109    0

>  <Name>
FB1.pdb

>  <RI>
0

>  <Rbt.Current_Directory>
/home/fc/tossine/F10/p3/2_clust03

>  <Rbt.Executable>
rbdock/0.1.0

>  <Rbt.Library>
librxdock.so/0.1.0

>  <Rbt.Parameter_File>
/cluster/rxdock/data/scripts/dock.prm

>  <Rbt.Receptor>
rx_4.prm

>  <SCORE>
14.8702

>  <SCORE.INTER>
2.11804

>  <SCORE.INTER.CONST>
1

>  <SCORE.INTER.POLAR>
-2.59216

>  <SCORE.INTER.REPUL>
0.489069

>  <SCORE.INTER.ROT>
32

>  <SCORE.INTER.VDW>
-28.914

>  <SCORE.INTER.norm>
0.0423608

>  <SCORE.INTRA>
12.3164

>  <SCORE.INTRA.DIHEDRAL>
27.0564

>  <SCORE.INTRA.DIHEDRAL.0>
47.3121

>  <SCORE.INTRA.POLAR>
0.116704

>  <SCORE.INTRA.POLAR.0>
-1.47808

>  <SCORE.INTRA.REPUL>
0

>  <SCORE.INTRA.REPUL.0>
0

>  <SCORE.INTRA.VDW>
-1.60857

>  <SCORE.INTRA.VDW.0>
-2.78316

>  <SCORE.INTRA.norm>
0.246328

>  <SCORE.RESTR>
0.435802

>  <SCORE.RESTR.CAVITY>
0.435802

>  <SCORE.RESTR.norm>
0.00871604

>  <SCORE.SYSTEM>
0

>  <SCORE.SYSTEM.CONST>
0

>  <SCORE.SYSTEM.DIHEDRAL>
0

>  <SCORE.SYSTEM.norm>
0

>  <SCORE.heavy>
50

>  <SCORE.norm>
0.297405

$$$$
