FB1.pdb
  RxDock  10092023053D
librxdock.so/0.1.0
 59 58  0  0  0  0  0  0  0  0999 V2000
    1.1382   -7.1431    8.1685 C   0  0  0  0  0  0
    1.5489   -8.2454    7.1949 C   0  0  0  0  0  0
    0.3291   -9.0033    6.6455 C   0  0  0  0  0  0
   -0.4666   -8.2051    5.5827 C   0  0  0  0  0  0
   -1.1699   -6.9093    6.1182 C   0  0  0  0  0  0
   -1.4953   -5.9994    4.9112 C   0  0  0  0  0  0
   -2.4731   -7.2039    6.9743 C   0  0  0  0  0  0
   -3.1298   -5.9634    7.7465 C   0  0  0  0  0  0
   -3.0982   -4.4542    7.2471 C   0  0  0  0  0  0
   -2.6317   -3.3515    8.3819 C   0  0  0  0  0  0
   -1.1607   -3.5929    8.7168 C   0  0  0  0  0  0
   -2.8492   -1.8174    8.0027 C   0  0  0  0  0  0
   -2.2169   -0.5793    8.8309 C   0  0  0  0  0  0
   -1.7249    0.7347    8.1326 C   0  0  0  0  0  0
   -0.8177    0.6036    6.8254 C   0  0  0  0  0  0
    0.4484   -0.3338    6.7127 C   0  0  0  0  0  0
    1.2346   -0.3996    5.3767 C   0  0  0  0  0  0
    0.4701   -1.0068    4.1373 C   0  0  0  0  0  0
    0.9626   -0.5666    2.7530 C   0  0  0  0  0  0
    2.4957   -0.5125    2.4986 C   0  0  0  0  0  0
    3.3579    0.6359    3.1014 C   0  0  0  0  0  0
    4.8531    0.5791    2.8214 C   0  0  0  0  0  0
    2.8035    1.9544    2.7402 N   0  0  0  0  0  0
    3.0117   -1.7261    3.1027 O   0  0  0  0  0  0
    0.5590   -2.4334    4.2191 O   0  0  0  0  0  0
   -3.2620   -0.1604    9.7248 O   0  0  0  0  0  0
   -4.5446   -6.2695    7.8777 O   0  0  0  0  0  0
   -4.8862   -7.2393    8.7655 C   0  0  0  0  0  0
   -4.1179   -7.9423    9.3939 O   0  0  0  0  0  0
   -6.3817   -7.2349    8.9231 C   0  0  0  0  0  0
   -6.8539   -6.3002   10.0482 C   0  0  0  0  0  0
   -6.0135   -6.4427   11.3236 C   0  0  0  0  0  0
   -6.5305   -5.5413   12.4207 C   0  0  0  0  0  0
   -5.9890   -4.4906   12.7469 O   0  0  0  0  0  0
   -7.6459   -5.9998   13.0077 O   0  0  0  0  0  0
   -6.7283   -4.8747    9.4929 C   0  0  0  0  0  0
   -6.3403   -4.6320    8.3602 O   0  0  0  0  0  0
   -7.0333   -3.9100   10.3717 O   0  0  0  0  0  0
   -3.4753   -7.9572    6.1820 O   0  0  0  0  0  0
   -3.5123   -9.3361    6.3059 C   0  0  0  0  0  0
   -2.6167  -10.0159    6.7897 O   0  0  0  0  0  0
   -4.8166   -9.9362    5.7647 C   0  0  0  0  0  0
   -5.7185  -10.6553    6.8154 C   0  0  0  0  0  0
   -6.8541   -9.8463    7.4684 C   0  0  0  0  0  0
   -7.3881  -10.4874    8.7168 C   0  0  0  0  0  0
   -7.2593  -11.6640    9.0259 O   0  0  0  0  0  0
   -8.0311   -9.6144    9.5072 O   0  0  0  0  0  0
   -6.3242  -11.9801    6.3356 C   0  0  0  0  0  0
   -6.0142  -13.0567    6.8064 O   0  0  0  0  0  0
   -7.3113  -11.8688    5.4221 O   0  0  0  0  0  0
    1.8622    2.0370    3.1220 H   0  0  0  0  0  0
    2.6803    1.9902    1.7258 H   0  0  0  0  0  0
    3.0538   -1.5257    4.0616 H   0  0  0  0  0  0
    1.4906   -2.6883    4.0862 H   0  0  0  0  0  0
   -3.4940   -0.9155   10.2909 H   0  0  0  0  0  0
   -7.9941   -6.8366   12.6443 H   0  0  0  0  0  0
   -6.9344   -2.9901   10.0214 H   0  0  0  0  0  0
   -8.3610  -10.1228   10.2779 H   0  0  0  0  0  0
   -7.6213  -10.9522    5.2488 H   0  0  0  0  0  0
  1  2  1  0  0  0
  2  3  1  0  0  0
  3  4  1  0  0  0
  4  5  1  0  0  0
  5  6  1  0  0  0
  5  7  1  0  0  0
  7  8  1  0  0  0
  7 39  1  0  0  0
  8  9  1  0  0  0
  8 27  1  0  0  0
  9 10  1  0  0  0
 10 11  1  0  0  0
 10 12  1  0  0  0
 12 13  1  0  0  0
 13 14  1  0  0  0
 13 26  1  0  0  0
 14 15  1  0  0  0
 15 16  1  0  0  0
 16 17  1  0  0  0
 17 18  1  0  0  0
 18 19  1  0  0  0
 18 25  1  0  0  0
 19 20  1  0  0  0
 20 21  1  0  0  0
 20 24  1  0  0  0
 21 22  1  0  0  0
 21 23  1  0  0  0
 23 51  1  0  0  0
 23 52  1  0  0  0
 24 53  1  0  0  0
 25 54  1  0  0  0
 26 55  1  0  0  0
 27 28  1  0  0  0
 28 29  2  0  0  0
 28 30  1  0  0  0
 30 31  1  0  0  0
 31 32  1  0  0  0
 31 36  1  0  0  0
 32 33  1  0  0  0
 33 34  2  0  0  0
 33 35  1  0  0  0
 35 56  1  0  0  0
 36 37  2  0  0  0
 36 38  1  0  0  0
 38 57  1  0  0  0
 39 40  1  0  0  0
 40 41  2  0  0  0
 40 42  1  0  0  0
 42 43  1  0  0  0
 43 44  1  0  0  0
 43 48  1  0  0  0
 44 45  1  0  0  0
 45 46  2  0  0  0
 45 47  1  0  0  0
 47 58  1  0  0  0
 48 49  2  0  0  0
 48 50  1  0  0  0
 50 59  1  0  0  0
M  END
>  <AUTHOR>
    GENERATED BY OPEN BABEL 2.4.1

>  <CHROM.1>
75.01325052,-65.74452470,161.10303231,170.94560942,31.34735295,95.82246355
-131.33712727,72.18616752,67.09186845,-167.95361355,144.46719028,-46.22367561
59.30359588,-48.62590285,178.68423360,-65.36900651,155.47784348,43.49266960
-67.10929450,-74.63788275,178.57916723,-79.27241956,61.34699190,-5.51297698
-89.99155051,-44.77048018,-178.27935537,1.04588050,-103.69417049,-1.42591905
178.76317189,-16.32550508,-116.31795157,94.89891357,-163.38200675,112.79501537
-19.76661517,178.58672464,-7.83145935,-2.92921447,-5.44198880,7.30316911
-0.57987137,-0.71731234,-2.78838809

>  <COMPND>
    UNNAMED

>  <MASTER>
        0    0    0    0    0    0    0    0  109    0  109    0

>  <Name>
FB1.pdb

>  <RI>
0

>  <Rbt.Current_Directory>
/home/fc/tossine/F10/p3/2_clust03

>  <Rbt.Executable>
rbdock/0.1.0

>  <Rbt.Library>
librxdock.so/0.1.0

>  <Rbt.Parameter_File>
/cluster/rxdock/data/scripts/dock.prm

>  <Rbt.Receptor>
rx_0.prm

>  <SCORE>
6.43136

>  <SCORE.INTER>
3.01761

>  <SCORE.INTER.CONST>
1

>  <SCORE.INTER.POLAR>
-1.11803

>  <SCORE.INTER.REPUL>
0.0809132

>  <SCORE.INTER.ROT>
32

>  <SCORE.INTER.VDW>
-30.9857

>  <SCORE.INTER.norm>
0.0603522

>  <SCORE.INTRA>
3.34217

>  <SCORE.INTRA.DIHEDRAL>
-1.01662

>  <SCORE.INTRA.DIHEDRAL.0>
47.3121

>  <SCORE.INTRA.POLAR>
1.24349

>  <SCORE.INTRA.POLAR.0>
-1.47808

>  <SCORE.INTRA.REPUL>
0

>  <SCORE.INTRA.REPUL.0>
0

>  <SCORE.INTRA.VDW>
-0.37739

>  <SCORE.INTRA.VDW.0>
-2.78316

>  <SCORE.INTRA.norm>
0.0668433

>  <SCORE.RESTR>
0.0715863

>  <SCORE.RESTR.CAVITY>
0.0715863

>  <SCORE.RESTR.norm>
0.00143173

>  <SCORE.SYSTEM>
0

>  <SCORE.SYSTEM.CONST>
0

>  <SCORE.SYSTEM.DIHEDRAL>
0

>  <SCORE.SYSTEM.norm>
0

>  <SCORE.heavy>
50

>  <SCORE.norm>
0.128627

$$$$
