FB1.pdb
  RxDock  10092023043D
librxdock.so/0.1.0
 59 58  0  0  0  0  0  0  0  0999 V2000
    4.3822   -2.2836    7.5349 C   0  0  0  0  0  0
    3.9777   -3.7509    7.6570 C   0  0  0  0  0  0
    2.4567   -3.9109    7.8157 C   0  0  0  0  0  0
    1.9979   -5.3872    7.9137 C   0  0  0  0  0  0
    0.4497   -5.5904    8.0626 C   0  0  0  0  0  0
   -0.0372   -4.7477    9.2641 C   0  0  0  0  0  0
   -0.3654   -5.2306    6.7496 C   0  0  0  0  0  0
   -1.8893   -5.7202    6.6845 C   0  0  0  0  0  0
   -2.4212   -7.1271    7.2001 C   0  0  0  0  0  0
   -1.8778   -8.4337    6.3522 C   0  0  0  0  0  0
   -0.3859   -8.6073    6.6319 C   0  0  0  0  0  0
   -2.6362   -9.8112    6.6210 C   0  0  0  0  0  0
   -1.8932  -11.1962    7.0062 C   0  0  0  0  0  0
   -2.6499  -12.4009    7.6636 C   0  0  0  0  0  0
   -3.7504  -12.0873    8.7770 C   0  0  0  0  0  0
   -5.0199  -11.1780    8.5404 C   0  0  0  0  0  0
   -5.8270  -11.3196    7.2229 C   0  0  0  0  0  0
   -6.5748  -10.0280    6.7113 C   0  0  0  0  0  0
   -7.5349   -9.3608    7.7040 C   0  0  0  0  0  0
   -6.9537   -8.8171    9.0399 C   0  0  0  0  0  0
   -5.8764   -7.6924    9.0346 C   0  0  0  0  0  0
   -6.2910   -6.3600    8.4261 C   0  0  0  0  0  0
   -5.3085   -7.5024   10.3829 N   0  0  0  0  0  0
   -8.0930   -8.2425    9.7297 O   0  0  0  0  0  0
   -5.5850   -9.0697    6.3218 O   0  0  0  0  0  0
   -1.3898  -11.7047    5.7593 O   0  0  0  0  0  0
   -2.6617   -4.7458    7.4372 O   0  0  0  0  0  0
   -3.7927   -4.2712    6.8533 C   0  0  0  0  0  0
   -4.1523   -4.4760    5.7096 O   0  0  0  0  0  0
   -4.5875   -3.5270    7.8906 C   0  0  0  0  0  0
   -4.2939   -2.0183    7.8890 C   0  0  0  0  0  0
   -5.0710   -1.2662    8.9770 C   0  0  0  0  0  0
   -6.5340   -1.1468    8.6181 C   0  0  0  0  0  0
   -7.4393   -1.1705    9.4449 O   0  0  0  0  0  0
   -6.7518   -1.0099    7.3018 O   0  0  0  0  0  0
   -2.7845   -1.8820    8.1322 C   0  0  0  0  0  0
   -2.0089   -1.4562    7.2898 O   0  0  0  0  0  0
   -2.3764   -2.3162    9.3326 O   0  0  0  0  0  0
   -0.2303   -3.7925    6.4128 O   0  0  0  0  0  0
   -0.5311   -3.3866    5.1233 C   0  0  0  0  0  0
   -1.3973   -2.5714    4.8341 O   0  0  0  0  0  0
    0.3502   -4.0762    4.0735 C   0  0  0  0  0  0
    1.5091   -3.2109    3.4880 C   0  0  0  0  0  0
    1.1632   -1.8143    2.9399 C   0  0  0  0  0  0
    0.6096   -1.8523    1.5447 C   0  0  0  0  0  0
   -0.5726   -1.7622    1.2435 O   0  0  0  0  0  0
    1.5688   -1.9808    0.6153 O   0  0  0  0  0  0
    2.7153   -3.0455    4.4206 C   0  0  0  0  0  0
    2.9338   -2.0248    5.0429 O   0  0  0  0  0  0
    3.4702   -4.1508    4.5931 O   0  0  0  0  0  0
   -5.1383   -8.4141   10.8052 H   0  0  0  0  0  0
   -6.0165   -7.0650   10.9769 H   0  0  0  0  0  0
   -8.7134   -8.9924    9.8482 H   0  0  0  0  0  0
   -6.0343   -8.3406    5.8558 H   0  0  0  0  0  0
   -2.1489  -11.8880    5.1809 H   0  0  0  0  0  0
   -5.9481   -0.9478    6.7508 H   0  0  0  0  0  0
   -3.0786   -2.7629    9.8676 H   0  0  0  0  0  0
    2.3991   -2.1862    1.0946 H   0  0  0  0  0  0
    3.1908   -4.9355    4.0712 H   0  0  0  0  0  0
  1  2  1  0  0  0
  2  3  1  0  0  0
  3  4  1  0  0  0
  4  5  1  0  0  0
  5  6  1  0  0  0
  5  7  1  0  0  0
  7  8  1  0  0  0
  7 39  1  0  0  0
  8  9  1  0  0  0
  8 27  1  0  0  0
  9 10  1  0  0  0
 10 11  1  0  0  0
 10 12  1  0  0  0
 12 13  1  0  0  0
 13 14  1  0  0  0
 13 26  1  0  0  0
 14 15  1  0  0  0
 15 16  1  0  0  0
 16 17  1  0  0  0
 17 18  1  0  0  0
 18 19  1  0  0  0
 18 25  1  0  0  0
 19 20  1  0  0  0
 20 21  1  0  0  0
 20 24  1  0  0  0
 21 22  1  0  0  0
 21 23  1  0  0  0
 23 51  1  0  0  0
 23 52  1  0  0  0
 24 53  1  0  0  0
 25 54  1  0  0  0
 26 55  1  0  0  0
 27 28  1  0  0  0
 28 29  2  0  0  0
 28 30  1  0  0  0
 30 31  1  0  0  0
 31 32  1  0  0  0
 31 36  1  0  0  0
 32 33  1  0  0  0
 33 34  2  0  0  0
 33 35  1  0  0  0
 35 56  1  0  0  0
 36 37  2  0  0  0
 36 38  1  0  0  0
 38 57  1  0  0  0
 39 40  1  0  0  0
 40 41  2  0  0  0
 40 42  1  0  0  0
 42 43  1  0  0  0
 43 44  1  0  0  0
 43 48  1  0  0  0
 44 45  1  0  0  0
 45 46  2  0  0  0
 45 47  1  0  0  0
 47 58  1  0  0  0
 48 49  2  0  0  0
 48 50  1  0  0  0
 50 59  1  0  0  0
M  END
>  <AUTHOR>
    GENERATED BY OPEN BABEL 2.4.1

>  <CHROM.1>
178.79942793,-179.44048114,-53.71303489,166.21137593,-40.09069745,161.25211089
-66.57894737,132.30616386,69.45132164,-128.20109229,161.63876208,-39.56904678
-62.91321764,58.13666540,42.67818705,-150.96939265,-54.84058641,61.26184604
169.75508710,61.48756075,61.72568789,60.30342809,42.70811042,-8.04620166
94.11070734,-178.15435944,-73.43313794,112.94592148,145.87328661,-3.67813255
6.65338409,120.23193647,-102.86454929,-51.30772797,-81.31786615,-103.73063512
101.08222596,10.30275119,2.62355614,-2.21106034,-5.39158407,6.79419563,-0.73057931
-0.41835916,3.08981987

>  <COMPND>
    UNNAMED

>  <MASTER>
        0    0    0    0    0    0    0    0  109    0  109    0

>  <Name>
FB1.pdb

>  <RI>
0

>  <Rbt.Current_Directory>
/home/fc/tossine/F10/p3/2_clust03

>  <Rbt.Executable>
rbdock/0.1.0

>  <Rbt.Library>
librxdock.so/0.1.0

>  <Rbt.Parameter_File>
/cluster/rxdock/data/scripts/dock.prm

>  <Rbt.Receptor>
rx_0.prm

>  <SCORE>
6.17317

>  <SCORE.INTER>
-3.48753

>  <SCORE.INTER.CONST>
1

>  <SCORE.INTER.POLAR>
-3.34954

>  <SCORE.INTER.REPUL>
0.224089

>  <SCORE.INTER.ROT>
32

>  <SCORE.INTER.VDW>
-30.6195

>  <SCORE.INTER.norm>
-0.0697506

>  <SCORE.INTRA>
9.59182

>  <SCORE.INTRA.DIHEDRAL>
10.4649

>  <SCORE.INTRA.DIHEDRAL.0>
47.3121

>  <SCORE.INTRA.POLAR>
1.47808

>  <SCORE.INTRA.POLAR.0>
-1.47808

>  <SCORE.INTRA.REPUL>
0

>  <SCORE.INTRA.REPUL.0>
0

>  <SCORE.INTRA.VDW>
-0.666093

>  <SCORE.INTRA.VDW.0>
-2.78316

>  <SCORE.INTRA.norm>
0.191836

>  <SCORE.RESTR>
0.0688814

>  <SCORE.RESTR.CAVITY>
0.0688814

>  <SCORE.RESTR.norm>
0.00137763

>  <SCORE.SYSTEM>
0

>  <SCORE.SYSTEM.CONST>
0

>  <SCORE.SYSTEM.DIHEDRAL>
0

>  <SCORE.SYSTEM.norm>
0

>  <SCORE.heavy>
50

>  <SCORE.norm>
0.123463

$$$$
