FB1.pdb
  RxDock  10102001033D
librxdock.so/0.1.0
 59 58  0  0  0  0  0  0  0  0999 V2000
   -5.2114  -12.4180    8.5507 C   0  0  0  0  0  0
   -3.6956  -12.4399    8.3691 C   0  0  0  0  0  0
   -2.9945  -11.4507    9.3147 C   0  0  0  0  0  0
   -3.1735   -9.9686    8.9013 C   0  0  0  0  0  0
   -2.2083   -9.4771    7.7667 C   0  0  0  0  0  0
   -2.5818  -10.2126    6.4590 C   0  0  0  0  0  0
   -2.2256   -7.9042    7.5580 C   0  0  0  0  0  0
   -1.0593   -7.2791    6.6551 C   0  0  0  0  0  0
   -1.0223   -5.7843    6.1143 C   0  0  0  0  0  0
    0.2488   -5.4298    5.1244 C   0  0  0  0  0  0
   -0.2427   -5.4493    3.6779 C   0  0  0  0  0  0
    1.0037   -4.0547    5.4143 C   0  0  0  0  0  0
    2.4535   -3.6697    4.8074 C   0  0  0  0  0  0
    2.6564   -3.2705    3.3055 C   0  0  0  0  0  0
    1.8341   -2.0266    2.7347 C   0  0  0  0  0  0
    1.6843   -0.6426    3.4809 C   0  0  0  0  0  0
    2.9556    0.1284    3.9247 C   0  0  0  0  0  0
    3.4856    1.2412    2.9398 C   0  0  0  0  0  0
    4.2315    0.7467    1.6941 C   0  0  0  0  0  0
    5.6811    0.2109    1.8669 C   0  0  0  0  0  0
    5.9416   -1.3076    2.0945 C   0  0  0  0  0  0
    5.4994   -1.8775    3.4350 C   0  0  0  0  0  0
    5.4018   -2.1065    0.9779 N   0  0  0  0  0  0
    6.3396    0.5209    0.6123 O   0  0  0  0  0  0
    2.3658    2.0269    2.5174 O   0  0  0  0  0  0
    2.8766   -2.5211    5.5613 O   0  0  0  0  0  0
    0.1665   -7.4139    7.4243 O   0  0  0  0  0  0
    0.8029   -8.6126    7.3657 C   0  0  0  0  0  0
    0.6229   -9.4828    6.5352 O   0  0  0  0  0  0
    1.8491   -8.6493    8.4452 C   0  0  0  0  0  0
    3.1050   -7.8428    8.0780 C   0  0  0  0  0  0
    3.2015   -6.5202    8.8492 C   0  0  0  0  0  0
    3.0584   -6.7448   10.3366 C   0  0  0  0  0  0
    4.0093   -6.9226   11.0903 O   0  0  0  0  0  0
    1.7857   -6.7298   10.7593 O   0  0  0  0  0  0
    4.2999   -8.7416    8.4249 C   0  0  0  0  0  0
    5.1198   -8.4584    9.2851 O   0  0  0  0  0  0
    4.3999   -9.8445    7.6702 O   0  0  0  0  0  0
   -3.5671   -7.4351    7.1333 O   0  0  0  0  0  0
   -3.8916   -6.1029    7.3281 C   0  0  0  0  0  0
   -3.1528   -5.2745    7.8441 O   0  0  0  0  0  0
   -5.2994   -5.7647    6.8202 C   0  0  0  0  0  0
   -6.4796   -6.3661    7.6448 C   0  0  0  0  0  0
   -6.3087   -6.4868    9.1702 C   0  0  0  0  0  0
   -6.2878   -7.9103    9.6473 C   0  0  0  0  0  0
   -6.0087   -8.8872    8.9659 O   0  0  0  0  0  0
   -6.5978   -8.0201   10.9481 O   0  0  0  0  0  0
   -7.8381   -5.7004    7.3926 C   0  0  0  0  0  0
   -8.2217   -4.7276    8.0117 O   0  0  0  0  0  0
   -8.5451   -6.2004    6.3575 O   0  0  0  0  0  0
    4.4015   -1.9308    0.8944 H   0  0  0  0  0  0
    5.4760   -3.0973    1.2194 H   0  0  0  0  0  0
    7.2165    0.0877    0.6804 H   0  0  0  0  0  0
    2.7049    2.8429    2.1054 H   0  0  0  0  0  0
    3.7938   -2.3189    5.3119 H   0  0  0  0  0  0
    1.1187   -6.5591   10.0669 H   0  0  0  0  0  0
    5.2159  -10.3797    7.8324 H   0  0  0  0  0  0
   -6.4627   -8.9603   11.1911 H   0  0  0  0  0  0
   -9.3876   -5.7340    6.1605 H   0  0  0  0  0  0
  1  2  1  0  0  0
  2  3  1  0  0  0
  3  4  1  0  0  0
  4  5  1  0  0  0
  5  6  1  0  0  0
  5  7  1  0  0  0
  7  8  1  0  0  0
  7 39  1  0  0  0
  8  9  1  0  0  0
  8 27  1  0  0  0
  9 10  1  0  0  0
 10 11  1  0  0  0
 10 12  1  0  0  0
 12 13  1  0  0  0
 13 14  1  0  0  0
 13 26  1  0  0  0
 14 15  1  0  0  0
 15 16  1  0  0  0
 16 17  1  0  0  0
 17 18  1  0  0  0
 18 19  1  0  0  0
 18 25  1  0  0  0
 19 20  1  0  0  0
 20 21  1  0  0  0
 20 24  1  0  0  0
 21 22  1  0  0  0
 21 23  1  0  0  0
 23 51  1  0  0  0
 23 52  1  0  0  0
 24 53  1  0  0  0
 25 54  1  0  0  0
 26 55  1  0  0  0
 27 28  1  0  0  0
 28 29  2  0  0  0
 28 30  1  0  0  0
 30 31  1  0  0  0
 31 32  1  0  0  0
 31 36  1  0  0  0
 32 33  1  0  0  0
 33 34  2  0  0  0
 33 35  1  0  0  0
 35 56  1  0  0  0
 36 37  2  0  0  0
 36 38  1  0  0  0
 38 57  1  0  0  0
 39 40  1  0  0  0
 40 41  2  0  0  0
 40 42  1  0  0  0
 42 43  1  0  0  0
 43 44  1  0  0  0
 43 48  1  0  0  0
 44 45  1  0  0  0
 45 46  2  0  0  0
 45 47  1  0  0  0
 47 58  1  0  0  0
 48 49  2  0  0  0
 48 50  1  0  0  0
 50 59  1  0  0  0
M  END
>  <AUTHOR>
    GENERATED BY OPEN BABEL 2.4.1

>  <CHROM.1>
-73.33581406,-80.94816864,67.17748183,167.21253667,168.98720268,159.01053970
-176.21712970,82.88894862,101.27458528,165.46360776,73.88270736,57.78187750
172.86527423,45.65371152,54.83190057,95.22483236,-76.13870142,-74.62907604
165.42803030,92.73042165,-69.49665218,-173.33761732,-58.50953312,16.60815940
-77.36842521,106.08568535,52.10890013,-115.88782742,92.45405088,-1.23479377
174.37586930,-0.86966288,70.04059806,35.04855924,-114.68191971,-88.01595805
22.31403859,-173.88315237,-176.12271950,-0.17721967,-5.76802161,6.50266645
-2.34055626,0.04167211,-0.59784467

>  <COMPND>
    UNNAMED

>  <MASTER>
        0    0    0    0    0    0    0    0  109    0  109    0

>  <Name>
FB1.pdb

>  <RI>
0

>  <Rbt.Current_Directory>
/home/fc/tossine/F10/p3/2_clust03

>  <Rbt.Executable>
rbdock/0.1.0

>  <Rbt.Library>
librxdock.so/0.1.0

>  <Rbt.Parameter_File>
/cluster/rxdock/data/scripts/dock.prm

>  <Rbt.Receptor>
rx_2.prm

>  <SCORE>
4.1276

>  <SCORE.INTER>
-2.26824

>  <SCORE.INTER.CONST>
1

>  <SCORE.INTER.POLAR>
-3.41101

>  <SCORE.INTER.REPUL>
0.301601

>  <SCORE.INTER.ROT>
32

>  <SCORE.INTER.VDW>
-29.5788

>  <SCORE.INTER.norm>
-0.0453647

>  <SCORE.INTRA>
4.90573

>  <SCORE.INTRA.DIHEDRAL>
3.22673

>  <SCORE.INTRA.DIHEDRAL.0>
47.3121

>  <SCORE.INTRA.POLAR>
1.47808

>  <SCORE.INTRA.POLAR.0>
-1.47808

>  <SCORE.INTRA.REPUL>
0

>  <SCORE.INTRA.REPUL.0>
0

>  <SCORE.INTRA.VDW>
-1.7331

>  <SCORE.INTRA.VDW.0>
-2.78316

>  <SCORE.INTRA.norm>
0.0981145

>  <SCORE.RESTR>
1.49011

>  <SCORE.RESTR.CAVITY>
1.49011

>  <SCORE.RESTR.norm>
0.0298022

>  <SCORE.SYSTEM>
0

>  <SCORE.SYSTEM.CONST>
0

>  <SCORE.SYSTEM.DIHEDRAL>
0

>  <SCORE.SYSTEM.norm>
0

>  <SCORE.heavy>
50

>  <SCORE.norm>
0.082552

$$$$
