FB1.pdb
  RxDock  10092023083D
librxdock.so/0.1.0
 59 58  0  0  0  0  0  0  0  0999 V2000
    2.9937   -5.6947    9.3386 C   0  0  0  0  0  0
    3.4040   -4.2274    9.4393 C   0  0  0  0  0  0
    2.9801   -3.4309    8.1943 C   0  0  0  0  0  0
    1.4456   -3.3751    7.9898 C   0  0  0  0  0  0
    0.9654   -2.4196    6.8422 C   0  0  0  0  0  0
    1.4604   -0.9901    7.1616 C   0  0  0  0  0  0
    1.4406   -2.8754    5.3984 C   0  0  0  0  0  0
    0.3665   -3.6401    4.4887 C   0  0  0  0  0  0
   -0.0899   -5.1504    4.6857 C   0  0  0  0  0  0
    1.1404   -6.2373    4.8483 C   0  0  0  0  0  0
    2.2061   -5.6309    5.7597 C   0  0  0  0  0  0
    0.7349   -7.6828    5.3875 C   0  0  0  0  0  0
   -0.1667   -7.9395    6.7066 C   0  0  0  0  0  0
   -0.7874   -9.3392    7.0407 C   0  0  0  0  0  0
   -2.3214   -9.5934    6.6783 C   0  0  0  0  0  0
   -3.2853   -8.4974    6.0747 C   0  0  0  0  0  0
   -3.3270   -7.0824    6.7097 C   0  0  0  0  0  0
   -3.8777   -6.9872    8.1852 C   0  0  0  0  0  0
   -5.3497   -7.3678    8.3869 C   0  0  0  0  0  0
   -6.4131   -6.7199    7.4554 C   0  0  0  0  0  0
   -7.8848   -7.2292    7.4601 C   0  0  0  0  0  0
   -8.5440   -7.3836    8.8236 C   0  0  0  0  0  0
   -8.7243   -6.4187    6.5573 N   0  0  0  0  0  0
   -6.4923   -5.3391    7.8925 O   0  0  0  0  0  0
   -3.0718   -7.8329    9.0128 O   0  0  0  0  0  0
    0.7024   -7.6409    7.8120 O   0  0  0  0  0  0
   -0.8661   -2.8761    4.5864 O   0  0  0  0  0  0
   -1.6364   -3.0860    5.6854 C   0  0  0  0  0  0
   -1.8644   -4.1595    6.2099 O   0  0  0  0  0  0
   -2.0846   -1.7515    6.2145 C   0  0  0  0  0  0
   -2.6222   -1.8367    7.6519 C   0  0  0  0  0  0
   -2.3159   -0.5760    8.4706 C   0  0  0  0  0  0
   -2.7277   -0.7500    9.9140 C   0  0  0  0  0  0
   -3.5447   -0.0300   10.4778 O   0  0  0  0  0  0
   -2.1135   -1.7737   10.5252 O   0  0  0  0  0  0
   -4.1403   -2.0238    7.5240 C   0  0  0  0  0  0
   -4.9496   -1.1954    7.9128 O   0  0  0  0  0  0
   -4.5101   -3.1975    6.9932 O   0  0  0  0  0  0
    2.0882   -1.7573    4.6701 O   0  0  0  0  0  0
    3.4000   -1.4402    4.9810 C   0  0  0  0  0  0
    4.1167   -2.0952    5.7265 O   0  0  0  0  0  0
    3.8726   -0.1591    4.2812 C   0  0  0  0  0  0
    3.8120   -0.1772    2.7222 C   0  0  0  0  0  0
    4.9980   -0.7952    1.9593 C   0  0  0  0  0  0
    5.3259   -2.1881    2.4138 C   0  0  0  0  0  0
    4.5583   -2.9526    2.9820 O   0  0  0  0  0  0
    6.5842   -2.5434    2.1123 O   0  0  0  0  0  0
    2.5314   -0.7890    2.1408 C   0  0  0  0  0  0
    2.5052   -1.8785    1.6032 O   0  0  0  0  0  0
    1.4016   -0.0838    2.3589 O   0  0  0  0  0  0
   -8.3942   -6.5349    5.6002 H   0  0  0  0  0  0
   -8.5728   -5.4302    6.7701 H   0  0  0  0  0  0
   -5.6830   -4.9193    7.5316 H   0  0  0  0  0  0
   -2.2052   -7.4030    9.1346 H   0  0  0  0  0  0
    0.8712   -6.6838    7.8119 H   0  0  0  0  0  0
   -1.5520   -2.3268    9.9488 H   0  0  0  0  0  0
   -5.4725   -3.2633    6.7737 H   0  0  0  0  0  0
    6.9055   -1.9013    1.4446 H   0  0  0  0  0  0
    1.4871    0.6590    2.9970 H   0  0  0  0  0  0
  1  2  1  0  0  0
  2  3  1  0  0  0
  3  4  1  0  0  0
  4  5  1  0  0  0
  5  6  1  0  0  0
  5  7  1  0  0  0
  7  8  1  0  0  0
  7 39  1  0  0  0
  8  9  1  0  0  0
  8 27  1  0  0  0
  9 10  1  0  0  0
 10 11  1  0  0  0
 10 12  1  0  0  0
 12 13  1  0  0  0
 13 14  1  0  0  0
 13 26  1  0  0  0
 14 15  1  0  0  0
 15 16  1  0  0  0
 16 17  1  0  0  0
 17 18  1  0  0  0
 18 19  1  0  0  0
 18 25  1  0  0  0
 19 20  1  0  0  0
 20 21  1  0  0  0
 20 24  1  0  0  0
 21 22  1  0  0  0
 21 23  1  0  0  0
 23 51  1  0  0  0
 23 52  1  0  0  0
 24 53  1  0  0  0
 25 54  1  0  0  0
 26 55  1  0  0  0
 27 28  1  0  0  0
 28 29  2  0  0  0
 28 30  1  0  0  0
 30 31  1  0  0  0
 31 32  1  0  0  0
 31 36  1  0  0  0
 32 33  1  0  0  0
 33 34  2  0  0  0
 33 35  1  0  0  0
 35 56  1  0  0  0
 36 37  2  0  0  0
 36 38  1  0  0  0
 38 57  1  0  0  0
 39 40  1  0  0  0
 40 41  2  0  0  0
 40 42  1  0  0  0
 42 43  1  0  0  0
 43 44  1  0  0  0
 43 48  1  0  0  0
 44 45  1  0  0  0
 45 46  2  0  0  0
 45 47  1  0  0  0
 47 58  1  0  0  0
 48 49  2  0  0  0
 48 50  1  0  0  0
 50 59  1  0  0  0
M  END
>  <AUTHOR>
    GENERATED BY OPEN BABEL 2.4.1

>  <CHROM.1>
62.91354058,172.38382961,-58.98567349,100.51943294,-75.17311298,78.88298266
-49.03800835,-81.09137180,42.03247103,-49.97741539,167.15132320,-99.39265893
68.78623021,-3.54655183,-47.11846147,-65.48562649,-64.53554006,-50.09574702
73.07926847,170.35857122,48.72045952,75.82414722,63.89568320,-40.71445888
-164.01776221,146.38713504,-174.03505516,-115.10486599,-120.58039230,-5.73797008
-170.54091273,7.32702793,-59.01321857,-84.52926406,53.47131719,-107.32362881
22.54952909,-15.76604379,-10.35227640,-0.59532492,-3.93607628,6.30547308
-0.39171061,-0.43629188,-3.11969305

>  <COMPND>
    UNNAMED

>  <MASTER>
        0    0    0    0    0    0    0    0  109    0  109    0

>  <Name>
FB1.pdb

>  <RI>
0

>  <Rbt.Current_Directory>
/home/fc/tossine/F10/p3/2_clust03

>  <Rbt.Executable>
rbdock/0.1.0

>  <Rbt.Library>
librxdock.so/0.1.0

>  <Rbt.Parameter_File>
/cluster/rxdock/data/scripts/dock.prm

>  <Rbt.Receptor>
rx_0.prm

>  <SCORE>
6.6372

>  <SCORE.INTER>
-6.50918

>  <SCORE.INTER.CONST>
1

>  <SCORE.INTER.POLAR>
-3.60065

>  <SCORE.INTER.REPUL>
0.104836

>  <SCORE.INTER.ROT>
32

>  <SCORE.INTER.VDW>
-32.1912

>  <SCORE.INTER.norm>
-0.130184

>  <SCORE.INTRA>
13.0718

>  <SCORE.INTRA.DIHEDRAL>
8.58217

>  <SCORE.INTRA.DIHEDRAL.0>
47.3121

>  <SCORE.INTRA.POLAR>
0.656469

>  <SCORE.INTRA.POLAR.0>
-1.47808

>  <SCORE.INTRA.REPUL>
0

>  <SCORE.INTRA.REPUL.0>
0

>  <SCORE.INTRA.VDW>
6.54874

>  <SCORE.INTRA.VDW.0>
-2.78316

>  <SCORE.INTRA.norm>
0.261436

>  <SCORE.RESTR>
0.0745702

>  <SCORE.RESTR.CAVITY>
0.0745702

>  <SCORE.RESTR.norm>
0.0014914

>  <SCORE.SYSTEM>
0

>  <SCORE.SYSTEM.CONST>
0

>  <SCORE.SYSTEM.DIHEDRAL>
0

>  <SCORE.SYSTEM.norm>
0

>  <SCORE.heavy>
50

>  <SCORE.norm>
0.132744

$$$$
