FB1.pdb
  RxDock  10102000063D
librxdock.so/0.1.0
 59 58  0  0  0  0  0  0  0  0999 V2000
    6.3841   -9.2192   11.7900 C   0  0  0  0  0  0
    4.8709   -9.2562   11.5898 C   0  0  0  0  0  0
    4.4938   -9.7828   10.1953 C   0  0  0  0  0  0
    3.1391   -9.2400    9.6757 C   0  0  0  0  0  0
    2.8086   -9.6029    8.1859 C   0  0  0  0  0  0
    3.3151  -11.0378    7.9119 C   0  0  0  0  0  0
    1.2689   -9.4664    7.8275 C   0  0  0  0  0  0
    0.8549   -9.7116    6.2996 C   0  0  0  0  0  0
   -0.1310  -10.8504    5.7901 C   0  0  0  0  0  0
   -1.2968  -11.2997    6.8673 C   0  0  0  0  0  0
   -2.5379  -10.4426    6.6244 C   0  0  0  0  0  0
   -1.7026  -12.8425    6.8613 C   0  0  0  0  0  0
   -2.3186  -13.6239    8.1374 C   0  0  0  0  0  0
   -3.8610  -13.8080    8.3454 C   0  0  0  0  0  0
   -4.7693  -12.5011    8.4734 C   0  0  0  0  0  0
   -5.5895  -11.8687    7.2810 C   0  0  0  0  0  0
   -5.6425  -10.3261    7.1229 C   0  0  0  0  0  0
   -5.9497   -9.4934    8.4273 C   0  0  0  0  0  0
   -5.9232   -7.9668    8.2807 C   0  0  0  0  0  0
   -6.6898   -7.1120    9.3295 C   0  0  0  0  0  0
   -6.1367   -5.7271    9.7784 C   0  0  0  0  0  0
   -6.6076   -4.5187    8.9811 C   0  0  0  0  0  0
   -6.3482   -5.5202   11.2237 N   0  0  0  0  0  0
   -7.9664   -6.8219    8.7050 O   0  0  0  0  0  0
   -7.2421   -9.8820    8.9053 O   0  0  0  0  0  0
   -1.7908  -14.9577    8.0442 O   0  0  0  0  0  0
    0.2441   -8.4752    5.8406 O   0  0  0  0  0  0
    1.0762   -7.4294    5.5973 C   0  0  0  0  0  0
    1.7425   -7.2584    4.5942 O   0  0  0  0  0  0
    0.9624   -6.4554    6.7374 C   0  0  0  0  0  0
    0.0122   -5.2885    6.4244 C   0  0  0  0  0  0
    0.2933   -4.0524    7.2883 C   0  0  0  0  0  0
   -0.1150   -4.2867    8.7242 C   0  0  0  0  0  0
    0.2922   -5.2249    9.4007 O   0  0  0  0  0  0
   -0.9689   -3.3653    9.1940 O   0  0  0  0  0  0
    0.2291   -4.9538    4.9422 C   0  0  0  0  0  0
    1.1547   -4.2636    4.5428 O   0  0  0  0  0  0
   -0.7116   -5.4414    4.1217 O   0  0  0  0  0  0
    0.4296  -10.2547    8.7625 O   0  0  0  0  0  0
   -0.8260   -9.7702    9.0894 C   0  0  0  0  0  0
   -1.2782   -8.6971    8.7123 O   0  0  0  0  0  0
   -1.6081  -10.7357    9.9897 C   0  0  0  0  0  0
   -0.8642  -11.2171   11.2740 C   0  0  0  0  0  0
   -0.8983  -10.3056   12.5142 C   0  0  0  0  0  0
   -0.2027   -8.9928   12.2967 C   0  0  0  0  0  0
    0.8362   -8.8308   11.6713 O   0  0  0  0  0  0
   -0.8589   -7.9653   12.8570 O   0  0  0  0  0  0
   -1.2430  -12.6288   11.7389 C   0  0  0  0  0  0
   -1.9526  -13.3701   11.0880 O   0  0  0  0  0  0
   -0.6480  -13.0430   12.8771 O   0  0  0  0  0  0
   -6.2564   -6.4132   11.7059 H   0  0  0  0  0  0
   -7.3192   -5.2378   11.3746 H   0  0  0  0  0  0
   -8.5730   -6.6442    9.4545 H   0  0  0  0  0  0
   -7.8532   -9.9043    8.1459 H   0  0  0  0  0  0
   -0.8758  -14.8972    7.7223 H   0  0  0  0  0  0
   -1.1268   -3.3963   10.1571 H   0  0  0  0  0  0
   -0.6159   -5.1634    3.1770 H   0  0  0  0  0  0
   -0.7272   -7.1926   12.2680 H   0  0  0  0  0  0
   -0.9355  -13.9242   13.2043 H   0  0  0  0  0  0
  1  2  1  0  0  0
  2  3  1  0  0  0
  3  4  1  0  0  0
  4  5  1  0  0  0
  5  6  1  0  0  0
  5  7  1  0  0  0
  7  8  1  0  0  0
  7 39  1  0  0  0
  8  9  1  0  0  0
  8 27  1  0  0  0
  9 10  1  0  0  0
 10 11  1  0  0  0
 10 12  1  0  0  0
 12 13  1  0  0  0
 13 14  1  0  0  0
 13 26  1  0  0  0
 14 15  1  0  0  0
 15 16  1  0  0  0
 16 17  1  0  0  0
 17 18  1  0  0  0
 18 19  1  0  0  0
 18 25  1  0  0  0
 19 20  1  0  0  0
 20 21  1  0  0  0
 20 24  1  0  0  0
 21 22  1  0  0  0
 21 23  1  0  0  0
 23 51  1  0  0  0
 23 52  1  0  0  0
 24 53  1  0  0  0
 25 54  1  0  0  0
 26 55  1  0  0  0
 27 28  1  0  0  0
 28 29  2  0  0  0
 28 30  1  0  0  0
 30 31  1  0  0  0
 31 32  1  0  0  0
 31 36  1  0  0  0
 32 33  1  0  0  0
 33 34  2  0  0  0
 33 35  1  0  0  0
 35 56  1  0  0  0
 36 37  2  0  0  0
 36 38  1  0  0  0
 38 57  1  0  0  0
 39 40  1  0  0  0
 40 41  2  0  0  0
 40 42  1  0  0  0
 42 43  1  0  0  0
 43 44  1  0  0  0
 43 48  1  0  0  0
 44 45  1  0  0  0
 45 46  2  0  0  0
 45 47  1  0  0  0
 47 58  1  0  0  0
 48 49  2  0  0  0
 48 50  1  0  0  0
 50 59  1  0  0  0
M  END
>  <AUTHOR>
    GENERATED BY OPEN BABEL 2.4.1

>  <CHROM.1>
-152.33643216,172.36681221,37.31355718,175.57878750,118.84184237,146.60097120
29.83274337,74.24485069,91.21443986,154.06583201,95.15589194,-60.16471732
37.48074400,97.65336929,-139.59848650,-46.86938178,176.69378607,158.34567111
-45.78643064,145.20422823,90.70209548,156.17116430,34.48215809,80.48155877
-97.91927377,-157.47948935,-70.84742627,-81.22016898,55.10352795,-169.59339339
175.10279874,-3.71156097,52.15760457,83.31865574,-64.35482550,7.54342037
-39.12584755,-145.39416449,176.23684888,-1.24068577,-8.96519443,8.63650169
-0.04300532,0.00402388,2.76817324

>  <COMPND>
    UNNAMED

>  <MASTER>
        0    0    0    0    0    0    0    0  109    0  109    0

>  <Name>
FB1.pdb

>  <RI>
0

>  <Rbt.Current_Directory>
/home/fc/tossine/F10/p3/2_clust03

>  <Rbt.Executable>
rbdock/0.1.0

>  <Rbt.Library>
librxdock.so/0.1.0

>  <Rbt.Parameter_File>
/cluster/rxdock/data/scripts/dock.prm

>  <Rbt.Receptor>
rx_1.prm

>  <SCORE>
44.6202

>  <SCORE.INTER>
6.3963

>  <SCORE.INTER.CONST>
1

>  <SCORE.INTER.POLAR>
-1.81663

>  <SCORE.INTER.REPUL>
0.18889

>  <SCORE.INTER.ROT>
32

>  <SCORE.INTER.VDW>
-25.7716

>  <SCORE.INTER.norm>
0.127926

>  <SCORE.INTRA>
32.1178

>  <SCORE.INTRA.DIHEDRAL>
52.9083

>  <SCORE.INTRA.DIHEDRAL.0>
47.3121

>  <SCORE.INTRA.POLAR>
1.47808

>  <SCORE.INTRA.POLAR.0>
-1.47808

>  <SCORE.INTRA.REPUL>
0

>  <SCORE.INTRA.REPUL.0>
0

>  <SCORE.INTRA.VDW>
0.638187

>  <SCORE.INTRA.VDW.0>
-2.78316

>  <SCORE.INTRA.norm>
0.642356

>  <SCORE.RESTR>
6.10607

>  <SCORE.RESTR.CAVITY>
6.10607

>  <SCORE.RESTR.norm>
0.122121

>  <SCORE.SYSTEM>
0

>  <SCORE.SYSTEM.CONST>
0

>  <SCORE.SYSTEM.DIHEDRAL>
0

>  <SCORE.SYSTEM.norm>
0

>  <SCORE.heavy>
50

>  <SCORE.norm>
0.892403

$$$$
