FB1.pdb
  RxDock  10102001083D
librxdock.so/0.1.0
 59 58  0  0  0  0  0  0  0  0999 V2000
   -0.3719  -12.1935    5.5566 C   0  0  0  0  0  0
   -0.2825  -10.6796    5.7333 C   0  0  0  0  0  0
   -1.1361  -10.1930    6.9160 C   0  0  0  0  0  0
   -0.9891   -8.6775    7.2016 C   0  0  0  0  0  0
    0.4850   -8.1835    7.4098 C   0  0  0  0  0  0
    0.9996   -7.6121    6.0684 C   0  0  0  0  0  0
    0.6372   -7.1183    8.5760 C   0  0  0  0  0  0
    2.0695   -7.0198    9.2866 C   0  0  0  0  0  0
    3.2303   -8.0989    9.1590 C   0  0  0  0  0  0
    4.0097   -8.4577   10.5680 C   0  0  0  0  0  0
    2.9632   -8.7895   11.6304 C   0  0  0  0  0  0
    5.0890   -9.6302   10.4956 C   0  0  0  0  0  0
    6.4673   -9.5443    9.6522 C   0  0  0  0  0  0
    6.4915   -9.4759    8.0867 C   0  0  0  0  0  0
    7.9047   -9.3407    7.3562 C   0  0  0  0  0  0
    9.2277  -10.0540    7.8415 C   0  0  0  0  0  0
   10.0531  -10.8999    6.8362 C   0  0  0  0  0  0
   10.0040  -10.4469    5.3257 C   0  0  0  0  0  0
   11.3239   -9.9513    4.7217 C   0  0  0  0  0  0
   11.3036   -9.3756    3.2773 C   0  0  0  0  0  0
   12.3113   -8.2665    2.8533 C   0  0  0  0  0  0
   12.1822   -7.7420    1.4300 C   0  0  0  0  0  0
   12.3120   -7.1573    3.8260 N   0  0  0  0  0  0
   11.6118  -10.5084    2.4256 O   0  0  0  0  0  0
    9.5350  -11.5535    4.5477 O   0  0  0  0  0  0
    7.0936   -8.3269   10.0907 O   0  0  0  0  0  0
    2.6730   -5.7846    8.8149 O   0  0  0  0  0  0
    2.7274   -4.7499    9.6934 C   0  0  0  0  0  0
    2.4746   -4.8013   10.8821 O   0  0  0  0  0  0
    3.2539   -3.5401    8.9719 C   0  0  0  0  0  0
    2.4068   -3.1701    7.7439 C   0  0  0  0  0  0
    2.4655   -1.6723    7.4179 C   0  0  0  0  0  0
    1.4270   -1.2979    6.3860 C   0  0  0  0  0  0
    1.6375   -1.3062    5.1779 O   0  0  0  0  0  0
    0.2446   -0.9548    6.9179 O   0  0  0  0  0  0
    2.9792   -3.9848    6.5756 C   0  0  0  0  0  0
    3.8059   -3.5397    5.7940 O   0  0  0  0  0  0
    2.4598   -5.2139    6.4516 O   0  0  0  0  0  0
    0.1346   -5.7879    8.1549 O   0  0  0  0  0  0
   -1.2330   -5.5699    8.1543 C   0  0  0  0  0  0
   -2.0780   -6.4472    8.2753 O   0  0  0  0  0  0
   -1.5878   -4.0869    7.9838 C   0  0  0  0  0  0
   -1.2706   -3.4710    6.5857 C   0  0  0  0  0  0
   -0.9283   -4.4321    5.4327 C   0  0  0  0  0  0
   -1.9767   -5.4849    5.2158 C   0  0  0  0  0  0
   -3.1452   -5.4120    5.5707 O   0  0  0  0  0  0
   -1.5035   -6.5515    4.5534 O   0  0  0  0  0  0
   -2.3328   -2.4961    6.0626 C   0  0  0  0  0  0
   -3.5202   -2.6340    6.2808 O   0  0  0  0  0  0
   -1.8554   -1.4051    5.4278 O   0  0  0  0  0  0
   11.3865   -6.7312    3.8474 H   0  0  0  0  0  0
   12.9329   -6.4214    3.4818 H   0  0  0  0  0  0
   11.3914  -10.2035    1.5202 H   0  0  0  0  0  0
    8.6570  -11.8113    4.8840 H   0  0  0  0  0  0
    6.4661   -7.5983    9.9499 H   0  0  0  0  0  0
   -0.4761   -0.8126    6.2746 H   0  0  0  0  0  0
    2.9926   -5.8294    5.8895 H   0  0  0  0  0  0
   -0.6379   -6.2872    4.1764 H   0  0  0  0  0  0
   -2.5269   -0.7239    5.2012 H   0  0  0  0  0  0
  1  2  1  0  0  0
  2  3  1  0  0  0
  3  4  1  0  0  0
  4  5  1  0  0  0
  5  6  1  0  0  0
  5  7  1  0  0  0
  7  8  1  0  0  0
  7 39  1  0  0  0
  8  9  1  0  0  0
  8 27  1  0  0  0
  9 10  1  0  0  0
 10 11  1  0  0  0
 10 12  1  0  0  0
 12 13  1  0  0  0
 13 14  1  0  0  0
 13 26  1  0  0  0
 14 15  1  0  0  0
 15 16  1  0  0  0
 16 17  1  0  0  0
 17 18  1  0  0  0
 18 19  1  0  0  0
 18 25  1  0  0  0
 19 20  1  0  0  0
 20 21  1  0  0  0
 20 24  1  0  0  0
 21 22  1  0  0  0
 21 23  1  0  0  0
 23 51  1  0  0  0
 23 52  1  0  0  0
 24 53  1  0  0  0
 25 54  1  0  0  0
 26 55  1  0  0  0
 27 28  1  0  0  0
 28 29  2  0  0  0
 28 30  1  0  0  0
 30 31  1  0  0  0
 31 32  1  0  0  0
 31 36  1  0  0  0
 32 33  1  0  0  0
 33 34  2  0  0  0
 33 35  1  0  0  0
 35 56  1  0  0  0
 36 37  2  0  0  0
 36 38  1  0  0  0
 38 57  1  0  0  0
 39 40  1  0  0  0
 40 41  2  0  0  0
 40 42  1  0  0  0
 42 43  1  0  0  0
 43 44  1  0  0  0
 43 48  1  0  0  0
 44 45  1  0  0  0
 45 46  2  0  0  0
 45 47  1  0  0  0
 47 58  1  0  0  0
 48 49  2  0  0  0
 48 50  1  0  0  0
 50 59  1  0  0  0
M  END
>  <AUTHOR>
    GENERATED BY OPEN BABEL 2.4.1

>  <CHROM.1>
175.49783327,-54.05538377,96.72334476,154.48990635,-14.69989145,78.67211143
-137.25462772,106.47364079,50.77096961,66.06893453,-66.64718158,177.84487400
-55.97435273,37.08212651,128.10165688,30.54845623,114.98528706,-174.67205111
58.33732548,149.47407086,-178.27907900,166.94796456,-62.15321624,9.78103247
57.00049243,152.09839714,-169.03808744,-95.40518737,-90.71803407,-172.92655817
-162.93733157,-11.89825833,68.64068357,12.79773304,54.41670798,-34.36346933
21.73194915,-13.78027639,-172.07465899,3.24428920,-6.65053979,6.86376835
2.81242422,0.32120976,-0.41619459

>  <COMPND>
    UNNAMED

>  <MASTER>
        0    0    0    0    0    0    0    0  109    0  109    0

>  <Name>
FB1.pdb

>  <RI>
0

>  <Rbt.Current_Directory>
/home/fc/tossine/F10/p3/2_clust03

>  <Rbt.Executable>
rbdock/0.1.0

>  <Rbt.Library>
librxdock.so/0.1.0

>  <Rbt.Parameter_File>
/cluster/rxdock/data/scripts/dock.prm

>  <Rbt.Receptor>
rx_2.prm

>  <SCORE>
17.03

>  <SCORE.INTER>
3.65181

>  <SCORE.INTER.CONST>
1

>  <SCORE.INTER.POLAR>
-3.65208

>  <SCORE.INTER.REPUL>
1.56397

>  <SCORE.INTER.ROT>
32

>  <SCORE.INTER.VDW>
-29.151

>  <SCORE.INTER.norm>
0.0730362

>  <SCORE.INTRA>
12.996

>  <SCORE.INTRA.DIHEDRAL>
21.672

>  <SCORE.INTRA.DIHEDRAL.0>
47.3121

>  <SCORE.INTRA.POLAR>
0.48209

>  <SCORE.INTRA.POLAR.0>
-1.47808

>  <SCORE.INTRA.REPUL>
0.705321

>  <SCORE.INTRA.REPUL.0>
0

>  <SCORE.INTRA.VDW>
-3.00579

>  <SCORE.INTRA.VDW.0>
-2.78316

>  <SCORE.INTRA.norm>
0.259919

>  <SCORE.RESTR>
0.382245

>  <SCORE.RESTR.CAVITY>
0.382245

>  <SCORE.RESTR.norm>
0.00764491

>  <SCORE.SYSTEM>
0

>  <SCORE.SYSTEM.CONST>
0

>  <SCORE.SYSTEM.DIHEDRAL>
0

>  <SCORE.SYSTEM.norm>
0

>  <SCORE.heavy>
50

>  <SCORE.norm>
0.3406

$$$$
