FB1.pdb
  RxDock  10092023083D
librxdock.so/0.1.0
 59 58  0  0  0  0  0  0  0  0999 V2000
    2.6983   -3.5221    1.5120 C   0  0  0  0  0  0
    1.2368   -3.3981    1.9360 C   0  0  0  0  0  0
    0.8944   -4.3585    3.0869 C   0  0  0  0  0  0
   -0.3374   -3.9154    3.9153 C   0  0  0  0  0  0
   -0.2647   -2.4532    4.4783 C   0  0  0  0  0  0
   -0.7173   -1.4810    3.3645 C   0  0  0  0  0  0
   -1.1181   -2.2400    5.7990 C   0  0  0  0  0  0
   -1.6961   -3.5543    6.5095 C   0  0  0  0  0  0
   -2.5655   -4.6754    5.7915 C   0  0  0  0  0  0
   -4.1289   -4.7848    6.3064 C   0  0  0  0  0  0
   -5.0138   -5.1110    5.1044 C   0  0  0  0  0  0
   -4.4118   -5.8297    7.4781 C   0  0  0  0  0  0
   -4.1897   -7.4269    7.3431 C   0  0  0  0  0  0
   -4.9454   -8.4596    8.2478 C   0  0  0  0  0  0
   -6.4283   -8.1073    8.7233 C   0  0  0  0  0  0
   -7.5298   -7.4618    7.7936 C   0  0  0  0  0  0
   -7.4548   -5.9492    7.4561 C   0  0  0  0  0  0
   -7.7214   -4.9469    8.6450 C   0  0  0  0  0  0
   -7.1617   -3.5288    8.4766 C   0  0  0  0  0  0
   -5.7966   -3.1912    9.1406 C   0  0  0  0  0  0
   -5.0952   -1.8294    8.8596 C   0  0  0  0  0  0
   -3.7370   -1.6192    9.5141 C   0  0  0  0  0  0
   -5.0295   -1.5614    7.4104 N   0  0  0  0  0  0
   -6.0721   -3.1849   10.5646 O   0  0  0  0  0  0
   -9.1372   -4.8571    8.8380 O   0  0  0  0  0  0
   -4.5889   -7.7431    5.9987 O   0  0  0  0  0  0
   -0.5462   -4.2717    7.0342 O   0  0  0  0  0  0
   -0.1698   -3.9866    8.3079 C   0  0  0  0  0  0
   -0.8659   -3.4813    9.1677 O   0  0  0  0  0  0
    1.2304   -4.4945    8.5154 C   0  0  0  0  0  0
    1.2631   -5.9451    9.0227 C   0  0  0  0  0  0
    2.6866   -6.5128    9.0911 C   0  0  0  0  0  0
    3.4257   -5.9868   10.2995 C   0  0  0  0  0  0
    3.4736   -4.7992   10.6014 O   0  0  0  0  0  0
    4.0275   -6.9466   11.0174 O   0  0  0  0  0  0
    0.6414   -5.9154   10.4258 C   0  0  0  0  0  0
    0.5598   -4.8984   11.0977 O   0  0  0  0  0  0
    0.2376   -7.1108   10.8771 O   0  0  0  0  0  0
   -0.4094   -1.3577    6.7578 O   0  0  0  0  0  0
   -0.1406   -0.0532    6.3782 C   0  0  0  0  0  0
   -0.8451    0.6141    5.6321 O   0  0  0  0  0  0
    1.1558    0.4807    7.0015 C   0  0  0  0  0  0
    2.4794   -0.0146    6.3402 C   0  0  0  0  0  0
    2.6480   -1.5266    6.1035 C   0  0  0  0  0  0
    3.0295   -2.2761    7.3473 C   0  0  0  0  0  0
    2.7375   -1.9558    8.4913 O   0  0  0  0  0  0
    3.7339   -3.3867    7.0814 O   0  0  0  0  0  0
    2.8400    0.6923    5.0278 C   0  0  0  0  0  0
    2.7644    0.1496    3.9431 O   0  0  0  0  0  0
    3.1483    2.0013    5.1405 O   0  0  0  0  0  0
   -5.9567   -1.6835    7.0057 H   0  0  0  0  0  0
   -4.4530   -2.2824    6.9707 H   0  0  0  0  0  0
   -5.1907   -3.1017   10.9860 H   0  0  0  0  0  0
   -9.3047   -4.2516    9.5834 H   0  0  0  0  0  0
   -5.5456   -7.5890    5.9250 H   0  0  0  0  0  0
    3.9365   -7.8516   10.6621 H   0  0  0  0  0  0
   -0.1986   -7.0880   11.7648 H   0  0  0  0  0  0
    3.7808   -3.4631    6.1051 H   0  0  0  0  0  0
    3.4258    2.4405    4.3060 H   0  0  0  0  0  0
  1  2  1  0  0  0
  2  3  1  0  0  0
  3  4  1  0  0  0
  4  5  1  0  0  0
  5  6  1  0  0  0
  5  7  1  0  0  0
  7  8  1  0  0  0
  7 39  1  0  0  0
  8  9  1  0  0  0
  8 27  1  0  0  0
  9 10  1  0  0  0
 10 11  1  0  0  0
 10 12  1  0  0  0
 12 13  1  0  0  0
 13 14  1  0  0  0
 13 26  1  0  0  0
 14 15  1  0  0  0
 15 16  1  0  0  0
 16 17  1  0  0  0
 17 18  1  0  0  0
 18 19  1  0  0  0
 18 25  1  0  0  0
 19 20  1  0  0  0
 20 21  1  0  0  0
 20 24  1  0  0  0
 21 22  1  0  0  0
 21 23  1  0  0  0
 23 51  1  0  0  0
 23 52  1  0  0  0
 24 53  1  0  0  0
 25 54  1  0  0  0
 26 55  1  0  0  0
 27 28  1  0  0  0
 28 29  2  0  0  0
 28 30  1  0  0  0
 30 31  1  0  0  0
 31 32  1  0  0  0
 31 36  1  0  0  0
 32 33  1  0  0  0
 33 34  2  0  0  0
 33 35  1  0  0  0
 35 56  1  0  0  0
 36 37  2  0  0  0
 36 38  1  0  0  0
 38 57  1  0  0  0
 39 40  1  0  0  0
 40 41  2  0  0  0
 40 42  1  0  0  0
 42 43  1  0  0  0
 43 44  1  0  0  0
 43 48  1  0  0  0
 44 45  1  0  0  0
 45 46  2  0  0  0
 45 47  1  0  0  0
 47 58  1  0  0  0
 48 49  2  0  0  0
 48 50  1  0  0  0
 50 59  1  0  0  0
M  END
>  <AUTHOR>
    GENERATED BY OPEN BABEL 2.4.1

>  <CHROM.1>
157.17984058,-53.71804224,82.99260571,10.75672677,-53.15641532,62.57528642
-113.12126554,91.12059954,143.22463510,-62.96117214,-156.41117477,32.84125999
-66.61178551,42.12526230,-76.17766289,-68.40506317,158.23766502,-97.37574350
178.92376595,172.40956462,-177.64379969,172.06336399,50.65140724,20.85144423
-89.71947743,173.86043561,77.07807207,-20.29525809,-48.90757450,1.63345882
-177.49337677,31.70519016,77.28300953,-49.57455813,-78.60432159,-108.42954568
28.84889618,-3.35281208,176.85195946,-1.22097762,-3.72298309,7.28259949,0.43952342
-0.11519510,-0.76859976

>  <COMPND>
    UNNAMED

>  <MASTER>
        0    0    0    0    0    0    0    0  109    0  109    0

>  <Name>
FB1.pdb

>  <RI>
0

>  <Rbt.Current_Directory>
/home/fc/tossine/F10/p3/2_clust03

>  <Rbt.Executable>
rbdock/0.1.0

>  <Rbt.Library>
librxdock.so/0.1.0

>  <Rbt.Parameter_File>
/cluster/rxdock/data/scripts/dock.prm

>  <Rbt.Receptor>
rx_0.prm

>  <SCORE>
13.4773

>  <SCORE.INTER>
2.29621

>  <SCORE.INTER.CONST>
1

>  <SCORE.INTER.POLAR>
-1.64193

>  <SCORE.INTER.REPUL>
0.619901

>  <SCORE.INTER.ROT>
32

>  <SCORE.INTER.VDW>
-32.6207

>  <SCORE.INTER.norm>
0.0459242

>  <SCORE.INTRA>
10.3776

>  <SCORE.INTRA.DIHEDRAL>
13.8523

>  <SCORE.INTRA.DIHEDRAL.0>
47.3121

>  <SCORE.INTRA.POLAR>
1.47808

>  <SCORE.INTRA.POLAR.0>
-1.47808

>  <SCORE.INTRA.REPUL>
0

>  <SCORE.INTRA.REPUL.0>
0

>  <SCORE.INTRA.VDW>
-1.57406

>  <SCORE.INTRA.VDW.0>
-2.78316

>  <SCORE.INTRA.norm>
0.207551

>  <SCORE.RESTR>
0.803498

>  <SCORE.RESTR.CAVITY>
0.803498

>  <SCORE.RESTR.norm>
0.01607

>  <SCORE.SYSTEM>
0

>  <SCORE.SYSTEM.CONST>
0

>  <SCORE.SYSTEM.DIHEDRAL>
0

>  <SCORE.SYSTEM.norm>
0

>  <SCORE.heavy>
50

>  <SCORE.norm>
0.269545

$$$$
