FB1.pdb
  RxDock  10102000073D
librxdock.so/0.1.0
 59 58  0  0  0  0  0  0  0  0999 V2000
   -2.7638    0.0180    9.9234 C   0  0  0  0  0  0
   -2.8222   -0.5065    8.4907 C   0  0  0  0  0  0
   -2.2369   -1.9240    8.3790 C   0  0  0  0  0  0
   -2.5197   -2.6033    7.0158 C   0  0  0  0  0  0
   -1.3780   -2.4507    5.9511 C   0  0  0  0  0  0
   -1.4463   -1.0206    5.3675 C   0  0  0  0  0  0
    0.0685   -2.7611    6.5248 C   0  0  0  0  0  0
    0.3996   -4.2899    6.8700 C   0  0  0  0  0  0
    1.6768   -4.7905    7.6741 C   0  0  0  0  0  0
    2.1665   -6.3262    7.3233 C   0  0  0  0  0  0
    3.1814   -6.7645    8.3778 C   0  0  0  0  0  0
    1.0132   -7.4217    7.2029 C   0  0  0  0  0  0
   -0.2154   -7.5646    8.2463 C   0  0  0  0  0  0
   -1.1570   -8.8172    8.2690 C   0  0  0  0  0  0
   -0.5266  -10.2316    8.6578 C   0  0  0  0  0  0
   -0.6756  -11.5406    7.7866 C   0  0  0  0  0  0
   -2.0918  -12.0675    7.4343 C   0  0  0  0  0  0
   -3.1268  -12.1572    8.6217 C   0  0  0  0  0  0
   -4.2603  -13.1776    8.4593 C   0  0  0  0  0  0
   -3.9084  -14.6901    8.5423 C   0  0  0  0  0  0
   -2.6675  -15.2563    7.7908 C   0  0  0  0  0  0
   -2.4481  -16.7600    7.8818 C   0  0  0  0  0  0
   -2.6529  -14.8054    6.3862 N   0  0  0  0  0  0
   -3.6372  -14.9278    9.9472 O   0  0  0  0  0  0
   -2.4022  -12.4688    9.8166 O   0  0  0  0  0  0
    0.3980   -7.5327    9.5460 O   0  0  0  0  0  0
   -0.7281   -4.7858    7.6412 O   0  0  0  0  0  0
   -1.7481   -5.3539    6.9469 C   0  0  0  0  0  0
   -1.7144   -5.7159    5.7861 O   0  0  0  0  0  0
   -2.9064   -5.5578    7.8840 C   0  0  0  0  0  0
   -3.5656   -6.9362    7.7167 C   0  0  0  0  0  0
   -4.3948   -7.3447    8.9410 C   0  0  0  0  0  0
   -5.0953   -8.6635    8.7096 C   0  0  0  0  0  0
   -4.5371   -9.6581    8.2593 O   0  0  0  0  0  0
   -6.3933   -8.6454    9.0466 O   0  0  0  0  0  0
   -4.4714   -6.8236    6.4826 C   0  0  0  0  0  0
   -4.9833   -5.7738    6.1246 O   0  0  0  0  0  0
   -4.6967   -7.9856    5.8541 O   0  0  0  0  0  0
    1.1221   -2.1419    5.6843 O   0  0  0  0  0  0
    1.1816   -2.4843    4.3436 C   0  0  0  0  0  0
    0.6545   -3.4745    3.8538 O   0  0  0  0  0  0
    1.9912   -1.4751    3.5187 C   0  0  0  0  0  0
    3.4476   -1.2104    4.0120 C   0  0  0  0  0  0
    4.3005   -0.1912    3.2347 C   0  0  0  0  0  0
    3.4925    0.9434    2.6739 C   0  0  0  0  0  0
    2.7720    0.8867    1.6869 O   0  0  0  0  0  0
    3.6210    2.0692    3.3925 O   0  0  0  0  0  0
    3.5624   -0.8561    5.4998 C   0  0  0  0  0  0
    4.1432   -1.5591    6.3030 O   0  0  0  0  0  0
    3.0658    0.3494    5.8483 O   0  0  0  0  0  0
   -3.0993  -15.5125    5.8037 H   0  0  0  0  0  0
   -1.6831  -14.7724    6.0637 H   0  0  0  0  0  0
   -4.5085  -14.8312   10.3864 H   0  0  0  0  0  0
   -2.9952  -12.3275   10.5775 H   0  0  0  0  0  0
   -0.3045   -7.4152   10.2073 H   0  0  0  0  0  0
   -6.8864   -9.4648    8.8494 H   0  0  0  0  0  0
   -5.3690   -7.9365    5.1300 H   0  0  0  0  0  0
    3.1104    2.7623    2.9232 H   0  0  0  0  0  0
    3.1071    0.5589    6.8078 H   0  0  0  0  0  0
  1  2  1  0  0  0
  2  3  1  0  0  0
  3  4  1  0  0  0
  4  5  1  0  0  0
  5  6  1  0  0  0
  5  7  1  0  0  0
  7  8  1  0  0  0
  7 39  1  0  0  0
  8  9  1  0  0  0
  8 27  1  0  0  0
  9 10  1  0  0  0
 10 11  1  0  0  0
 10 12  1  0  0  0
 12 13  1  0  0  0
 13 14  1  0  0  0
 13 26  1  0  0  0
 14 15  1  0  0  0
 15 16  1  0  0  0
 16 17  1  0  0  0
 17 18  1  0  0  0
 18 19  1  0  0  0
 18 25  1  0  0  0
 19 20  1  0  0  0
 20 21  1  0  0  0
 20 24  1  0  0  0
 21 22  1  0  0  0
 21 23  1  0  0  0
 23 51  1  0  0  0
 23 52  1  0  0  0
 24 53  1  0  0  0
 25 54  1  0  0  0
 26 55  1  0  0  0
 27 28  1  0  0  0
 28 29  2  0  0  0
 28 30  1  0  0  0
 30 31  1  0  0  0
 31 32  1  0  0  0
 31 36  1  0  0  0
 32 33  1  0  0  0
 33 34  2  0  0  0
 33 35  1  0  0  0
 35 56  1  0  0  0
 36 37  2  0  0  0
 36 38  1  0  0  0
 38 57  1  0  0  0
 39 40  1  0  0  0
 40 41  2  0  0  0
 40 42  1  0  0  0
 42 43  1  0  0  0
 43 44  1  0  0  0
 43 48  1  0  0  0
 44 45  1  0  0  0
 45 46  2  0  0  0
 45 47  1  0  0  0
 47 58  1  0  0  0
 48 49  2  0  0  0
 48 50  1  0  0  0
 50 59  1  0  0  0
M  END
>  <AUTHOR>
    GENERATED BY OPEN BABEL 2.4.1

>  <CHROM.1>
168.82122151,94.73296797,-76.71123595,70.75534944,-169.10243402,-58.03087087
-153.00927913,90.45780873,-167.45427682,-44.77764407,-167.18935087,64.59129293
167.53111906,-127.61537467,-56.96583241,-47.43774760,-154.94415458,70.54465950
167.36006310,-44.93229371,-177.17217362,68.92036884,-94.04455560,14.70497392
-136.10831330,160.23468398,176.54465356,-28.32977167,47.72794935,175.89372324
172.61828919,-18.10378344,55.40305629,-179.12086108,33.74590081,115.69447168
-76.27021401,176.42041732,177.60183981,-0.93851454,-6.12986534,6.93243058
1.14994736,0.34521098,-0.13309404

>  <COMPND>
    UNNAMED

>  <MASTER>
        0    0    0    0    0    0    0    0  109    0  109    0

>  <Name>
FB1.pdb

>  <RI>
0

>  <Rbt.Current_Directory>
/home/fc/tossine/F10/p3/2_clust03

>  <Rbt.Executable>
rbdock/0.1.0

>  <Rbt.Library>
librxdock.so/0.1.0

>  <Rbt.Parameter_File>
/cluster/rxdock/data/scripts/dock.prm

>  <Rbt.Receptor>
rx_1.prm

>  <SCORE>
-3.91225

>  <SCORE.INTER>
-4.78156

>  <SCORE.INTER.CONST>
1

>  <SCORE.INTER.POLAR>
-4.47917

>  <SCORE.INTER.REPUL>
0.105702

>  <SCORE.INTER.ROT>
32

>  <SCORE.INTER.VDW>
-27.4809

>  <SCORE.INTER.norm>
-0.0956312

>  <SCORE.INTRA>
0.791372

>  <SCORE.INTRA.DIHEDRAL>
1.10898

>  <SCORE.INTRA.DIHEDRAL.0>
47.3121

>  <SCORE.INTRA.POLAR>
1.47808

>  <SCORE.INTRA.POLAR.0>
-1.47808

>  <SCORE.INTRA.REPUL>
0

>  <SCORE.INTRA.REPUL.0>
0

>  <SCORE.INTRA.VDW>
-4.78858

>  <SCORE.INTRA.VDW.0>
-2.78316

>  <SCORE.INTRA.norm>
0.0158274

>  <SCORE.RESTR>
0.0779344

>  <SCORE.RESTR.CAVITY>
0.0779344

>  <SCORE.RESTR.norm>
0.00155869

>  <SCORE.SYSTEM>
0

>  <SCORE.SYSTEM.CONST>
0

>  <SCORE.SYSTEM.DIHEDRAL>
0

>  <SCORE.SYSTEM.norm>
0

>  <SCORE.heavy>
50

>  <SCORE.norm>
-0.0782451

$$$$
