FB1.pdb
  RxDock  10092023033D
librxdock.so/0.1.0
 59 58  0  0  0  0  0  0  0  0999 V2000
    4.3803   -2.1090    6.8827 C   0  0  0  0  0  0
    4.2724   -3.4137    7.6686 C   0  0  0  0  0  0
    2.8096   -3.8548    7.8416 C   0  0  0  0  0  0
    2.1875   -4.4497    6.5536 C   0  0  0  0  0  0
    1.6395   -3.3914    5.5338 C   0  0  0  0  0  0
    1.2034   -4.1347    4.2500 C   0  0  0  0  0  0
    0.4520   -2.5115    6.1111 C   0  0  0  0  0  0
   -0.7872   -3.2971    6.7541 C   0  0  0  0  0  0
   -0.9091   -4.8784    6.8668 C   0  0  0  0  0  0
   -1.7572   -5.6030    5.6515 C   0  0  0  0  0  0
   -1.5932   -7.1165    5.7809 C   0  0  0  0  0  0
   -3.3077   -5.2387    5.5619 C   0  0  0  0  0  0
   -4.4261   -5.7682    6.6047 C   0  0  0  0  0  0
   -4.0714   -6.2032    8.0680 C   0  0  0  0  0  0
   -4.4138   -7.6963    8.5182 C   0  0  0  0  0  0
   -3.7245   -8.9852    7.9197 C   0  0  0  0  0  0
   -2.2109   -9.2254    8.1626 C   0  0  0  0  0  0
   -1.6002  -10.5476    7.5560 C   0  0  0  0  0  0
   -2.5829  -11.6989    7.3090 C   0  0  0  0  0  0
   -3.5086  -12.1417    8.4774 C   0  0  0  0  0  0
   -4.5934  -13.2370    8.2562 C   0  0  0  0  0  0
   -5.8613  -12.7992    7.5363 C   0  0  0  0  0  0
   -4.0106  -14.4325    7.6177 N   0  0  0  0  0  0
   -2.6083  -12.6998    9.4684 O   0  0  0  0  0  0
   -0.9694  -10.2138    6.3148 O   0  0  0  0  0  0
   -5.3434   -4.6710    6.7514 O   0  0  0  0  0  0
   -0.8975   -2.8291    8.1257 O   0  0  0  0  0  0
   -2.1509   -2.6830    8.6288 C   0  0  0  0  0  0
   -3.1551   -3.2428    8.2318 O   0  0  0  0  0  0
   -2.0788   -1.7852    9.8330 C   0  0  0  0  0  0
   -3.3111   -0.8763    9.9663 C   0  0  0  0  0  0
   -4.0799   -1.1147   11.2722 C   0  0  0  0  0  0
   -5.1354   -2.1817   11.0964 C   0  0  0  0  0  0
   -5.4792   -2.6223   10.0049 O   0  0  0  0  0  0
   -5.6638   -2.6064   12.2537 O   0  0  0  0  0  0
   -2.7801    0.5632    9.9247 C   0  0  0  0  0  0
   -1.7383    0.9056   10.4632 O   0  0  0  0  0  0
   -3.5802    1.4297    9.2885 O   0  0  0  0  0  0
    0.9617   -1.4486    7.0113 O   0  0  0  0  0  0
    1.4338   -0.2760    6.4453 C   0  0  0  0  0  0
    1.5859    0.7772    7.0502 O   0  0  0  0  0  0
    1.7537   -0.4355    4.9531 C   0  0  0  0  0  0
    3.2439   -0.2060    4.5515 C   0  0  0  0  0  0
    3.6264   -0.3665    3.0688 C   0  0  0  0  0  0
    4.3857   -1.6320    2.7926 C   0  0  0  0  0  0
    4.2706   -2.3298    1.7944 O   0  0  0  0  0  0
    5.2531   -1.9339    3.7707 O   0  0  0  0  0  0
    3.8356    1.1254    5.0304 C   0  0  0  0  0  0
    4.7378    1.1933    5.8416 O   0  0  0  0  0  0
    3.3612    2.2265    4.4107 O   0  0  0  0  0  0
   -3.4931  -14.1487    6.7869 H   0  0  0  0  0  0
   -4.7711  -15.0189    7.2667 H   0  0  0  0  0  0
   -3.1144  -12.6671   10.3076 H   0  0  0  0  0  0
   -0.2391   -9.5955    6.5014 H   0  0  0  0  0  0
   -4.8585   -3.9236    7.1396 H   0  0  0  0  0  0
   -6.3251   -3.3203   12.1726 H   0  0  0  0  0  0
   -4.4016    1.0280    8.9106 H   0  0  0  0  0  0
    5.5378   -1.0834    4.1667 H   0  0  0  0  0  0
    2.5668    2.0830    3.8499 H   0  0  0  0  0  0
  1  2  1  0  0  0
  2  3  1  0  0  0
  3  4  1  0  0  0
  4  5  1  0  0  0
  5  6  1  0  0  0
  5  7  1  0  0  0
  7  8  1  0  0  0
  7 39  1  0  0  0
  8  9  1  0  0  0
  8 27  1  0  0  0
  9 10  1  0  0  0
 10 11  1  0  0  0
 10 12  1  0  0  0
 12 13  1  0  0  0
 13 14  1  0  0  0
 13 26  1  0  0  0
 14 15  1  0  0  0
 15 16  1  0  0  0
 16 17  1  0  0  0
 17 18  1  0  0  0
 18 19  1  0  0  0
 18 25  1  0  0  0
 19 20  1  0  0  0
 20 21  1  0  0  0
 20 24  1  0  0  0
 21 22  1  0  0  0
 21 23  1  0  0  0
 23 51  1  0  0  0
 23 52  1  0  0  0
 24 53  1  0  0  0
 25 54  1  0  0  0
 26 55  1  0  0  0
 27 28  1  0  0  0
 28 29  2  0  0  0
 28 30  1  0  0  0
 30 31  1  0  0  0
 31 32  1  0  0  0
 31 36  1  0  0  0
 32 33  1  0  0  0
 33 34  2  0  0  0
 33 35  1  0  0  0
 35 56  1  0  0  0
 36 37  2  0  0  0
 36 38  1  0  0  0
 38 57  1  0  0  0
 39 40  1  0  0  0
 40 41  2  0  0  0
 40 42  1  0  0  0
 42 43  1  0  0  0
 43 44  1  0  0  0
 43 48  1  0  0  0
 44 45  1  0  0  0
 45 46  2  0  0  0
 45 47  1  0  0  0
 47 58  1  0  0  0
 48 49  2  0  0  0
 48 50  1  0  0  0
 50 59  1  0  0  0
M  END
>  <AUTHOR>
    GENERATED BY OPEN BABEL 2.4.1

>  <CHROM.1>
75.10515030,-82.92105312,173.75780091,-52.08025835,0.53765350,82.56883010
-95.68423388,142.94604050,171.05293306,-72.54267599,24.40312270,-120.89760120
-62.90435334,66.05706766,65.56699878,178.91068061,-24.08079316,-51.56360157
62.92744729,175.73663044,-77.45057932,159.52164507,-51.41985186,22.83494837
144.59502080,119.32050981,-89.59753946,-38.57881841,-11.68510726,-177.80102212
-1.20470892,162.15004636,-117.91612810,179.40592663,-105.91979312,114.74750452
142.59847429,-29.76426714,11.61959085,-0.86720599,-4.21834017,7.20290623
-0.87596991,-0.60249803,-2.93998778

>  <COMPND>
    UNNAMED

>  <MASTER>
        0    0    0    0    0    0    0    0  109    0  109    0

>  <Name>
FB1.pdb

>  <RI>
0

>  <Rbt.Current_Directory>
/home/fc/tossine/F10/p3/2_clust03

>  <Rbt.Executable>
rbdock/0.1.0

>  <Rbt.Library>
librxdock.so/0.1.0

>  <Rbt.Parameter_File>
/cluster/rxdock/data/scripts/dock.prm

>  <Rbt.Receptor>
rx_0.prm

>  <SCORE>
12.752

>  <SCORE.INTER>
-2.24917

>  <SCORE.INTER.CONST>
1

>  <SCORE.INTER.POLAR>
-2.29647

>  <SCORE.INTER.REPUL>
0.230985

>  <SCORE.INTER.ROT>
32

>  <SCORE.INTER.VDW>
-32.9961

>  <SCORE.INTER.norm>
-0.0449834

>  <SCORE.INTRA>
14.508

>  <SCORE.INTRA.DIHEDRAL>
25.6852

>  <SCORE.INTRA.DIHEDRAL.0>
47.3121

>  <SCORE.INTRA.POLAR>
0.518915

>  <SCORE.INTRA.POLAR.0>
-1.47808

>  <SCORE.INTRA.REPUL>
0

>  <SCORE.INTRA.REPUL.0>
0

>  <SCORE.INTRA.VDW>
-0.0988914

>  <SCORE.INTRA.VDW.0>
-2.78316

>  <SCORE.INTRA.norm>
0.29016

>  <SCORE.RESTR>
0.493121

>  <SCORE.RESTR.CAVITY>
0.493121

>  <SCORE.RESTR.norm>
0.00986242

>  <SCORE.SYSTEM>
0

>  <SCORE.SYSTEM.CONST>
0

>  <SCORE.SYSTEM.DIHEDRAL>
0

>  <SCORE.SYSTEM.norm>
0

>  <SCORE.heavy>
50

>  <SCORE.norm>
0.255039

$$$$
