FB1.pdb
  RxDock  10102001453D
librxdock.so/0.1.0
 59 58  0  0  0  0  0  0  0  0999 V2000
   -7.1880  -12.1023    5.8272 C   0  0  0  0  0  0
   -6.2660  -10.8919    5.9542 C   0  0  0  0  0  0
   -5.7232  -10.7371    7.3845 C   0  0  0  0  0  0
   -4.8124   -9.4977    7.5686 C   0  0  0  0  0  0
   -4.1098   -9.3949    8.9672 C   0  0  0  0  0  0
   -3.1592  -10.6044    9.1231 C   0  0  0  0  0  0
   -3.3315   -8.0296    9.1861 C   0  0  0  0  0  0
   -2.0728   -7.7512    8.2351 C   0  0  0  0  0  0
   -1.6623   -6.3295    7.6532 C   0  0  0  0  0  0
   -0.8491   -6.3693    6.2185 C   0  0  0  0  0  0
   -1.3870   -7.5334    5.3881 C   0  0  0  0  0  0
   -0.8875   -5.0309    5.3512 C   0  0  0  0  0  0
   -0.3341   -4.9157    3.8349 C   0  0  0  0  0  0
   -0.1201   -3.5370    3.1212 C   0  0  0  0  0  0
    1.3492   -2.9125    3.1053 C   0  0  0  0  0  0
    2.4894   -3.3484    2.1029 C   0  0  0  0  0  0
    3.9706   -3.0443    2.4506 C   0  0  0  0  0  0
    4.2569   -1.6762    3.1825 C   0  0  0  0  0  0
    3.5160   -1.4453    4.5054 C   0  0  0  0  0  0
    3.8619   -0.1746    5.3323 C   0  0  0  0  0  0
    3.9573    1.2177    4.6410 C   0  0  0  0  0  0
    4.1042    2.4220    5.5604 C   0  0  0  0  0  0
    5.0037    1.2175    3.6010 N   0  0  0  0  0  0
    2.7744   -0.0476    6.2836 O   0  0  0  0  0  0
    5.6647   -1.5935    3.4293 O   0  0  0  0  0  0
    0.9668   -5.5266    3.8690 O   0  0  0  0  0  0
   -0.9004   -8.1898    8.9738 O   0  0  0  0  0  0
    0.1840   -8.5623    8.2453 C   0  0  0  0  0  0
    1.3063   -8.1032    8.3399 O   0  0  0  0  0  0
   -0.2080   -9.7161    7.3642 C   0  0  0  0  0  0
    1.0016  -10.5460    6.9053 C   0  0  0  0  0  0
    1.8385  -11.0663    8.0810 C   0  0  0  0  0  0
    2.9351  -10.0917    8.4430 C   0  0  0  0  0  0
    3.4972   -9.3694    7.6269 O   0  0  0  0  0  0
    3.2373  -10.0887    9.7497 O   0  0  0  0  0  0
    0.4264  -11.7246    6.1077 C   0  0  0  0  0  0
    0.4181  -11.7628    4.8867 O   0  0  0  0  0  0
   -0.1135  -12.6918    6.8620 O   0  0  0  0  0  0
   -4.2670   -6.8791    9.2183 O   0  0  0  0  0  0
   -4.6377   -6.2973    8.0174 C   0  0  0  0  0  0
   -4.3904   -6.7626    6.9125 O   0  0  0  0  0  0
   -5.4060   -4.9843    8.2174 C   0  0  0  0  0  0
   -6.8450   -5.1240    8.8040 C   0  0  0  0  0  0
   -7.7693   -6.1995    8.2044 C   0  0  0  0  0  0
   -7.8862   -6.1059    6.7104 C   0  0  0  0  0  0
   -7.0382   -5.6503    5.9555 O   0  0  0  0  0  0
   -9.0454   -6.6043    6.2542 O   0  0  0  0  0  0
   -6.8997   -5.2788   10.3289 C   0  0  0  0  0  0
   -7.5670   -4.5561   11.0424 O   0  0  0  0  0  0
   -6.2385   -6.3445   10.8272 O   0  0  0  0  0  0
    5.5125    2.0997    3.6389 H   0  0  0  0  0  0
    4.5524    1.2128    2.6835 H   0  0  0  0  0  0
    3.1485    0.4860    7.0162 H   0  0  0  0  0  0
    5.8501   -0.7327    3.8478 H   0  0  0  0  0  0
    0.8663   -6.4619    3.6250 H   0  0  0  0  0  0
    2.4718  -10.0460   10.3543 H   0  0  0  0  0  0
   -0.3965  -13.4948    6.3582 H   0  0  0  0  0  0
   -9.5779   -6.8440    7.0418 H   0  0  0  0  0  0
   -5.6716   -6.8251   10.1838 H   0  0  0  0  0  0
  1  2  1  0  0  0
  2  3  1  0  0  0
  3  4  1  0  0  0
  4  5  1  0  0  0
  5  6  1  0  0  0
  5  7  1  0  0  0
  7  8  1  0  0  0
  7 39  1  0  0  0
  8  9  1  0  0  0
  8 27  1  0  0  0
  9 10  1  0  0  0
 10 11  1  0  0  0
 10 12  1  0  0  0
 12 13  1  0  0  0
 13 14  1  0  0  0
 13 26  1  0  0  0
 14 15  1  0  0  0
 15 16  1  0  0  0
 16 17  1  0  0  0
 17 18  1  0  0  0
 18 19  1  0  0  0
 18 25  1  0  0  0
 19 20  1  0  0  0
 20 21  1  0  0  0
 20 24  1  0  0  0
 21 22  1  0  0  0
 21 23  1  0  0  0
 23 51  1  0  0  0
 23 52  1  0  0  0
 24 53  1  0  0  0
 25 54  1  0  0  0
 26 55  1  0  0  0
 27 28  1  0  0  0
 28 29  2  0  0  0
 28 30  1  0  0  0
 30 31  1  0  0  0
 31 32  1  0  0  0
 31 36  1  0  0  0
 32 33  1  0  0  0
 33 34  2  0  0  0
 33 35  1  0  0  0
 35 56  1  0  0  0
 36 37  2  0  0  0
 36 38  1  0  0  0
 38 57  1  0  0  0
 39 40  1  0  0  0
 40 41  2  0  0  0
 40 42  1  0  0  0
 42 43  1  0  0  0
 43 44  1  0  0  0
 43 48  1  0  0  0
 44 45  1  0  0  0
 45 46  2  0  0  0
 45 47  1  0  0  0
 47 58  1  0  0  0
 48 49  2  0  0  0
 48 50  1  0  0  0
 50 59  1  0  0  0
M  END
>  <AUTHOR>
    GENERATED BY OPEN BABEL 2.4.1

>  <CHROM.1>
-178.42747276,-173.37991491,63.44259827,-64.89444814,143.33085308,-85.71994470
-152.24879636,154.32854348,34.48115715,-171.30217068,-167.26709724,97.54814577
93.23400241,80.34269130,-159.94022755,-36.81478046,57.02475138,174.39678844
177.65910671,46.82635331,171.58113061,157.20954239,-139.49551566,123.96492138
-158.48451877,55.86948736,-90.85711992,101.44679197,-31.95974656,-47.32241192
-173.73429914,9.88413842,-70.21585307,-46.04855102,-52.79271591,125.92992372
27.41137196,4.87405919,9.57855714,-1.26063133,-6.39715489,6.67835266,-2.44931969
0.23960571,-0.21160689

>  <COMPND>
    UNNAMED

>  <MASTER>
        0    0    0    0    0    0    0    0  109    0  109    0

>  <Name>
FB1.pdb

>  <RI>
0

>  <Rbt.Current_Directory>
/home/fc/tossine/F10/p3/2_clust03

>  <Rbt.Executable>
rbdock/0.1.0

>  <Rbt.Library>
librxdock.so/0.1.0

>  <Rbt.Parameter_File>
/cluster/rxdock/data/scripts/dock.prm

>  <Rbt.Receptor>
rx_3.prm

>  <SCORE>
15.4444

>  <SCORE.INTER>
-6.17285

>  <SCORE.INTER.CONST>
1

>  <SCORE.INTER.POLAR>
-3.77807

>  <SCORE.INTER.REPUL>
0.48438

>  <SCORE.INTER.ROT>
32

>  <SCORE.INTER.VDW>
-33.1493

>  <SCORE.INTER.norm>
-0.123457

>  <SCORE.INTRA>
21.5718

>  <SCORE.INTRA.DIHEDRAL>
31.0016

>  <SCORE.INTRA.DIHEDRAL.0>
47.3121

>  <SCORE.INTRA.POLAR>
-0.167288

>  <SCORE.INTRA.POLAR.0>
-1.47808

>  <SCORE.INTRA.REPUL>
0

>  <SCORE.INTRA.REPUL.0>
0

>  <SCORE.INTRA.VDW>
6.63976

>  <SCORE.INTRA.VDW.0>
-2.78316

>  <SCORE.INTRA.norm>
0.431435

>  <SCORE.RESTR>
0.045489

>  <SCORE.RESTR.CAVITY>
0.045489

>  <SCORE.RESTR.norm>
0.000909779

>  <SCORE.SYSTEM>
0

>  <SCORE.SYSTEM.CONST>
0

>  <SCORE.SYSTEM.DIHEDRAL>
0

>  <SCORE.SYSTEM.norm>
0

>  <SCORE.heavy>
50

>  <SCORE.norm>
0.308888

$$$$
