FB1.pdb
  RxDock  10102001443D
librxdock.so/0.1.0
 59 58  0  0  0  0  0  0  0  0999 V2000
   -4.7628   -7.1645   14.8014 C   0  0  0  0  0  0
   -3.7265   -6.8899   13.7142 C   0  0  0  0  0  0
   -4.0234   -7.6835   12.4311 C   0  0  0  0  0  0
   -3.3353   -7.1008   11.1715 C   0  0  0  0  0  0
   -3.8757   -7.6541    9.8068 C   0  0  0  0  0  0
   -5.1824   -6.9031    9.4616 C   0  0  0  0  0  0
   -2.8281   -7.5452    8.6200 C   0  0  0  0  0  0
   -1.9039   -6.2372    8.5856 C   0  0  0  0  0  0
   -0.8474   -5.8929    7.4482 C   0  0  0  0  0  0
   -0.8044   -6.9569    6.1883 C   0  0  0  0  0  0
   -1.8303   -6.5158    5.1457 C   0  0  0  0  0  0
    0.6148   -7.1616    5.4890 C   0  0  0  0  0  0
    1.6156   -5.9524    5.0956 C   0  0  0  0  0  0
    2.1563   -4.9312    6.1544 C   0  0  0  0  0  0
    2.4645   -3.4386    5.6785 C   0  0  0  0  0  0
    3.5119   -3.0615    4.5581 C   0  0  0  0  0  0
    3.5911   -1.5988    4.0466 C   0  0  0  0  0  0
    4.3229   -0.5622    4.9842 C   0  0  0  0  0  0
    4.8921    0.6877    4.3013 C   0  0  0  0  0  0
    5.5682    0.5247    2.9104 C   0  0  0  0  0  0
    6.9248    1.2250    2.6030 C   0  0  0  0  0  0
    7.8776    1.4013    3.7772 C   0  0  0  0  0  0
    7.6046    0.5774    1.4650 N   0  0  0  0  0  0
    5.8450   -0.8948    2.8003 O   0  0  0  0  0  0
    3.3952   -0.1469    5.9924 O   0  0  0  0  0  0
    2.7854   -6.5984    4.5659 O   0  0  0  0  0  0
   -2.8088   -5.0999    8.5922 O   0  0  0  0  0  0
   -3.5564   -4.8999    7.4757 C   0  0  0  0  0  0
   -3.8519   -5.7404    6.6477 O   0  0  0  0  0  0
   -4.0493   -3.4792    7.4812 C   0  0  0  0  0  0
   -4.6801   -3.0680    6.1412 C   0  0  0  0  0  0
   -5.9239   -3.8974    5.7971 C   0  0  0  0  0  0
   -6.4294   -3.5722    4.4107 C   0  0  0  0  0  0
   -7.5578   -3.1502    4.1818 O   0  0  0  0  0  0
   -5.5220   -3.7880    3.4468 O   0  0  0  0  0  0
   -5.0600   -1.5884    6.2901 C   0  0  0  0  0  0
   -4.2334   -0.6927    6.3734 O   0  0  0  0  0  0
   -6.3782   -1.3613    6.3715 O   0  0  0  0  0  0
   -2.0318   -8.7900    8.4927 O   0  0  0  0  0  0
   -0.8699   -8.9082    9.2370 C   0  0  0  0  0  0
   -0.8027   -9.4218   10.3461 O   0  0  0  0  0  0
    0.3487   -8.3185    8.5148 C   0  0  0  0  0  0
    1.5853   -9.2620    8.3918 C   0  0  0  0  0  0
    1.4485  -10.5238    7.5202 C   0  0  0  0  0  0
    0.4572  -11.5100    8.0674 C   0  0  0  0  0  0
   -0.5482  -11.9046    7.4929 O   0  0  0  0  0  0
    0.7953  -11.9541    9.2876 O   0  0  0  0  0  0
    2.8833   -8.5607    7.9727 C   0  0  0  0  0  0
    2.9120   -7.6511    7.1673 O   0  0  0  0  0  0
    3.9916   -8.9470    8.6387 O   0  0  0  0  0  0
    8.5108    0.2272    1.7726 H   0  0  0  0  0  0
    7.8215    1.2907    0.7652 H   0  0  0  0  0  0
    5.1600   -1.2328    2.1857 H   0  0  0  0  0  0
    3.8930    0.0192    6.8140 H   0  0  0  0  0  0
    2.4955   -7.2566    3.9122 H   0  0  0  0  0  0
   -4.6983   -4.2227    3.7399 H   0  0  0  0  0  0
   -6.6196   -0.4608    6.7024 H   0  0  0  0  0  0
   -0.0306  -12.2707    9.7105 H   0  0  0  0  0  0
    3.9599   -9.8543    9.0156 H   0  0  0  0  0  0
  1  2  1  0  0  0
  2  3  1  0  0  0
  3  4  1  0  0  0
  4  5  1  0  0  0
  5  6  1  0  0  0
  5  7  1  0  0  0
  7  8  1  0  0  0
  7 39  1  0  0  0
  8  9  1  0  0  0
  8 27  1  0  0  0
  9 10  1  0  0  0
 10 11  1  0  0  0
 10 12  1  0  0  0
 12 13  1  0  0  0
 13 14  1  0  0  0
 13 26  1  0  0  0
 14 15  1  0  0  0
 15 16  1  0  0  0
 16 17  1  0  0  0
 17 18  1  0  0  0
 18 19  1  0  0  0
 18 25  1  0  0  0
 19 20  1  0  0  0
 20 21  1  0  0  0
 20 24  1  0  0  0
 21 22  1  0  0  0
 21 23  1  0  0  0
 23 51  1  0  0  0
 23 52  1  0  0  0
 24 53  1  0  0  0
 25 54  1  0  0  0
 26 55  1  0  0  0
 27 28  1  0  0  0
 28 29  2  0  0  0
 28 30  1  0  0  0
 30 31  1  0  0  0
 31 32  1  0  0  0
 31 36  1  0  0  0
 32 33  1  0  0  0
 33 34  2  0  0  0
 33 35  1  0  0  0
 35 56  1  0  0  0
 36 37  2  0  0  0
 36 38  1  0  0  0
 38 57  1  0  0  0
 39 40  1  0  0  0
 40 41  2  0  0  0
 40 42  1  0  0  0
 42 43  1  0  0  0
 43 44  1  0  0  0
 43 48  1  0  0  0
 44 45  1  0  0  0
 45 46  2  0  0  0
 45 47  1  0  0  0
 47 58  1  0  0  0
 48 49  2  0  0  0
 48 50  1  0  0  0
 50 59  1  0  0  0
M  END
>  <AUTHOR>
    GENERATED BY OPEN BABEL 2.4.1

>  <CHROM.1>
159.99267207,-165.88219867,80.39885475,-37.45843540,-176.63330628,-88.19871580
3.62881643,-68.99902033,87.98764590,-44.79647815,57.69954429,-148.86463768
48.69003839,-60.19664086,171.87448837,76.82041564,156.58424933,-39.53953301
146.47388122,-135.04446966,31.72789211,104.17491831,-120.18100540,23.03426104
169.14933657,62.54350844,-173.83400224,68.82340162,-121.19084871,6.98205603
164.63504209,92.62806807,-127.65506809,66.03195865,-65.39782892,-37.28296426
120.13049040,157.15022419,25.44763197,-0.37385590,-5.23896072,6.89929284
-2.34082541,0.18555368,-0.51620117

>  <COMPND>
    UNNAMED

>  <MASTER>
        0    0    0    0    0    0    0    0  109    0  109    0

>  <Name>
FB1.pdb

>  <RI>
0

>  <Rbt.Current_Directory>
/home/fc/tossine/F10/p3/2_clust03

>  <Rbt.Executable>
rbdock/0.1.0

>  <Rbt.Library>
librxdock.so/0.1.0

>  <Rbt.Parameter_File>
/cluster/rxdock/data/scripts/dock.prm

>  <Rbt.Receptor>
rx_3.prm

>  <SCORE>
1153.22

>  <SCORE.INTER>
1107.39

>  <SCORE.INTER.CONST>
1

>  <SCORE.INTER.POLAR>
-0.718613

>  <SCORE.INTER.REPUL>
2.45658

>  <SCORE.INTER.ROT>
32

>  <SCORE.INTER.VDW>
1060.15

>  <SCORE.INTER.norm>
22.1479

>  <SCORE.INTRA>
34.6893

>  <SCORE.INTRA.DIHEDRAL>
49.612

>  <SCORE.INTRA.DIHEDRAL.0>
47.3121

>  <SCORE.INTRA.POLAR>
1.47808

>  <SCORE.INTRA.POLAR.0>
-1.47808

>  <SCORE.INTRA.REPUL>
0

>  <SCORE.INTRA.REPUL.0>
0

>  <SCORE.INTRA.VDW>
4.85784

>  <SCORE.INTRA.VDW.0>
-2.78316

>  <SCORE.INTRA.norm>
0.693786

>  <SCORE.RESTR>
11.1389

>  <SCORE.RESTR.CAVITY>
11.1389

>  <SCORE.RESTR.norm>
0.222779

>  <SCORE.SYSTEM>
0

>  <SCORE.SYSTEM.CONST>
0

>  <SCORE.SYSTEM.DIHEDRAL>
0

>  <SCORE.SYSTEM.norm>
0

>  <SCORE.heavy>
50

>  <SCORE.norm>
23.0644

$$$$
