FB1.pdb
  RxDock  10102001483D
librxdock.so/0.1.0
 59 58  0  0  0  0  0  0  0  0999 V2000
   -0.5806    0.2872    6.9710 C   0  0  0  0  0  0
    0.1630   -1.0290    6.7564 C   0  0  0  0  0  0
   -0.5312   -2.1987    7.4735 C   0  0  0  0  0  0
   -1.9155   -2.5550    6.8764 C   0  0  0  0  0  0
   -2.6426   -3.7617    7.5659 C   0  0  0  0  0  0
   -4.1258   -3.7487    7.1292 C   0  0  0  0  0  0
   -1.9721   -5.1661    7.2558 C   0  0  0  0  0  0
   -0.4137   -5.3169    7.5949 C   0  0  0  0  0  0
    0.2085   -5.3167    9.0581 C   0  0  0  0  0  0
    1.8564   -5.2678    9.1174 C   0  0  0  0  0  0
    2.3994   -6.6099    8.6297 C   0  0  0  0  0  0
    2.5541   -4.0828    8.3089 C   0  0  0  0  0  0
    2.8303   -4.1112    6.7147 C   0  0  0  0  0  0
    1.7298   -3.7342    5.6646 C   0  0  0  0  0  0
    2.1890   -3.0387    4.3027 C   0  0  0  0  0  0
    3.0768   -3.7413    3.2014 C   0  0  0  0  0  0
    3.5517   -2.9276    1.9687 C   0  0  0  0  0  0
    4.7690   -1.9498    2.1950 C   0  0  0  0  0  0
    4.6900   -1.0406    3.4277 C   0  0  0  0  0  0
    4.2964    0.4496    3.2208 C   0  0  0  0  0  0
    3.0658    0.8287    2.3450 C   0  0  0  0  0  0
    1.8269   -0.0414    2.5043 C   0  0  0  0  0  0
    2.7305    2.2570    2.5000 N   0  0  0  0  0  0
    3.9745    0.9327    4.5500 O   0  0  0  0  0  0
    5.9591   -2.7403    2.2885 O   0  0  0  0  0  0
    3.8891   -3.1615    6.5060 O   0  0  0  0  0  0
    0.0048   -6.5872    7.0260 O   0  0  0  0  0  0
   -0.3461   -7.7116    7.7027 C   0  0  0  0  0  0
   -1.1078   -7.7736    8.6489 O   0  0  0  0  0  0
    0.2874   -8.8937    7.0224 C   0  0  0  0  0  0
    0.4696  -10.0914    7.9683 C   0  0  0  0  0  0
    0.8711  -11.3723    7.2257 C   0  0  0  0  0  0
   -0.1598  -11.7452    6.1856 C   0  0  0  0  0  0
   -1.1453  -12.4347    6.4242 O   0  0  0  0  0  0
    0.1044  -11.2467    4.9688 O   0  0  0  0  0  0
    1.5753   -9.6868    8.9531 C   0  0  0  0  0  0
    1.3525   -9.3634   10.1099 O   0  0  0  0  0  0
    2.8069   -9.6690    8.4251 O   0  0  0  0  0  0
   -2.7728   -6.2785    7.8224 O   0  0  0  0  0  0
   -3.6970   -6.9082    7.0054 C   0  0  0  0  0  0
   -3.7409   -6.7950    5.7874 O   0  0  0  0  0  0
   -4.6794   -7.7799    7.7988 C   0  0  0  0  0  0
   -4.7449   -9.2810    7.3783 C   0  0  0  0  0  0
   -4.3999  -10.3444    8.4369 C   0  0  0  0  0  0
   -3.2122   -9.9724    9.2767 C   0  0  0  0  0  0
   -3.1464   -9.0148   10.0352 O   0  0  0  0  0  0
   -2.1910  -10.8304    9.1301 O   0  0  0  0  0  0
   -6.0672   -9.7034    6.7262 C   0  0  0  0  0  0
   -7.1194   -9.1336    6.9379 O   0  0  0  0  0  0
   -5.9724  -10.6904    5.8107 O   0  0  0  0  0  0
    2.2235    2.3881    3.3743 H   0  0  0  0  0  0
    2.0656    2.5178    1.7683 H   0  0  0  0  0  0
    4.8031    0.8181    5.0615 H   0  0  0  0  0  0
    5.7651   -3.5174    2.8445 H   0  0  0  0  0  0
    4.2514   -3.3057    5.6159 H   0  0  0  0  0  0
    0.9763  -10.8173    4.8748 H   0  0  0  0  0  0
    3.4982   -9.2709    9.0102 H   0  0  0  0  0  0
   -1.4644  -10.5032    9.7014 H   0  0  0  0  0  0
   -6.8132  -10.9266    5.3596 H   0  0  0  0  0  0
  1  2  1  0  0  0
  2  3  1  0  0  0
  3  4  1  0  0  0
  4  5  1  0  0  0
  5  6  1  0  0  0
  5  7  1  0  0  0
  7  8  1  0  0  0
  7 39  1  0  0  0
  8  9  1  0  0  0
  8 27  1  0  0  0
  9 10  1  0  0  0
 10 11  1  0  0  0
 10 12  1  0  0  0
 12 13  1  0  0  0
 13 14  1  0  0  0
 13 26  1  0  0  0
 14 15  1  0  0  0
 15 16  1  0  0  0
 16 17  1  0  0  0
 17 18  1  0  0  0
 18 19  1  0  0  0
 18 25  1  0  0  0
 19 20  1  0  0  0
 20 21  1  0  0  0
 20 24  1  0  0  0
 21 22  1  0  0  0
 21 23  1  0  0  0
 23 51  1  0  0  0
 23 52  1  0  0  0
 24 53  1  0  0  0
 25 54  1  0  0  0
 26 55  1  0  0  0
 27 28  1  0  0  0
 28 29  2  0  0  0
 28 30  1  0  0  0
 30 31  1  0  0  0
 31 32  1  0  0  0
 31 36  1  0  0  0
 32 33  1  0  0  0
 33 34  2  0  0  0
 33 35  1  0  0  0
 35 56  1  0  0  0
 36 37  2  0  0  0
 36 38  1  0  0  0
 38 57  1  0  0  0
 39 40  1  0  0  0
 40 41  2  0  0  0
 40 42  1  0  0  0
 42 43  1  0  0  0
 43 44  1  0  0  0
 43 48  1  0  0  0
 44 45  1  0  0  0
 45 46  2  0  0  0
 45 47  1  0  0  0
 47 58  1  0  0  0
 48 49  2  0  0  0
 48 50  1  0  0  0
 50 59  1  0  0  0
M  END
>  <AUTHOR>
    GENERATED BY OPEN BABEL 2.4.1

>  <CHROM.1>
67.18277266,178.91779380,165.03967049,55.22198511,67.81811801,94.46630563
-171.51171146,-76.83159876,-70.30650664,-81.27868502,82.63951120,147.59557568
165.34455799,65.53810669,-175.28165570,77.95545161,-47.52213949,-102.39771759
-42.91451738,47.95208451,41.02519999,60.63857333,-78.57776668,9.34700393
155.88120427,169.44346710,-58.45573101,104.73305310,-87.45565307,8.05469101
170.60289587,14.30642525,-123.44888449,120.24122013,-41.79201262,-25.76423133
63.79310582,179.26920916,-176.88572102,-0.04856871,-5.80787643,6.52641826
1.00676567,0.17483577,-0.29763186

>  <COMPND>
    UNNAMED

>  <MASTER>
        0    0    0    0    0    0    0    0  109    0  109    0

>  <Name>
FB1.pdb

>  <RI>
0

>  <Rbt.Current_Directory>
/home/fc/tossine/F10/p3/2_clust03

>  <Rbt.Executable>
rbdock/0.1.0

>  <Rbt.Library>
librxdock.so/0.1.0

>  <Rbt.Parameter_File>
/cluster/rxdock/data/scripts/dock.prm

>  <Rbt.Receptor>
rx_3.prm

>  <SCORE>
3.33443

>  <SCORE.INTER>
-1.46993

>  <SCORE.INTER.CONST>
1

>  <SCORE.INTER.POLAR>
-2.68878

>  <SCORE.INTER.REPUL>
1.07908

>  <SCORE.INTER.ROT>
32

>  <SCORE.INTER.VDW>
-35.1235

>  <SCORE.INTER.norm>
-0.0293985

>  <SCORE.INTRA>
4.80435

>  <SCORE.INTRA.DIHEDRAL>
1.36823

>  <SCORE.INTRA.DIHEDRAL.0>
47.3121

>  <SCORE.INTRA.POLAR>
1.47808

>  <SCORE.INTRA.POLAR.0>
-1.47808

>  <SCORE.INTRA.REPUL>
0

>  <SCORE.INTRA.REPUL.0>
0

>  <SCORE.INTRA.VDW>
-0.905224

>  <SCORE.INTRA.VDW.0>
-2.78316

>  <SCORE.INTRA.norm>
0.0960871

>  <SCORE.RESTR>
0

>  <SCORE.RESTR.CAVITY>
0

>  <SCORE.RESTR.norm>
0

>  <SCORE.SYSTEM>
0

>  <SCORE.SYSTEM.CONST>
0

>  <SCORE.SYSTEM.DIHEDRAL>
0

>  <SCORE.SYSTEM.norm>
0

>  <SCORE.heavy>
50

>  <SCORE.norm>
0.0666885

$$$$
