FB1.pdb
  RxDock  10102001433D
librxdock.so/0.1.0
 59 58  0  0  0  0  0  0  0  0999 V2000
    3.5322   -2.1395    7.2942 C   0  0  0  0  0  0
    3.5435   -3.2472    8.3450 C   0  0  0  0  0  0
    2.3234   -4.1731    8.2094 C   0  0  0  0  0  0
    2.3645   -5.0678    6.9455 C   0  0  0  0  0  0
    1.0080   -5.7693    6.5872 C   0  0  0  0  0  0
    1.1362   -6.3801    5.1726 C   0  0  0  0  0  0
    0.5658   -6.8690    7.6422 C   0  0  0  0  0  0
   -0.9051   -7.4820    7.4781 C   0  0  0  0  0  0
   -2.2585   -6.6545    7.5859 C   0  0  0  0  0  0
   -2.5866   -5.6793    6.2965 C   0  0  0  0  0  0
   -4.0769   -5.7833    5.9764 C   0  0  0  0  0  0
   -2.1792   -4.1450    6.4537 C   0  0  0  0  0  0
   -2.9111   -3.1100    7.4595 C   0  0  0  0  0  0
   -4.4608   -3.1189    7.6927 C   0  0  0  0  0  0
   -5.1554   -1.7806    8.2176 C   0  0  0  0  0  0
   -6.7145   -1.5985    8.3932 C   0  0  0  0  0  0
   -7.2608   -0.3354    9.1098 C   0  0  0  0  0  0
   -6.8108   -0.1235   10.6071 C   0  0  0  0  0  0
   -5.2990   -0.0888   10.8638 C   0  0  0  0  0  0
   -4.7891   -0.3744   12.3048 C   0  0  0  0  0  0
   -5.5404   -1.3814   13.2251 C   0  0  0  0  0  0
   -5.8550   -2.7441   12.6238 C   0  0  0  0  0  0
   -4.8510   -1.5236   14.5217 N   0  0  0  0  0  0
   -3.4690   -0.9468   12.1209 O   0  0  0  0  0  0
   -7.3789    1.1068   11.0692 O   0  0  0  0  0  0
   -2.3361   -3.3791    8.7493 O   0  0  0  0  0  0
   -0.9518   -8.0772    6.1530 O   0  0  0  0  0  0
   -0.6177   -9.3902    6.0544 C   0  0  0  0  0  0
    0.1245   -9.8835    5.2266 O   0  0  0  0  0  0
   -1.2404  -10.1276    7.2076 C   0  0  0  0  0  0
   -2.5186  -10.8808    6.8056 C   0  0  0  0  0  0
   -2.8325  -12.0514    7.7461 C   0  0  0  0  0  0
   -1.8576  -13.1883    7.5457 C   0  0  0  0  0  0
   -0.6770  -13.1351    7.8729 O   0  0  0  0  0  0
   -2.4079  -14.2696    6.9740 O   0  0  0  0  0  0
   -3.6516   -9.8467    6.8576 C   0  0  0  0  0  0
   -3.7998   -9.0659    7.7854 O   0  0  0  0  0  0
   -4.4993   -9.9024    5.8211 O   0  0  0  0  0  0
    1.5959   -7.9278    7.7757 O   0  0  0  0  0  0
    2.6551   -7.7114    8.6414 C   0  0  0  0  0  0
    2.7192   -6.7922    9.4472 O   0  0  0  0  0  0
    3.7614   -8.7630    8.4845 C   0  0  0  0  0  0
    3.7707   -9.9009    9.5520 C   0  0  0  0  0  0
    4.9321  -10.9110    9.5224 C   0  0  0  0  0  0
    5.0354  -11.6480    8.2183 C   0  0  0  0  0  0
    5.9060  -11.4862    7.3742 O   0  0  0  0  0  0
    4.0569  -12.5525    8.0611 O   0  0  0  0  0  0
    3.6277   -9.4175   11.0005 C   0  0  0  0  0  0
    3.6400   -8.2420   11.3086 O   0  0  0  0  0  0
    3.3780  -10.3817   11.9112 O   0  0  0  0  0  0
   -5.3677   -2.1808   15.1044 H   0  0  0  0  0  0
   -4.9042   -0.6320   15.0194 H   0  0  0  0  0  0
   -2.9400   -0.2237   11.7226 H   0  0  0  0  0  0
   -8.3464    0.9964   11.1162 H   0  0  0  0  0  0
   -2.6664   -2.7095    9.3714 H   0  0  0  0  0  0
   -1.7915  -15.0056    6.7954 H   0  0  0  0  0  0
   -4.3229  -10.6404    5.1863 H   0  0  0  0  0  0
    4.1988  -12.9713    7.1860 H   0  0  0  0  0  0
    3.3475  -11.2974   11.5551 H   0  0  0  0  0  0
  1  2  1  0  0  0
  2  3  1  0  0  0
  3  4  1  0  0  0
  4  5  1  0  0  0
  5  6  1  0  0  0
  5  7  1  0  0  0
  7  8  1  0  0  0
  7 39  1  0  0  0
  8  9  1  0  0  0
  8 27  1  0  0  0
  9 10  1  0  0  0
 10 11  1  0  0  0
 10 12  1  0  0  0
 12 13  1  0  0  0
 13 14  1  0  0  0
 13 26  1  0  0  0
 14 15  1  0  0  0
 15 16  1  0  0  0
 16 17  1  0  0  0
 17 18  1  0  0  0
 18 19  1  0  0  0
 18 25  1  0  0  0
 19 20  1  0  0  0
 20 21  1  0  0  0
 20 24  1  0  0  0
 21 22  1  0  0  0
 21 23  1  0  0  0
 23 51  1  0  0  0
 23 52  1  0  0  0
 24 53  1  0  0  0
 25 54  1  0  0  0
 26 55  1  0  0  0
 27 28  1  0  0  0
 28 29  2  0  0  0
 28 30  1  0  0  0
 30 31  1  0  0  0
 31 32  1  0  0  0
 31 36  1  0  0  0
 32 33  1  0  0  0
 33 34  2  0  0  0
 33 35  1  0  0  0
 35 56  1  0  0  0
 36 37  2  0  0  0
 36 38  1  0  0  0
 38 57  1  0  0  0
 39 40  1  0  0  0
 40 41  2  0  0  0
 40 42  1  0  0  0
 42 43  1  0  0  0
 43 44  1  0  0  0
 43 48  1  0  0  0
 44 45  1  0  0  0
 45 46  2  0  0  0
 45 47  1  0  0  0
 47 58  1  0  0  0
 48 49  2  0  0  0
 48 50  1  0  0  0
 50 59  1  0  0  0
M  END
>  <AUTHOR>
    GENERATED BY OPEN BABEL 2.4.1

>  <CHROM.1>
70.10286037,-166.18685423,168.78965218,171.17575752,-62.28496493,84.57296741
73.72643347,91.64786688,138.78604997,-69.11066099,-38.87989427,-156.78240602
173.32721344,175.07493113,170.82655114,-60.70117986,55.91109297,-159.27236822
67.29797184,33.52181584,50.02160247,64.79351283,179.54019039,-133.92643995
100.96593203,156.46683492,-71.62207732,-45.86023417,69.97540476,177.35929570
3.88966958,10.54394471,-100.58962493,-174.52788054,-58.92895994,-6.99545654
108.35372165,179.32154528,2.19934744,-1.01160743,-6.57893374,8.50887929,-2.23280457
0.15564262,-2.76843153

>  <COMPND>
    UNNAMED

>  <MASTER>
        0    0    0    0    0    0    0    0  109    0  109    0

>  <Name>
FB1.pdb

>  <RI>
0

>  <Rbt.Current_Directory>
/home/fc/tossine/F10/p3/2_clust03

>  <Rbt.Executable>
rbdock/0.1.0

>  <Rbt.Library>
librxdock.so/0.1.0

>  <Rbt.Parameter_File>
/cluster/rxdock/data/scripts/dock.prm

>  <Rbt.Receptor>
rx_3.prm

>  <SCORE>
16.1716

>  <SCORE.INTER>
7.38793

>  <SCORE.INTER.CONST>
1

>  <SCORE.INTER.POLAR>
-1.248

>  <SCORE.INTER.REPUL>
0.898589

>  <SCORE.INTER.ROT>
32

>  <SCORE.INTER.VDW>
-30.2618

>  <SCORE.INTER.norm>
0.147759

>  <SCORE.INTRA>
7.55084

>  <SCORE.INTRA.DIHEDRAL>
5.38445

>  <SCORE.INTRA.DIHEDRAL.0>
47.3121

>  <SCORE.INTRA.POLAR>
1.47808

>  <SCORE.INTRA.POLAR.0>
-1.47808

>  <SCORE.INTRA.REPUL>
0

>  <SCORE.INTRA.REPUL.0>
0

>  <SCORE.INTRA.VDW>
-0.166849

>  <SCORE.INTRA.VDW.0>
-2.78316

>  <SCORE.INTRA.norm>
0.151017

>  <SCORE.RESTR>
1.23288

>  <SCORE.RESTR.CAVITY>
1.23288

>  <SCORE.RESTR.norm>
0.0246576

>  <SCORE.SYSTEM>
0

>  <SCORE.SYSTEM.CONST>
0

>  <SCORE.SYSTEM.DIHEDRAL>
0

>  <SCORE.SYSTEM.norm>
0

>  <SCORE.heavy>
50

>  <SCORE.norm>
0.323433

$$$$
