FB1.pdb
  RxDock  10092023053D
librxdock.so/0.1.0
 59 58  0  0  0  0  0  0  0  0999 V2000
   -0.6930    0.1232    2.9106 C   0  0  0  0  0  0
   -0.0977   -1.1889    3.4159 C   0  0  0  0  0  0
   -0.1799   -2.2978    2.3538 C   0  0  0  0  0  0
    0.4668   -3.6320    2.8027 C   0  0  0  0  0  0
   -0.3190   -4.4056    3.9182 C   0  0  0  0  0  0
    0.4111   -5.7414    4.1888 C   0  0  0  0  0  0
   -0.4980   -3.5752    5.2584 C   0  0  0  0  0  0
   -1.4314   -4.2175    6.3909 C   0  0  0  0  0  0
   -3.0209   -4.2430    6.3607 C   0  0  0  0  0  0
   -3.7406   -4.6769    7.7803 C   0  0  0  0  0  0
   -5.0955   -3.9768    7.8710 C   0  0  0  0  0  0
   -3.9300   -6.2421    8.0230 C   0  0  0  0  0  0
   -4.7143   -7.2295    7.0088 C   0  0  0  0  0  0
   -5.1266   -8.6881    7.4072 C   0  0  0  0  0  0
   -3.9909   -9.6790    7.9339 C   0  0  0  0  0  0
   -4.2759  -11.0276    8.7050 C   0  0  0  0  0  0
   -5.1750  -12.1083    8.0486 C   0  0  0  0  0  0
   -6.6886  -12.1322    8.4934 C   0  0  0  0  0  0
   -6.9521  -12.1992   10.0029 C   0  0  0  0  0  0
   -6.2698  -13.3321   10.8209 C   0  0  0  0  0  0
   -6.3792  -13.3628   12.3741 C   0  0  0  0  0  0
   -7.7299  -12.9845   12.9657 C   0  0  0  0  0  0
   -5.9133  -14.6566   12.9083 N   0  0  0  0  0  0
   -6.9190  -14.5500   10.3746 O   0  0  0  0  0  0
   -7.3204  -10.9575    7.9731 O   0  0  0  0  0  0
   -5.9509   -6.5558    6.7197 O   0  0  0  0  0  0
   -1.0508   -5.6170    6.4857 O   0  0  0  0  0  0
   -0.9161   -6.1365    7.7336 C   0  0  0  0  0  0
   -1.2023   -7.2677    8.0767 O   0  0  0  0  0  0
   -0.2547   -5.1077    8.6086 C   0  0  0  0  0  0
    1.2532   -5.3551    8.7744 C   0  0  0  0  0  0
    2.0977   -4.1439    8.3584 C   0  0  0  0  0  0
    3.5322   -4.2995    8.8071 C   0  0  0  0  0  0
    4.4478   -4.6149    8.0549 O   0  0  0  0  0  0
    3.7125   -4.0573   10.1139 O   0  0  0  0  0  0
    1.4695   -5.6599   10.2631 C   0  0  0  0  0  0
    1.2473   -4.8488   11.1491 O   0  0  0  0  0  0
    1.9713   -6.8776   10.5111 O   0  0  0  0  0  0
    0.8135   -3.1435    5.8001 O   0  0  0  0  0  0
    0.8473   -2.0548    6.6554 C   0  0  0  0  0  0
   -0.1048   -1.6566    7.3137 O   0  0  0  0  0  0
    2.2276   -1.3859    6.6948 C   0  0  0  0  0  0
    3.0050   -1.3567    5.3423 C   0  0  0  0  0  0
    2.8259   -0.1284    4.4314 C   0  0  0  0  0  0
    3.6163    1.0627    4.8906 C   0  0  0  0  0  0
    3.9174    1.3158    6.0490 O   0  0  0  0  0  0
    3.9959    1.8501    3.8727 O   0  0  0  0  0  0
    4.5122   -1.6116    5.4675 C   0  0  0  0  0  0
    5.0726   -1.7452    6.5375 O   0  0  0  0  0  0
    5.1690   -1.7868    4.3017 O   0  0  0  0  0  0
   -6.7081  -15.2889   12.9926 H   0  0  0  0  0  0
   -5.5861  -14.5155   13.8667 H   0  0  0  0  0  0
   -6.4564  -15.2672   10.8571 H   0  0  0  0  0  0
   -6.9099  -10.1797    8.3938 H   0  0  0  0  0  0
   -6.4624   -7.1144    6.1108 H   0  0  0  0  0  0
    2.9930   -3.5606   10.5487 H   0  0  0  0  0  0
    2.0873   -7.4445    9.7086 H   0  0  0  0  0  0
    4.5372    2.5698    4.2604 H   0  0  0  0  0  0
    4.6344   -1.6324    3.4915 H   0  0  0  0  0  0
  1  2  1  0  0  0
  2  3  1  0  0  0
  3  4  1  0  0  0
  4  5  1  0  0  0
  5  6  1  0  0  0
  5  7  1  0  0  0
  7  8  1  0  0  0
  7 39  1  0  0  0
  8  9  1  0  0  0
  8 27  1  0  0  0
  9 10  1  0  0  0
 10 11  1  0  0  0
 10 12  1  0  0  0
 12 13  1  0  0  0
 13 14  1  0  0  0
 13 26  1  0  0  0
 14 15  1  0  0  0
 15 16  1  0  0  0
 16 17  1  0  0  0
 17 18  1  0  0  0
 18 19  1  0  0  0
 18 25  1  0  0  0
 19 20  1  0  0  0
 20 21  1  0  0  0
 20 24  1  0  0  0
 21 22  1  0  0  0
 21 23  1  0  0  0
 23 51  1  0  0  0
 23 52  1  0  0  0
 24 53  1  0  0  0
 25 54  1  0  0  0
 26 55  1  0  0  0
 27 28  1  0  0  0
 28 29  2  0  0  0
 28 30  1  0  0  0
 30 31  1  0  0  0
 31 32  1  0  0  0
 31 36  1  0  0  0
 32 33  1  0  0  0
 33 34  2  0  0  0
 33 35  1  0  0  0
 35 56  1  0  0  0
 36 37  2  0  0  0
 36 38  1  0  0  0
 38 57  1  0  0  0
 39 40  1  0  0  0
 40 41  2  0  0  0
 40 42  1  0  0  0
 42 43  1  0  0  0
 43 44  1  0  0  0
 43 48  1  0  0  0
 44 45  1  0  0  0
 45 46  2  0  0  0
 45 47  1  0  0  0
 47 58  1  0  0  0
 48 49  2  0  0  0
 48 50  1  0  0  0
 50 59  1  0  0  0
M  END
>  <AUTHOR>
    GENERATED BY OPEN BABEL 2.4.1

>  <CHROM.1>
177.58491168,70.54961142,176.76432969,173.15515717,-76.32545218,157.63361246
-167.81314878,136.26241130,149.96291289,-56.09311679,-167.53944769,-54.91456643
-179.88888255,163.93882871,56.52467079,-97.62534234,-52.83279446,-53.31162474
-64.39490992,173.57291897,39.85693868,177.19024977,-92.12806696,144.34901263
-98.95499064,124.02659690,167.70200028,-63.67958775,103.00166818,-17.83878236
-3.50012400,22.66838830,36.03940728,91.72245071,77.81681651,-4.26857341,-29.35460307
-177.32519942,6.61579587,-0.98079531,-5.58078780,7.36915053,0.82845286,-0.46187435
-0.79907029

>  <COMPND>
    UNNAMED

>  <MASTER>
        0    0    0    0    0    0    0    0  109    0  109    0

>  <Name>
FB1.pdb

>  <RI>
0

>  <Rbt.Current_Directory>
/home/fc/tossine/F10/p3/2_clust03

>  <Rbt.Executable>
rbdock/0.1.0

>  <Rbt.Library>
librxdock.so/0.1.0

>  <Rbt.Parameter_File>
/cluster/rxdock/data/scripts/dock.prm

>  <Rbt.Receptor>
rx_0.prm

>  <SCORE>
12.4023

>  <SCORE.INTER>
-0.985235

>  <SCORE.INTER.CONST>
1

>  <SCORE.INTER.POLAR>
-2.55303

>  <SCORE.INTER.REPUL>
0.247776

>  <SCORE.INTER.ROT>
32

>  <SCORE.INTER.VDW>
-30.9438

>  <SCORE.INTER.norm>
-0.0197047

>  <SCORE.INTRA>
12.1794

>  <SCORE.INTRA.DIHEDRAL>
12.1936

>  <SCORE.INTRA.DIHEDRAL.0>
47.3121

>  <SCORE.INTRA.POLAR>
1.30306

>  <SCORE.INTRA.POLAR.0>
-1.47808

>  <SCORE.INTRA.REPUL>
0

>  <SCORE.INTRA.REPUL.0>
0

>  <SCORE.INTRA.VDW>
1.6522

>  <SCORE.INTRA.VDW.0>
-2.78316

>  <SCORE.INTRA.norm>
0.243588

>  <SCORE.RESTR>
1.20813

>  <SCORE.RESTR.CAVITY>
1.20813

>  <SCORE.RESTR.norm>
0.0241626

>  <SCORE.SYSTEM>
0

>  <SCORE.SYSTEM.CONST>
0

>  <SCORE.SYSTEM.DIHEDRAL>
0

>  <SCORE.SYSTEM.norm>
0

>  <SCORE.heavy>
50

>  <SCORE.norm>
0.248046

$$$$
