FB1.pdb
  RxDock  10102002243D
librxdock.so/0.1.0
 59 58  0  0  0  0  0  0  0  0999 V2000
    4.5653   -2.5837    0.9029 C   0  0  0  0  0  0
    4.6293   -1.0582    0.9162 C   0  0  0  0  0  0
    3.3985   -0.4426    1.6021 C   0  0  0  0  0  0
    3.2741   -0.8178    3.0999 C   0  0  0  0  0  0
    1.9303   -0.3821    3.7816 C   0  0  0  0  0  0
    0.7603   -1.0346    3.0096 C   0  0  0  0  0  0
    1.8594   -0.7379    5.3264 C   0  0  0  0  0  0
    3.1275   -0.3413    6.2213 C   0  0  0  0  0  0
    4.3746   -1.2844    6.5100 C   0  0  0  0  0  0
    3.9965   -2.8178    6.9867 C   0  0  0  0  0  0
    3.4580   -2.7628    8.4153 C   0  0  0  0  0  0
    2.9693   -3.6096    6.0579 C   0  0  0  0  0  0
    2.2376   -4.9887    6.4839 C   0  0  0  0  0  0
    1.5935   -5.9572    5.4337 C   0  0  0  0  0  0
    0.9474   -7.3203    5.9568 C   0  0  0  0  0  0
   -0.2763   -7.3992    6.9523 C   0  0  0  0  0  0
   -1.5254   -6.5141    6.7000 C   0  0  0  0  0  0
   -2.9090   -7.0890    7.1942 C   0  0  0  0  0  0
   -3.5851   -8.1152    6.2764 C   0  0  0  0  0  0
   -4.9690   -8.6842    6.6999 C   0  0  0  0  0  0
   -5.1315   -9.4499    8.0463 C   0  0  0  0  0  0
   -4.2295  -10.6590    8.2511 C   0  0  0  0  0  0
   -5.0408   -8.5244    9.1915 N   0  0  0  0  0  0
   -5.8229   -7.5185    6.8256 O   0  0  0  0  0  0
   -2.7042   -7.6913    8.4768 O   0  0  0  0  0  0
    3.2598   -5.7643    7.1322 O   0  0  0  0  0  0
    3.7057    0.8413    5.6054 O   0  0  0  0  0  0
    3.4531    2.0345    6.2036 C   0  0  0  0  0  0
    2.7279    2.2193    7.1624 O   0  0  0  0  0  0
    4.3027    3.0863    5.5453 C   0  0  0  0  0  0
    4.6638    4.2358    6.4996 C   0  0  0  0  0  0
    5.8002    5.1139    5.9599 C   0  0  0  0  0  0
    7.0318    4.2901    5.6634 C   0  0  0  0  0  0
    7.1667    3.1222    6.0120 O   0  0  0  0  0  0
    7.9698    4.9594    4.9771 O   0  0  0  0  0  0
    3.3852    5.0702    6.6578 C   0  0  0  0  0  0
    3.2001    6.1250    6.0701 O   0  0  0  0  0  0
    2.5040    4.5706    7.5353 O   0  0  0  0  0  0
    0.5879   -0.2661    5.9267 O   0  0  0  0  0  0
   -0.2441   -1.1977    6.5251 C   0  0  0  0  0  0
   -0.0659   -2.4085    6.4994 O   0  0  0  0  0  0
   -1.4351   -0.5441    7.2381 C   0  0  0  0  0  0
   -2.4522   -1.5265    7.8975 C   0  0  0  0  0  0
   -3.5589   -0.9322    8.7877 C   0  0  0  0  0  0
   -3.0528    0.1261    9.7249 C   0  0  0  0  0  0
   -2.8654   -0.0145   10.9256 O   0  0  0  0  0  0
   -2.7951    1.2849    9.0994 O   0  0  0  0  0  0
   -3.1288   -2.4951    6.9196 C   0  0  0  0  0  0
   -3.3213   -3.6668    7.1778 O   0  0  0  0  0  0
   -3.5989   -1.9376    5.7841 O   0  0  0  0  0  0
   -4.8601   -9.0593   10.0398 H   0  0  0  0  0  0
   -5.9579   -8.0973    9.3397 H   0  0  0  0  0  0
   -5.9852   -7.2309    5.9024 H   0  0  0  0  0  0
   -2.3970   -7.0001    9.0919 H   0  0  0  0  0  0
    3.1703   -6.6860    6.8372 H   0  0  0  0  0  0
    7.7888    5.9093    4.8419 H   0  0  0  0  0  0
    1.7344    5.1625    7.7256 H   0  0  0  0  0  0
   -3.0464    1.1595    8.1601 H   0  0  0  0  0  0
   -3.4959   -0.9620    5.7216 H   0  0  0  0  0  0
  1  2  1  0  0  0
  2  3  1  0  0  0
  3  4  1  0  0  0
  4  5  1  0  0  0
  5  6  1  0  0  0
  5  7  1  0  0  0
  7  8  1  0  0  0
  7 39  1  0  0  0
  8  9  1  0  0  0
  8 27  1  0  0  0
  9 10  1  0  0  0
 10 11  1  0  0  0
 10 12  1  0  0  0
 12 13  1  0  0  0
 13 14  1  0  0  0
 13 26  1  0  0  0
 14 15  1  0  0  0
 15 16  1  0  0  0
 16 17  1  0  0  0
 17 18  1  0  0  0
 18 19  1  0  0  0
 18 25  1  0  0  0
 19 20  1  0  0  0
 20 21  1  0  0  0
 20 24  1  0  0  0
 21 22  1  0  0  0
 21 23  1  0  0  0
 23 51  1  0  0  0
 23 52  1  0  0  0
 24 53  1  0  0  0
 25 54  1  0  0  0
 26 55  1  0  0  0
 27 28  1  0  0  0
 28 29  2  0  0  0
 28 30  1  0  0  0
 30 31  1  0  0  0
 31 32  1  0  0  0
 31 36  1  0  0  0
 32 33  1  0  0  0
 33 34  2  0  0  0
 33 35  1  0  0  0
 35 56  1  0  0  0
 36 37  2  0  0  0
 36 38  1  0  0  0
 38 57  1  0  0  0
 39 40  1  0  0  0
 40 41  2  0  0  0
 40 42  1  0  0  0
 42 43  1  0  0  0
 43 44  1  0  0  0
 43 48  1  0  0  0
 44 45  1  0  0  0
 45 46  2  0  0  0
 45 47  1  0  0  0
 47 58  1  0  0  0
 48 49  2  0  0  0
 48 50  1  0  0  0
 50 59  1  0  0  0
M  END
>  <AUTHOR>
    GENERATED BY OPEN BABEL 2.4.1

>  <CHROM.1>
63.16636493,-171.63901795,58.31148280,47.96630163,-91.10406467,121.32882446
-48.15210049,102.79059786,-72.18960962,-167.18133340,-161.03024001,177.61515038
-138.69901187,62.15130943,46.86805286,150.10058294,-80.84736985,-178.40247777
61.34372360,-59.63879712,-56.45799150,72.58637801,-162.63087380,-4.43801425
-150.87349994,165.48292384,-56.41490607,-101.56370792,-10.84405949,6.46027722
172.54992935,-6.53435249,177.91659091,171.82620196,-44.13005151,138.77828134
-104.33372911,2.44697040,-2.74668411,0.77193900,-1.83247068,6.39896845,-0.78450342
-0.51658651,-2.87885467

>  <COMPND>
    UNNAMED

>  <MASTER>
        0    0    0    0    0    0    0    0  109    0  109    0

>  <Name>
FB1.pdb

>  <RI>
0

>  <Rbt.Current_Directory>
/home/fc/tossine/F10/p3/2_clust03

>  <Rbt.Executable>
rbdock/0.1.0

>  <Rbt.Library>
librxdock.so/0.1.0

>  <Rbt.Parameter_File>
/cluster/rxdock/data/scripts/dock.prm

>  <Rbt.Receptor>
rx_4.prm

>  <SCORE>
3.72392

>  <SCORE.INTER>
-6.51683

>  <SCORE.INTER.CONST>
1

>  <SCORE.INTER.POLAR>
-3.70413

>  <SCORE.INTER.REPUL>
0.544579

>  <SCORE.INTER.ROT>
32

>  <SCORE.INTER.VDW>
-34.0457

>  <SCORE.INTER.norm>
-0.130337

>  <SCORE.INTRA>
9.63224

>  <SCORE.INTRA.DIHEDRAL>
-2.84379

>  <SCORE.INTRA.DIHEDRAL.0>
47.3121

>  <SCORE.INTRA.POLAR>
1.47808

>  <SCORE.INTRA.POLAR.0>
-1.47808

>  <SCORE.INTRA.REPUL>
0

>  <SCORE.INTRA.REPUL.0>
0

>  <SCORE.INTRA.VDW>
6.02867

>  <SCORE.INTRA.VDW.0>
-2.78316

>  <SCORE.INTRA.norm>
0.192645

>  <SCORE.RESTR>
0.608513

>  <SCORE.RESTR.CAVITY>
0.608513

>  <SCORE.RESTR.norm>
0.0121703

>  <SCORE.SYSTEM>
0

>  <SCORE.SYSTEM.CONST>
0

>  <SCORE.SYSTEM.DIHEDRAL>
0

>  <SCORE.SYSTEM.norm>
0

>  <SCORE.heavy>
50

>  <SCORE.norm>
0.0744785

$$$$
