FB1.pdb
  RxDock  10102000583D
librxdock.so/0.1.0
 59 58  0  0  0  0  0  0  0  0999 V2000
   -6.1589   -8.1729    8.3687 C   0  0  0  0  0  0
   -5.3930   -7.1582    9.2143 C   0  0  0  0  0  0
   -4.8457   -6.0028    8.3601 C   0  0  0  0  0  0
   -3.9370   -6.4717    7.1964 C   0  0  0  0  0  0
   -3.1382   -5.3283    6.4787 C   0  0  0  0  0  0
   -4.1536   -4.3136    5.9041 C   0  0  0  0  0  0
   -2.0841   -4.6056    7.4191 C   0  0  0  0  0  0
   -0.7698   -4.0167    6.7178 C   0  0  0  0  0  0
    0.2123   -2.9473    7.3662 C   0  0  0  0  0  0
    1.3279   -2.3060    6.3340 C   0  0  0  0  0  0
    1.7521   -0.9385    6.8669 C   0  0  0  0  0  0
    2.6218   -3.1964    6.0555 C   0  0  0  0  0  0
    3.6028   -2.9991    4.7837 C   0  0  0  0  0  0
    3.0713   -2.9667    3.3097 C   0  0  0  0  0  0
    1.8001   -3.8605    2.9432 C   0  0  0  0  0  0
    0.9398   -3.6858    1.6302 C   0  0  0  0  0  0
    0.2473   -2.3270    1.3450 C   0  0  0  0  0  0
    1.0038   -1.3395    0.3746 C   0  0  0  0  0  0
    2.3419   -0.7842    0.8783 C   0  0  0  0  0  0
    2.3540    0.0115    2.2143 C   0  0  0  0  0  0
    3.6389    0.7590    2.6787 C   0  0  0  0  0  0
    3.5741    1.4358    4.0407 C   0  0  0  0  0  0
    4.8212   -0.1180    2.5813 N   0  0  0  0  0  0
    1.3597    1.0517    2.0317 O   0  0  0  0  0  0
    1.2320   -2.0239   -0.8620 O   0  0  0  0  0  0
    4.2199   -1.7170    4.9884 O   0  0  0  0  0  0
    0.0820   -5.1580    6.4276 O   0  0  0  0  0  0
    0.0323   -6.2014    7.2960 C   0  0  0  0  0  0
    0.3697   -6.1817    8.4644 O   0  0  0  0  0  0
   -0.6084   -7.3701    6.5995 C   0  0  0  0  0  0
   -0.9901   -8.4990    7.5704 C   0  0  0  0  0  0
   -1.8948   -8.0140    8.7104 C   0  0  0  0  0  0
   -2.4672   -9.1784    9.4850 C   0  0  0  0  0  0
   -3.5530   -9.6908    9.2355 O   0  0  0  0  0  0
   -1.6707   -9.6036   10.4768 O   0  0  0  0  0  0
   -1.7253   -9.5499    6.7272 C   0  0  0  0  0  0
   -1.3605  -10.7129    6.6445 O   0  0  0  0  0  0
   -2.7772   -9.0752    6.0459 O   0  0  0  0  0  0
   -2.7434   -3.6033    8.2913 O   0  0  0  0  0  0
   -2.0167   -3.0611    9.3383 C   0  0  0  0  0  0
   -0.9314   -3.4775    9.7218 O   0  0  0  0  0  0
   -2.7249   -1.8611    9.9806 C   0  0  0  0  0  0
   -3.2398   -0.7695    8.9917 C   0  0  0  0  0  0
   -2.2132    0.2154    8.4031 C   0  0  0  0  0  0
   -2.2863    1.5802    9.0249 C   0  0  0  0  0  0
   -2.7008    2.5925    8.4773 O   0  0  0  0  0  0
   -1.8558    1.5888   10.2957 O   0  0  0  0  0  0
   -4.0710   -1.3102    7.8217 C   0  0  0  0  0  0
   -3.5963   -1.5474    6.7285 O   0  0  0  0  0  0
   -5.3541   -1.6107    8.1127 O   0  0  0  0  0  0
    4.8337   -0.5612    1.6637 H   0  0  0  0  0  0
    4.7119   -0.8884    3.2446 H   0  0  0  0  0  0
    0.5118    0.5685    1.9369 H   0  0  0  0  0  0
    1.5913   -2.9072   -0.6591 H   0  0  0  0  0  0
    4.9094   -1.8197    5.6656 H   0  0  0  0  0  0
   -2.0159  -10.3561   10.9947 H   0  0  0  0  0  0
   -2.7058   -8.1211    5.7939 H   0  0  0  0  0  0
   -1.2044    0.8605   10.3770 H   0  0  0  0  0  0
   -5.8865   -1.9513    7.3598 H   0  0  0  0  0  0
  1  2  1  0  0  0
  2  3  1  0  0  0
  3  4  1  0  0  0
  4  5  1  0  0  0
  5  6  1  0  0  0
  5  7  1  0  0  0
  7  8  1  0  0  0
  7 39  1  0  0  0
  8  9  1  0  0  0
  8 27  1  0  0  0
  9 10  1  0  0  0
 10 11  1  0  0  0
 10 12  1  0  0  0
 12 13  1  0  0  0
 13 14  1  0  0  0
 13 26  1  0  0  0
 14 15  1  0  0  0
 15 16  1  0  0  0
 16 17  1  0  0  0
 17 18  1  0  0  0
 18 19  1  0  0  0
 18 25  1  0  0  0
 19 20  1  0  0  0
 20 21  1  0  0  0
 20 24  1  0  0  0
 21 22  1  0  0  0
 21 23  1  0  0  0
 23 51  1  0  0  0
 23 52  1  0  0  0
 24 53  1  0  0  0
 25 54  1  0  0  0
 26 55  1  0  0  0
 27 28  1  0  0  0
 28 29  2  0  0  0
 28 30  1  0  0  0
 30 31  1  0  0  0
 31 32  1  0  0  0
 31 36  1  0  0  0
 32 33  1  0  0  0
 33 34  2  0  0  0
 33 35  1  0  0  0
 35 56  1  0  0  0
 36 37  2  0  0  0
 36 38  1  0  0  0
 38 57  1  0  0  0
 39 40  1  0  0  0
 40 41  2  0  0  0
 40 42  1  0  0  0
 42 43  1  0  0  0
 43 44  1  0  0  0
 43 48  1  0  0  0
 44 45  1  0  0  0
 45 46  2  0  0  0
 45 47  1  0  0  0
 47 58  1  0  0  0
 48 49  2  0  0  0
 48 50  1  0  0  0
 50 59  1  0  0  0
M  END
>  <AUTHOR>
    GENERATED BY OPEN BABEL 2.4.1

>  <CHROM.1>
-56.47315685,-168.57504184,-59.48082519,149.63499596,163.08650922,168.27308115
-169.27045111,-32.77647058,155.43788153,160.82052621,-52.74104010,-32.78500751
76.79299717,164.69938927,-59.05025146,97.30367762,-65.63923235,-58.32541308
-47.14076982,-171.78929740,-176.34316678,64.32310614,48.59514657,-64.38455682
-167.60389019,55.25470294,168.95824460,122.44284103,-92.90478337,-179.99737635
28.86884480,-10.83770939,-49.27232384,-77.55436947,-104.67915913,-95.92398655
-109.27048271,27.80554599,179.60591905,-0.81056616,-3.68116299,6.35459014
-2.47055364,0.84333526,0.08625173

>  <COMPND>
    UNNAMED

>  <MASTER>
        0    0    0    0    0    0    0    0  109    0  109    0

>  <Name>
FB1.pdb

>  <RI>
0

>  <Rbt.Current_Directory>
/home/fc/tossine/F10/p3/2_clust03

>  <Rbt.Executable>
rbdock/0.1.0

>  <Rbt.Library>
librxdock.so/0.1.0

>  <Rbt.Parameter_File>
/cluster/rxdock/data/scripts/dock.prm

>  <Rbt.Receptor>
rx_2.prm

>  <SCORE>
17.0764

>  <SCORE.INTER>
2.18249

>  <SCORE.INTER.CONST>
1

>  <SCORE.INTER.POLAR>
-2.5353

>  <SCORE.INTER.REPUL>
0.502984

>  <SCORE.INTER.ROT>
32

>  <SCORE.INTER.VDW>
-29.1124

>  <SCORE.INTER.norm>
0.0436498

>  <SCORE.INTRA>
13.4598

>  <SCORE.INTRA.DIHEDRAL>
22.2112

>  <SCORE.INTRA.DIHEDRAL.0>
47.3121

>  <SCORE.INTRA.POLAR>
0.478077

>  <SCORE.INTRA.POLAR.0>
-1.47808

>  <SCORE.INTRA.REPUL>
0

>  <SCORE.INTRA.REPUL.0>
0

>  <SCORE.INTRA.VDW>
0.728753

>  <SCORE.INTRA.VDW.0>
-2.78316

>  <SCORE.INTRA.norm>
0.269196

>  <SCORE.RESTR>
1.43414

>  <SCORE.RESTR.CAVITY>
1.43414

>  <SCORE.RESTR.norm>
0.0286828

>  <SCORE.SYSTEM>
0

>  <SCORE.SYSTEM.CONST>
0

>  <SCORE.SYSTEM.DIHEDRAL>
0

>  <SCORE.SYSTEM.norm>
0

>  <SCORE.heavy>
50

>  <SCORE.norm>
0.341528

$$$$
