FB1.pdb
  RxDock  10092023113D
librxdock.so/0.1.0
 59 58  0  0  0  0  0  0  0  0999 V2000
   -7.1291   -3.6804    8.8798 C   0  0  0  0  0  0
   -6.2306   -2.4550    9.0297 C   0  0  0  0  0  0
   -5.1863   -2.3736    7.9041 C   0  0  0  0  0  0
   -4.1398   -3.5149    7.9488 C   0  0  0  0  0  0
   -4.5651   -4.8317    7.2101 C   0  0  0  0  0  0
   -4.5126   -4.5725    5.6868 C   0  0  0  0  0  0
   -3.6828   -6.0909    7.6023 C   0  0  0  0  0  0
   -2.0941   -5.9333    7.4702 C   0  0  0  0  0  0
   -1.1956   -6.6238    6.3548 C   0  0  0  0  0  0
   -0.4603   -8.0259    6.8180 C   0  0  0  0  0  0
    0.6248   -8.3648    5.7972 C   0  0  0  0  0  0
    0.1632   -8.0411    8.2863 C   0  0  0  0  0  0
    1.5542   -7.3191    8.6892 C   0  0  0  0  0  0
    2.9503   -7.9851    8.4371 C   0  0  0  0  0  0
    3.9767   -8.0773    9.6566 C   0  0  0  0  0  0
    5.2708   -8.9828    9.6623 C   0  0  0  0  0  0
    6.5284   -8.5142   10.4410 C   0  0  0  0  0  0
    7.4255   -9.6447   11.0784 C   0  0  0  0  0  0
    7.7702  -10.8314   10.1699 C   0  0  0  0  0  0
    6.6038  -11.6924    9.6072 C   0  0  0  0  0  0
    6.5512  -12.0624    8.0954 C   0  0  0  0  0  0
    5.1921  -12.4715    7.5449 C   0  0  0  0  0  0
    7.1546  -10.9971    7.2723 N   0  0  0  0  0  0
    6.7159  -12.9615   10.3007 O   0  0  0  0  0  0
    8.6460   -9.0423   11.5223 O   0  0  0  0  0  0
    1.5748   -6.1030    7.9230 O   0  0  0  0  0  0
   -1.8388   -4.5116    7.3087 O   0  0  0  0  0  0
   -1.1286   -3.8970    8.2901 C   0  0  0  0  0  0
   -0.4658   -4.4456    9.1498 O   0  0  0  0  0  0
   -1.2129   -2.4105    8.0789 C   0  0  0  0  0  0
    0.0335   -1.8415    7.3823 C   0  0  0  0  0  0
    0.6020   -2.7940    6.3227 C   0  0  0  0  0  0
    1.8782   -3.4450    6.8034 C   0  0  0  0  0  0
    2.2461   -3.4344    7.9731 O   0  0  0  0  0  0
    2.5752   -4.0413    5.8249 O   0  0  0  0  0  0
   -0.4136   -0.5293    6.7234 C   0  0  0  0  0  0
    0.0319   -0.1328    5.6572 O   0  0  0  0  0  0
   -1.3008    0.1749    7.4395 O   0  0  0  0  0  0
   -4.0781   -6.6304    8.9261 O   0  0  0  0  0  0
   -4.5055   -7.9456    9.0009 C   0  0  0  0  0  0
   -5.4528   -8.3329    9.6724 O   0  0  0  0  0  0
   -3.6536   -8.8862    8.1383 C   0  0  0  0  0  0
   -4.4465   -9.8899    7.2448 C   0  0  0  0  0  0
   -5.6781  -10.5841    7.8544 C   0  0  0  0  0  0
   -5.3231  -11.7764    8.6951 C   0  0  0  0  0  0
   -5.9725  -12.8099    8.7780 O   0  0  0  0  0  0
   -4.1712  -11.6092    9.3624 O   0  0  0  0  0  0
   -4.8702   -9.3318    5.8805 C   0  0  0  0  0  0
   -4.9342   -8.1413    5.6451 O   0  0  0  0  0  0
   -5.0676  -10.2526    4.9138 O   0  0  0  0  0  0
    6.5626  -10.1685    7.3121 H   0  0  0  0  0  0
    7.1331  -11.2894    6.2928 H   0  0  0  0  0  0
    7.5821  -13.3223   10.0162 H   0  0  0  0  0  0
    9.2724   -9.7546   11.7478 H   0  0  0  0  0  0
    2.3447   -5.5820    8.2064 H   0  0  0  0  0  0
    3.3483   -4.5595    6.1204 H   0  0  0  0  0  0
   -1.6462    0.9827    6.9845 H   0  0  0  0  0  0
   -4.0491  -12.4080    9.9177 H   0  0  0  0  0  0
   -5.4127   -9.9008    4.0633 H   0  0  0  0  0  0
  1  2  1  0  0  0
  2  3  1  0  0  0
  3  4  1  0  0  0
  4  5  1  0  0  0
  5  6  1  0  0  0
  5  7  1  0  0  0
  7  8  1  0  0  0
  7 39  1  0  0  0
  8  9  1  0  0  0
  8 27  1  0  0  0
  9 10  1  0  0  0
 10 11  1  0  0  0
 10 12  1  0  0  0
 12 13  1  0  0  0
 13 14  1  0  0  0
 13 26  1  0  0  0
 14 15  1  0  0  0
 15 16  1  0  0  0
 16 17  1  0  0  0
 17 18  1  0  0  0
 18 19  1  0  0  0
 18 25  1  0  0  0
 19 20  1  0  0  0
 20 21  1  0  0  0
 20 24  1  0  0  0
 21 22  1  0  0  0
 21 23  1  0  0  0
 23 51  1  0  0  0
 23 52  1  0  0  0
 24 53  1  0  0  0
 25 54  1  0  0  0
 26 55  1  0  0  0
 27 28  1  0  0  0
 28 29  2  0  0  0
 28 30  1  0  0  0
 30 31  1  0  0  0
 31 32  1  0  0  0
 31 36  1  0  0  0
 32 33  1  0  0  0
 33 34  2  0  0  0
 33 35  1  0  0  0
 35 56  1  0  0  0
 36 37  2  0  0  0
 36 38  1  0  0  0
 38 57  1  0  0  0
 39 40  1  0  0  0
 40 41  2  0  0  0
 40 42  1  0  0  0
 42 43  1  0  0  0
 43 44  1  0  0  0
 43 48  1  0  0  0
 44 45  1  0  0  0
 45 46  2  0  0  0
 45 47  1  0  0  0
 47 58  1  0  0  0
 48 49  2  0  0  0
 48 50  1  0  0  0
 50 59  1  0  0  0
M  END
>  <AUTHOR>
    GENERATED BY OPEN BABEL 2.4.1

>  <CHROM.1>
-66.58643220,86.41428466,72.32149416,-52.87003205,-107.95373983,121.09621195
-97.08285678,116.11447502,-165.57059005,-76.51359242,-82.05795153,-128.51391963
173.59578133,165.95830466,147.94510166,147.69175387,47.00085359,-60.72925372
-168.63220159,132.29438119,-159.63465123,-63.50981322,-68.17404967,15.38206955
-99.36345447,36.54850031,-106.37311364,-145.18446496,14.40361906,-173.09607850
-175.22868919,-138.32947618,-133.32115964,-41.64845457,-81.96891708,-19.80560603
-143.94877846,176.82251358,175.00176052,-0.31698799,-6.99061169,8.00796093
-2.69584934,0.11426978,3.01729218

>  <COMPND>
    UNNAMED

>  <MASTER>
        0    0    0    0    0    0    0    0  109    0  109    0

>  <Name>
FB1.pdb

>  <RI>
0

>  <Rbt.Current_Directory>
/home/fc/tossine/F10/p3/2_clust03

>  <Rbt.Executable>
rbdock/0.1.0

>  <Rbt.Library>
librxdock.so/0.1.0

>  <Rbt.Parameter_File>
/cluster/rxdock/data/scripts/dock.prm

>  <Rbt.Receptor>
rx_0.prm

>  <SCORE>
20.0818

>  <SCORE.INTER>
-4.24425

>  <SCORE.INTER.CONST>
1

>  <SCORE.INTER.POLAR>
-3.82063

>  <SCORE.INTER.REPUL>
0.800945

>  <SCORE.INTER.ROT>
32

>  <SCORE.INTER.VDW>
-32.6588

>  <SCORE.INTER.norm>
-0.084885

>  <SCORE.INTRA>
24.0328

>  <SCORE.INTRA.DIHEDRAL>
35.8693

>  <SCORE.INTRA.DIHEDRAL.0>
47.3121

>  <SCORE.INTRA.POLAR>
1.47808

>  <SCORE.INTRA.POLAR.0>
-1.47808

>  <SCORE.INTRA.REPUL>
0

>  <SCORE.INTRA.REPUL.0>
0

>  <SCORE.INTRA.VDW>
1.07267

>  <SCORE.INTRA.VDW.0>
-2.78316

>  <SCORE.INTRA.norm>
0.480655

>  <SCORE.RESTR>
0.293331

>  <SCORE.RESTR.CAVITY>
0.293331

>  <SCORE.RESTR.norm>
0.00586662

>  <SCORE.SYSTEM>
0

>  <SCORE.SYSTEM.CONST>
0

>  <SCORE.SYSTEM.DIHEDRAL>
0

>  <SCORE.SYSTEM.norm>
0

>  <SCORE.heavy>
50

>  <SCORE.norm>
0.401637

$$$$
