FB1.pdb
  RxDock  10102002213D
librxdock.so/0.1.0
 59 58  0  0  0  0  0  0  0  0999 V2000
    2.8038   -3.3231    1.3363 C   0  0  0  0  0  0
    1.3190   -2.9947    1.4738 C   0  0  0  0  0  0
    1.0038   -2.3401    2.8289 C   0  0  0  0  0  0
   -0.4447   -1.8008    2.9322 C   0  0  0  0  0  0
   -0.7473   -0.9599    4.2213 C   0  0  0  0  0  0
   -2.0824   -0.2096    4.0093 C   0  0  0  0  0  0
   -0.7890   -1.8286    5.5486 C   0  0  0  0  0  0
   -1.5284   -3.2472    5.4645 C   0  0  0  0  0  0
   -0.8325   -4.6193    5.0630 C   0  0  0  0  0  0
   -1.5775   -5.9752    5.6357 C   0  0  0  0  0  0
   -0.9853   -7.1910    4.9248 C   0  0  0  0  0  0
   -1.5175   -6.1969    7.2143 C   0  0  0  0  0  0
   -2.4338   -7.2623    8.0167 C   0  0  0  0  0  0
   -1.8363   -8.2640    9.0634 C   0  0  0  0  0  0
   -1.7581   -9.8102    8.6730 C   0  0  0  0  0  0
   -2.8796  -10.5824    7.8727 C   0  0  0  0  0  0
   -2.9959  -10.3868    6.3379 C   0  0  0  0  0  0
   -4.2021   -9.5068    5.8282 C   0  0  0  0  0  0
   -5.5686  -10.2002    5.7618 C   0  0  0  0  0  0
   -6.1283  -10.8522    7.0579 C   0  0  0  0  0  0
   -7.6188  -11.2961    7.1405 C   0  0  0  0  0  0
   -8.6408  -10.1954    7.3879 C   0  0  0  0  0  0
   -7.9913  -12.1073    5.9659 N   0  0  0  0  0  0
   -5.3633  -12.0745    7.2145 O   0  0  0  0  0  0
   -4.3117   -8.3672    6.6879 O   0  0  0  0  0  0
   -3.3703   -6.4609    8.7566 O   0  0  0  0  0  0
   -2.0803   -3.4967    6.7857 O   0  0  0  0  0  0
   -3.4337   -3.4822    6.9017 C   0  0  0  0  0  0
   -4.1452   -4.4383    7.1445 O   0  0  0  0  0  0
   -3.9066   -2.0599    6.7801 C   0  0  0  0  0  0
   -4.0331   -1.3613    8.1434 C   0  0  0  0  0  0
   -4.9336   -2.1311    9.1180 C   0  0  0  0  0  0
   -6.3172   -2.3267    8.5431 C   0  0  0  0  0  0
   -6.8748   -3.4166    8.4731 O   0  0  0  0  0  0
   -6.8837   -1.1889    8.1148 O   0  0  0  0  0  0
   -2.6075   -1.2710    8.7050 C   0  0  0  0  0  0
   -1.9510   -0.2408    8.6958 O   0  0  0  0  0  0
   -2.1195   -2.4316    9.1643 O   0  0  0  0  0  0
    0.5588   -1.9412    6.1574 O   0  0  0  0  0  0
    1.1469   -0.7981    6.6726 C   0  0  0  0  0  0
    0.5312    0.1738    7.0909 O   0  0  0  0  0  0
    2.6793   -0.8761    6.6662 C   0  0  0  0  0  0
    3.2946   -2.1631    7.2984 C   0  0  0  0  0  0
    2.5776   -3.5033    7.0532 C   0  0  0  0  0  0
    1.6569   -3.8898    8.1746 C   0  0  0  0  0  0
    1.8814   -4.7457    9.0193 O   0  0  0  0  0  0
    0.5248   -3.1697    8.1804 O   0  0  0  0  0  0
    4.7801   -2.3801    6.9845 C   0  0  0  0  0  0
    5.4349   -3.2771    7.4777 O   0  0  0  0  0  0
    5.2960   -1.5710    6.0356 O   0  0  0  0  0  0
   -7.7057  -13.0729    6.1226 H   0  0  0  0  0  0
   -7.4377  -11.7955    5.1647 H   0  0  0  0  0  0
   -5.4519  -12.5331    6.3524 H   0  0  0  0  0  0
   -5.0304   -7.8006    6.3519 H   0  0  0  0  0  0
   -4.0475   -7.0527    9.1247 H   0  0  0  0  0  0
   -6.3488   -0.3825    8.2452 H   0  0  0  0  0  0
   -2.7874   -3.1580    9.2347 H   0  0  0  0  0  0
   -0.0401   -3.5394    8.8914 H   0  0  0  0  0  0
    6.2758   -1.5863    5.9583 H   0  0  0  0  0  0
  1  2  1  0  0  0
  2  3  1  0  0  0
  3  4  1  0  0  0
  4  5  1  0  0  0
  5  6  1  0  0  0
  5  7  1  0  0  0
  7  8  1  0  0  0
  7 39  1  0  0  0
  8  9  1  0  0  0
  8 27  1  0  0  0
  9 10  1  0  0  0
 10 11  1  0  0  0
 10 12  1  0  0  0
 12 13  1  0  0  0
 13 14  1  0  0  0
 13 26  1  0  0  0
 14 15  1  0  0  0
 15 16  1  0  0  0
 16 17  1  0  0  0
 17 18  1  0  0  0
 18 19  1  0  0  0
 18 25  1  0  0  0
 19 20  1  0  0  0
 20 21  1  0  0  0
 20 24  1  0  0  0
 21 22  1  0  0  0
 21 23  1  0  0  0
 23 51  1  0  0  0
 23 52  1  0  0  0
 24 53  1  0  0  0
 25 54  1  0  0  0
 26 55  1  0  0  0
 27 28  1  0  0  0
 28 29  2  0  0  0
 28 30  1  0  0  0
 30 31  1  0  0  0
 31 32  1  0  0  0
 31 36  1  0  0  0
 32 33  1  0  0  0
 33 34  2  0  0  0
 33 35  1  0  0  0
 35 56  1  0  0  0
 36 37  2  0  0  0
 36 38  1  0  0  0
 38 57  1  0  0  0
 39 40  1  0  0  0
 40 41  2  0  0  0
 40 42  1  0  0  0
 42 43  1  0  0  0
 43 44  1  0  0  0
 43 48  1  0  0  0
 44 45  1  0  0  0
 45 46  2  0  0  0
 45 47  1  0  0  0
 47 58  1  0  0  0
 48 49  2  0  0  0
 48 50  1  0  0  0
 50 59  1  0  0  0
M  END
>  <AUTHOR>
    GENERATED BY OPEN BABEL 2.4.1

>  <CHROM.1>
171.50134529,-172.24710922,165.88159390,-41.77815084,89.13635398,66.76201779
155.51596597,111.89182620,167.74449925,166.22935157,131.53231102,-108.37922959
169.59994433,-39.25938013,77.05389993,-105.91841587,-79.54595566,56.30187110
177.48102669,166.80678098,-78.61797397,-52.65328999,83.05440956,112.07530807
-92.68488455,-55.02292076,-57.76938928,103.08200910,127.88519232,-1.40122409
-10.45399400,26.41984093,-50.68851958,38.29964003,-96.32635005,174.42211598
-104.38755322,175.32852005,168.54982012,-1.80812454,-4.70104753,6.73712041
-0.79741543,-0.25321695,-3.04411322

>  <COMPND>
    UNNAMED

>  <MASTER>
        0    0    0    0    0    0    0    0  109    0  109    0

>  <Name>
FB1.pdb

>  <RI>
0

>  <Rbt.Current_Directory>
/home/fc/tossine/F10/p3/2_clust03

>  <Rbt.Executable>
rbdock/0.1.0

>  <Rbt.Library>
librxdock.so/0.1.0

>  <Rbt.Parameter_File>
/cluster/rxdock/data/scripts/dock.prm

>  <Rbt.Receptor>
rx_4.prm

>  <SCORE>
26.5394

>  <SCORE.INTER>
5.386

>  <SCORE.INTER.CONST>
1

>  <SCORE.INTER.POLAR>
-1.38014

>  <SCORE.INTER.REPUL>
0.0564341

>  <SCORE.INTER.ROT>
32

>  <SCORE.INTER.VDW>
-27.6037

>  <SCORE.INTER.norm>
0.10772

>  <SCORE.INTRA>
20.3745

>  <SCORE.INTRA.DIHEDRAL>
35.8201

>  <SCORE.INTRA.DIHEDRAL.0>
47.3121

>  <SCORE.INTRA.POLAR>
1.37292

>  <SCORE.INTRA.POLAR.0>
-1.47808

>  <SCORE.INTRA.REPUL>
0.0245749

>  <SCORE.INTRA.REPUL.0>
0

>  <SCORE.INTRA.VDW>
-2.32633

>  <SCORE.INTRA.VDW.0>
-2.78316

>  <SCORE.INTRA.norm>
0.40749

>  <SCORE.RESTR>
0.778878

>  <SCORE.RESTR.CAVITY>
0.778878

>  <SCORE.RESTR.norm>
0.0155776

>  <SCORE.SYSTEM>
0

>  <SCORE.SYSTEM.CONST>
0

>  <SCORE.SYSTEM.DIHEDRAL>
0

>  <SCORE.SYSTEM.norm>
0

>  <SCORE.heavy>
50

>  <SCORE.norm>
0.530787

$$$$
