FB1.pdb
  RxDock  10102001073D
librxdock.so/0.1.0
 59 58  0  0  0  0  0  0  0  0999 V2000
   -0.9147   -9.6107   12.4488 C   0  0  0  0  0  0
   -1.8974   -9.1032   11.3961 C   0  0  0  0  0  0
   -1.1910   -8.7695   10.0717 C   0  0  0  0  0  0
   -0.8223   -7.2717    9.9289 C   0  0  0  0  0  0
   -0.2739   -6.8569    8.5190 C   0  0  0  0  0  0
    1.0839   -7.5632    8.2993 C   0  0  0  0  0  0
   -1.2770   -7.1736    7.3311 C   0  0  0  0  0  0
   -2.7962   -6.7011    7.5186 C   0  0  0  0  0  0
   -3.6100   -5.8058    6.4869 C   0  0  0  0  0  0
   -4.0119   -4.3014    7.0314 C   0  0  0  0  0  0
   -5.2469   -4.4221    7.9228 C   0  0  0  0  0  0
   -2.8678   -3.5056    7.8076 C   0  0  0  0  0  0
   -2.2131   -2.1202    7.2875 C   0  0  0  0  0  0
   -0.7694   -1.6676    7.6963 C   0  0  0  0  0  0
   -0.0464   -0.5523    6.8117 C   0  0  0  0  0  0
    1.1167    0.3800    7.3339 C   0  0  0  0  0  0
    2.1652    0.9292    6.3306 C   0  0  0  0  0  0
    3.3751   -0.0219    5.9834 C   0  0  0  0  0  0
    3.3206   -0.7200    4.6187 C   0  0  0  0  0  0
    3.7656    0.0812    3.3624 C   0  0  0  0  0  0
    4.7245   -0.5581    2.3148 C   0  0  0  0  0  0
    5.6429   -1.6614    2.8215 C   0  0  0  0  0  0
    3.9792   -0.9993    1.1206 N   0  0  0  0  0  0
    2.5365    0.3404    2.6373 O   0  0  0  0  0  0
    4.5782    0.7512    6.0510 O   0  0  0  0  0  0
   -2.1764   -2.2434    5.8557 O   0  0  0  0  0  0
   -3.5866   -7.9143    7.6438 O   0  0  0  0  0  0
   -4.2238   -8.1162    8.8263 C   0  0  0  0  0  0
   -4.0284   -7.5085    9.8617 O   0  0  0  0  0  0
   -5.2919   -9.1545    8.6203 C   0  0  0  0  0  0
   -6.7033   -8.5478    8.5706 C   0  0  0  0  0  0
   -7.7818   -9.5915    8.2528 C   0  0  0  0  0  0
   -9.1132   -8.9326    7.9764 C   0  0  0  0  0  0
  -10.0850   -9.0296    8.7180 O   0  0  0  0  0  0
   -9.1331   -8.2252    6.8370 O   0  0  0  0  0  0
   -6.9513   -7.9423    9.9591 C   0  0  0  0  0  0
   -6.5709   -6.8259   10.2774 O   0  0  0  0  0  0
   -7.5791   -8.7602   10.8150 O   0  0  0  0  0  0
   -0.7181   -6.7385    6.0279 O   0  0  0  0  0  0
    0.3112   -7.4797    5.4718 C   0  0  0  0  0  0
    0.3942   -8.7001    5.5177 O   0  0  0  0  0  0
    1.3574   -6.5973    4.7781 C   0  0  0  0  0  0
    0.9695   -5.0960    4.6047 C   0  0  0  0  0  0
    1.7845   -4.2485    3.6107 C   0  0  0  0  0  0
    1.3355   -2.8168    3.5547 C   0  0  0  0  0  0
    0.9291   -2.1588    4.5026 O   0  0  0  0  0  0
    1.4411   -2.2936    2.3237 O   0  0  0  0  0  0
   -0.5134   -4.8517    4.2986 C   0  0  0  0  0  0
   -1.2716   -4.3218    5.0865 O   0  0  0  0  0  0
   -0.9063   -5.1678    3.0468 O   0  0  0  0  0  0
    3.2798   -1.6865    1.3984 H   0  0  0  0  0  0
    4.6186   -1.5079    0.5059 H   0  0  0  0  0  0
    2.1405   -0.5458    2.4983 H   0  0  0  0  0  0
    5.3239    0.1762    5.7984 H   0  0  0  0  0  0
   -3.0841   -2.3956    5.5436 H   0  0  0  0  0  0
  -10.0011   -7.8488    6.5954 H   0  0  0  0  0  0
   -8.5658   -8.7501   10.7429 H   0  0  0  0  0  0
    1.6204   -3.0410    1.7148 H   0  0  0  0  0  0
   -0.2138   -5.5738    2.4795 H   0  0  0  0  0  0
  1  2  1  0  0  0
  2  3  1  0  0  0
  3  4  1  0  0  0
  4  5  1  0  0  0
  5  6  1  0  0  0
  5  7  1  0  0  0
  7  8  1  0  0  0
  7 39  1  0  0  0
  8  9  1  0  0  0
  8 27  1  0  0  0
  9 10  1  0  0  0
 10 11  1  0  0  0
 10 12  1  0  0  0
 12 13  1  0  0  0
 13 14  1  0  0  0
 13 26  1  0  0  0
 14 15  1  0  0  0
 15 16  1  0  0  0
 16 17  1  0  0  0
 17 18  1  0  0  0
 18 19  1  0  0  0
 18 25  1  0  0  0
 19 20  1  0  0  0
 20 21  1  0  0  0
 20 24  1  0  0  0
 21 22  1  0  0  0
 21 23  1  0  0  0
 23 51  1  0  0  0
 23 52  1  0  0  0
 24 53  1  0  0  0
 25 54  1  0  0  0
 26 55  1  0  0  0
 27 28  1  0  0  0
 28 29  2  0  0  0
 28 30  1  0  0  0
 30 31  1  0  0  0
 31 32  1  0  0  0
 31 36  1  0  0  0
 32 33  1  0  0  0
 33 34  2  0  0  0
 33 35  1  0  0  0
 35 56  1  0  0  0
 36 37  2  0  0  0
 36 38  1  0  0  0
 38 57  1  0  0  0
 39 40  1  0  0  0
 40 41  2  0  0  0
 40 42  1  0  0  0
 42 43  1  0  0  0
 43 44  1  0  0  0
 43 48  1  0  0  0
 44 45  1  0  0  0
 45 46  2  0  0  0
 45 47  1  0  0  0
 47 58  1  0  0  0
 48 49  2  0  0  0
 48 50  1  0  0  0
 50 59  1  0  0  0
M  END
>  <AUTHOR>
    GENERATED BY OPEN BABEL 2.4.1

>  <CHROM.1>
-95.66968041,-172.28639784,-65.86356981,48.69161038,126.75486704,73.40392360
-113.44743039,116.07477289,-80.35039925,116.26793597,-154.53449602,161.58044326
57.90644226,156.64688415,151.84163831,-83.78944956,103.86023932,81.01187794
-177.53073595,133.55001696,-25.56011789,-55.49239387,-59.66350869,-13.10518005
-104.70822261,175.57457144,-170.19933011,84.03609967,-111.60355464,175.20565298
-85.03161921,37.92833552,-10.06668341,-164.25869383,-178.76227721,111.25683279
35.61373914,11.27930737,3.64536204,-1.40090849,-4.98279250,6.65051216,-2.36211950
0.08360702,-0.52731584

>  <COMPND>
    UNNAMED

>  <MASTER>
        0    0    0    0    0    0    0    0  109    0  109    0

>  <Name>
FB1.pdb

>  <RI>
0

>  <Rbt.Current_Directory>
/home/fc/tossine/F10/p3/2_clust03

>  <Rbt.Executable>
rbdock/0.1.0

>  <Rbt.Library>
librxdock.so/0.1.0

>  <Rbt.Parameter_File>
/cluster/rxdock/data/scripts/dock.prm

>  <Rbt.Receptor>
rx_2.prm

>  <SCORE>
58.7108

>  <SCORE.INTER>
28.7845

>  <SCORE.INTER.CONST>
1

>  <SCORE.INTER.POLAR>
-0.720761

>  <SCORE.INTER.REPUL>
0.576758

>  <SCORE.INTER.ROT>
32

>  <SCORE.INTER.VDW>
-9.04869

>  <SCORE.INTER.norm>
0.57569

>  <SCORE.INTRA>
28.581

>  <SCORE.INTRA.DIHEDRAL>
58.0814

>  <SCORE.INTRA.DIHEDRAL.0>
47.3121

>  <SCORE.INTRA.POLAR>
-0.359237

>  <SCORE.INTRA.POLAR.0>
-1.47808

>  <SCORE.INTRA.REPUL>
0.229997

>  <SCORE.INTRA.REPUL.0>
0

>  <SCORE.INTRA.VDW>
-0.388325

>  <SCORE.INTRA.VDW.0>
-2.78316

>  <SCORE.INTRA.norm>
0.571619

>  <SCORE.RESTR>
1.34535

>  <SCORE.RESTR.CAVITY>
1.34535

>  <SCORE.RESTR.norm>
0.026907

>  <SCORE.SYSTEM>
0

>  <SCORE.SYSTEM.CONST>
0

>  <SCORE.SYSTEM.DIHEDRAL>
0

>  <SCORE.SYSTEM.norm>
0

>  <SCORE.heavy>
50

>  <SCORE.norm>
1.17422

$$$$
