FB1.pdb
  RxDock  10102002193D
librxdock.so/0.1.0
 59 58  0  0  0  0  0  0  0  0999 V2000
    0.7240   -0.4716   -0.1742 C   0  0  0  0  0  0
    0.6568   -1.4579    0.9895 C   0  0  0  0  0  0
    0.6598   -0.7371    2.3477 C   0  0  0  0  0  0
    0.0254   -1.5694    3.4899 C   0  0  0  0  0  0
   -0.2518   -0.7737    4.8129 C   0  0  0  0  0  0
   -1.4203    0.2054    4.5549 C   0  0  0  0  0  0
   -0.5574   -1.7058    6.0602 C   0  0  0  0  0  0
    0.5785   -2.7556    6.4772 C   0  0  0  0  0  0
    0.4368   -4.3373    6.3962 C   0  0  0  0  0  0
    1.8576   -5.1593    6.2319 C   0  0  0  0  0  0
    2.3976   -4.9179    4.8233 C   0  0  0  0  0  0
    2.9910   -4.8255    7.3037 C   0  0  0  0  0  0
    2.7047   -4.5558    8.8734 C   0  0  0  0  0  0
    1.7268   -5.4462    9.7142 C   0  0  0  0  0  0
    1.7556   -7.0262    9.4860 C   0  0  0  0  0  0
    0.5202   -7.9811    9.7237 C   0  0  0  0  0  0
   -0.7668   -7.7912    8.8780 C   0  0  0  0  0  0
   -1.9844   -8.7325    9.2252 C   0  0  0  0  0  0
   -1.9412  -10.1461    8.6315 C   0  0  0  0  0  0
   -3.2883  -10.8783    8.3718 C   0  0  0  0  0  0
   -4.2887  -10.3405    7.3063 C   0  0  0  0  0  0
   -5.2606   -9.2651    7.7714 C   0  0  0  0  0  0
   -3.5781   -9.9164    6.0850 N   0  0  0  0  0  0
   -2.9058  -12.1944    7.8972 O   0  0  0  0  0  0
   -2.0671   -8.8402   10.6504 O   0  0  0  0  0  0
    3.9846   -4.6978    9.5123 O   0  0  0  0  0  0
    1.7338   -2.4550    5.6481 O   0  0  0  0  0  0
    2.7269   -1.7227    6.2161 C   0  0  0  0  0  0
    3.6908   -2.1603    6.8153 O   0  0  0  0  0  0
    2.4929   -0.2726    5.8942 C   0  0  0  0  0  0
    3.6702    0.3613    5.1360 C   0  0  0  0  0  0
    3.7459   -0.0997    3.6748 C   0  0  0  0  0  0
    4.2488   -1.5213    3.5771 C   0  0  0  0  0  0
    4.8779   -2.0810    4.4686 O   0  0  0  0  0  0
    3.9393   -2.1190    2.4170 O   0  0  0  0  0  0
    3.4436    1.8782    5.1972 C   0  0  0  0  0  0
    3.5127    2.6029    4.2161 O   0  0  0  0  0  0
    3.2111    2.3534    6.4284 O   0  0  0  0  0  0
   -1.0300   -0.9108    7.2197 O   0  0  0  0  0  0
   -1.9226   -1.4975    8.1012 C   0  0  0  0  0  0
   -2.6225   -0.8830    8.8955 O   0  0  0  0  0  0
   -1.9455   -3.0267    7.9775 C   0  0  0  0  0  0
   -3.2376   -3.6363    7.3504 C   0  0  0  0  0  0
   -3.5145   -5.1338    7.5769 C   0  0  0  0  0  0
   -4.2255   -5.7799    6.4230 C   0  0  0  0  0  0
   -3.9817   -6.8876    5.9646 O   0  0  0  0  0  0
   -5.2069   -5.0099    5.9288 O   0  0  0  0  0  0
   -4.5286   -2.8807    7.6894 C   0  0  0  0  0  0
   -4.7634   -1.7597    7.2834 O   0  0  0  0  0  0
   -5.4457   -3.5841    8.3860 O   0  0  0  0  0  0
   -3.9433   -9.0146    5.7820 H   0  0  0  0  0  0
   -3.8133  -10.5634    5.3289 H   0  0  0  0  0  0
   -3.7520  -12.6830    7.8163 H   0  0  0  0  0  0
   -2.6500   -9.5915   10.8654 H   0  0  0  0  0  0
    3.9028   -4.3739   10.4249 H   0  0  0  0  0  0
    4.2886   -3.0244    2.3087 H   0  0  0  0  0  0
    3.1056    3.3360    6.4755 H   0  0  0  0  0  0
   -5.7545   -5.5861    5.3548 H   0  0  0  0  0  0
   -6.2232   -3.0686    8.6959 H   0  0  0  0  0  0
  1  2  1  0  0  0
  2  3  1  0  0  0
  3  4  1  0  0  0
  4  5  1  0  0  0
  5  6  1  0  0  0
  5  7  1  0  0  0
  7  8  1  0  0  0
  7 39  1  0  0  0
  8  9  1  0  0  0
  8 27  1  0  0  0
  9 10  1  0  0  0
 10 11  1  0  0  0
 10 12  1  0  0  0
 12 13  1  0  0  0
 13 14  1  0  0  0
 13 26  1  0  0  0
 14 15  1  0  0  0
 15 16  1  0  0  0
 16 17  1  0  0  0
 17 18  1  0  0  0
 18 19  1  0  0  0
 18 25  1  0  0  0
 19 20  1  0  0  0
 20 21  1  0  0  0
 20 24  1  0  0  0
 21 22  1  0  0  0
 21 23  1  0  0  0
 23 51  1  0  0  0
 23 52  1  0  0  0
 24 53  1  0  0  0
 25 54  1  0  0  0
 26 55  1  0  0  0
 27 28  1  0  0  0
 28 29  2  0  0  0
 28 30  1  0  0  0
 30 31  1  0  0  0
 31 32  1  0  0  0
 31 36  1  0  0  0
 32 33  1  0  0  0
 33 34  2  0  0  0
 33 35  1  0  0  0
 35 56  1  0  0  0
 36 37  2  0  0  0
 36 38  1  0  0  0
 38 57  1  0  0  0
 39 40  1  0  0  0
 40 41  2  0  0  0
 40 42  1  0  0  0
 42 43  1  0  0  0
 43 44  1  0  0  0
 43 48  1  0  0  0
 44 45  1  0  0  0
 45 46  2  0  0  0
 45 47  1  0  0  0
 47 58  1  0  0  0
 48 49  2  0  0  0
 48 50  1  0  0  0
 50 59  1  0  0  0
M  END
>  <AUTHOR>
    GENERATED BY OPEN BABEL 2.4.1

>  <CHROM.1>
156.18120959,-168.33664163,70.58242087,59.16684536,-114.36502284,148.78715948
154.28692545,99.89782064,-71.22853057,38.78480894,44.03695739,40.97621480
168.91018783,-152.48121233,62.20510199,-176.85878745,-81.15709157,-152.90100354
-165.13283529,65.66594487,-85.78519462,174.73624432,-134.83925484,90.47085073
-121.25524102,73.58501810,-73.85001065,-131.52671886,-20.14423773,177.19666859
177.36032394,-161.97228781,-109.51428508,-161.97762767,-147.53152741,67.51690373
138.71557670,-165.65023061,172.91803331,-0.19022442,-3.87103677,6.48269110
1.01284049,-0.03836115,-0.45155411

>  <COMPND>
    UNNAMED

>  <MASTER>
        0    0    0    0    0    0    0    0  109    0  109    0

>  <Name>
FB1.pdb

>  <RI>
0

>  <Rbt.Current_Directory>
/home/fc/tossine/F10/p3/2_clust03

>  <Rbt.Executable>
rbdock/0.1.0

>  <Rbt.Library>
librxdock.so/0.1.0

>  <Rbt.Parameter_File>
/cluster/rxdock/data/scripts/dock.prm

>  <Rbt.Receptor>
rx_4.prm

>  <SCORE>
21.245

>  <SCORE.INTER>
-0.693329

>  <SCORE.INTER.CONST>
1

>  <SCORE.INTER.POLAR>
-1.52533

>  <SCORE.INTER.REPUL>
0.0268735

>  <SCORE.INTER.ROT>
32

>  <SCORE.INTER.VDW>
-33.0416

>  <SCORE.INTER.norm>
-0.0138666

>  <SCORE.INTRA>
21.6932

>  <SCORE.INTRA.DIHEDRAL>
35.6214

>  <SCORE.INTRA.DIHEDRAL.0>
47.3121

>  <SCORE.INTRA.POLAR>
0.485868

>  <SCORE.INTRA.POLAR.0>
-1.47808

>  <SCORE.INTRA.REPUL>
0

>  <SCORE.INTRA.REPUL.0>
0

>  <SCORE.INTRA.VDW>
2.23053

>  <SCORE.INTRA.VDW.0>
-2.78316

>  <SCORE.INTRA.norm>
0.433864

>  <SCORE.RESTR>
0.245157

>  <SCORE.RESTR.CAVITY>
0.245157

>  <SCORE.RESTR.norm>
0.00490313

>  <SCORE.SYSTEM>
0

>  <SCORE.SYSTEM.CONST>
0

>  <SCORE.SYSTEM.DIHEDRAL>
0

>  <SCORE.SYSTEM.norm>
0

>  <SCORE.heavy>
50

>  <SCORE.norm>
0.4249

$$$$
