FB1.pdb
  RxDock  10102002193D
librxdock.so/0.1.0
 59 58  0  0  0  0  0  0  0  0999 V2000
   -0.1365   -2.5983    3.3464 C   0  0  0  0  0  0
    0.3225   -3.9907    2.9199 C   0  0  0  0  0  0
   -0.7302   -5.0624    3.2478 C   0  0  0  0  0  0
   -1.1846   -5.0490    4.7287 C   0  0  0  0  0  0
   -0.9630   -6.3963    5.5009 C   0  0  0  0  0  0
    0.4740   -6.8897    5.2141 C   0  0  0  0  0  0
   -1.2225   -6.2814    7.0621 C   0  0  0  0  0  0
   -1.2665   -4.8057    7.6838 C   0  0  0  0  0  0
   -2.5277   -3.8378    7.6547 C   0  0  0  0  0  0
   -2.1895   -2.2409    7.8938 C   0  0  0  0  0  0
   -2.1402   -1.9754    9.3975 C   0  0  0  0  0  0
   -0.8558   -1.6947    7.2101 C   0  0  0  0  0  0
   -0.5185   -0.1254    7.0043 C   0  0  0  0  0  0
    0.9505    0.4143    6.9211 C   0  0  0  0  0  0
    1.9532   -0.2750    5.8873 C   0  0  0  0  0  0
    3.4287    0.2191    5.6164 C   0  0  0  0  0  0
    3.7282    1.0803    4.3610 C   0  0  0  0  0  0
    3.5238    0.3820    2.9611 C   0  0  0  0  0  0
    2.0844   -0.0036    2.5979 C   0  0  0  0  0  0
    1.8651   -1.1462    1.5662 C   0  0  0  0  0  0
    0.6684   -1.0949    0.5709 C   0  0  0  0  0  0
    0.7194   -0.0088   -0.4945 C   0  0  0  0  0  0
    0.4328   -2.4186   -0.0364 N   0  0  0  0  0  0
    3.0501   -1.1191    0.7302 O   0  0  0  0  0  0
    4.0276    1.2622    1.9506 O   0  0  0  0  0  0
   -1.1167    0.2188    5.7432 O   0  0  0  0  0  0
   -0.9565   -4.9504    9.0964 O   0  0  0  0  0  0
    0.2342   -5.5235    9.4111 C   0  0  0  0  0  0
    0.3996   -6.6495    9.8403 O   0  0  0  0  0  0
    1.3348   -4.5667    9.0439 C   0  0  0  0  0  0
    1.9287   -4.8547    7.6558 C   0  0  0  0  0  0
    1.6365   -3.7365    6.6470 C   0  0  0  0  0  0
    2.6285   -3.7575    5.5074 C   0  0  0  0  0  0
    3.4067   -2.8404    5.2686 O   0  0  0  0  0  0
    2.5797   -4.8814    4.7771 O   0  0  0  0  0  0
    3.4432   -4.9909    7.8649 C   0  0  0  0  0  0
    4.0106   -6.0695    7.9481 O   0  0  0  0  0  0
    4.0900   -3.8249    7.9991 O   0  0  0  0  0  0
   -2.3966   -7.0902    7.4707 O   0  0  0  0  0  0
   -3.6170   -6.8310    6.8694 C   0  0  0  0  0  0
   -4.2352   -5.7796    6.9734 O   0  0  0  0  0  0
   -4.1246   -8.0197    6.0425 C   0  0  0  0  0  0
   -4.4043   -9.3304    6.8414 C   0  0  0  0  0  0
   -3.6160  -10.5952    6.4551 C   0  0  0  0  0  0
   -2.1313  -10.3736    6.4216 C   0  0  0  0  0  0
   -1.5474   -9.3864    6.8473 O   0  0  0  0  0  0
   -1.4704  -11.4065    5.8770 O   0  0  0  0  0  0
   -4.3046   -9.1822    8.3647 C   0  0  0  0  0  0
   -4.1463   -8.1103    8.9149 O   0  0  0  0  0  0
   -4.5119  -10.3130    9.0716 O   0  0  0  0  0  0
    1.3065   -2.7663   -0.4291 H   0  0  0  0  0  0
   -0.1896   -2.3035   -0.8394 H   0  0  0  0  0  0
    2.8901   -1.8098    0.0529 H   0  0  0  0  0  0
    5.0002    1.2767    2.0172 H   0  0  0  0  0  0
   -1.2408    1.1825    5.7224 H   0  0  0  0  0  0
    3.2551   -4.9520    4.0755 H   0  0  0  0  0  0
    4.8978   -3.8673    8.5687 H   0  0  0  0  0  0
   -2.1491  -12.0418    5.5653 H   0  0  0  0  0  0
   -4.7497  -11.1037    8.5383 H   0  0  0  0  0  0
  1  2  1  0  0  0
  2  3  1  0  0  0
  3  4  1  0  0  0
  4  5  1  0  0  0
  5  6  1  0  0  0
  5  7  1  0  0  0
  7  8  1  0  0  0
  7 39  1  0  0  0
  8  9  1  0  0  0
  8 27  1  0  0  0
  9 10  1  0  0  0
 10 11  1  0  0  0
 10 12  1  0  0  0
 12 13  1  0  0  0
 13 14  1  0  0  0
 13 26  1  0  0  0
 14 15  1  0  0  0
 15 16  1  0  0  0
 16 17  1  0  0  0
 17 18  1  0  0  0
 18 19  1  0  0  0
 18 25  1  0  0  0
 19 20  1  0  0  0
 20 21  1  0  0  0
 20 24  1  0  0  0
 21 22  1  0  0  0
 21 23  1  0  0  0
 23 51  1  0  0  0
 23 52  1  0  0  0
 24 53  1  0  0  0
 25 54  1  0  0  0
 26 55  1  0  0  0
 27 28  1  0  0  0
 28 29  2  0  0  0
 28 30  1  0  0  0
 30 31  1  0  0  0
 31 32  1  0  0  0
 31 36  1  0  0  0
 32 33  1  0  0  0
 33 34  2  0  0  0
 33 35  1  0  0  0
 35 56  1  0  0  0
 36 37  2  0  0  0
 36 38  1  0  0  0
 38 57  1  0  0  0
 39 40  1  0  0  0
 40 41  2  0  0  0
 40 42  1  0  0  0
 42 43  1  0  0  0
 43 44  1  0  0  0
 43 48  1  0  0  0
 44 45  1  0  0  0
 45 46  2  0  0  0
 45 47  1  0  0  0
 47 58  1  0  0  0
 48 49  2  0  0  0
 48 50  1  0  0  0
 50 59  1  0  0  0
M  END
>  <AUTHOR>
    GENERATED BY OPEN BABEL 2.4.1

>  <CHROM.1>
-53.16974353,-121.85140400,47.17563669,-16.23239496,81.72651094,-57.44437772
-160.53220543,58.27536895,-85.16277286,164.39780678,153.18035871,51.78902849
159.03365715,175.56750676,-100.26679140,-65.10019105,65.92081460,-156.19120495
71.10619590,-145.27880347,67.84933913,-177.24727993,-52.24252076,-105.79787766
-95.69826566,113.32098313,158.07166469,99.53211991,-117.00357634,-175.56982492
149.85788542,-64.10555658,62.33716850,-120.05511668,52.36816644,6.63205195
11.12533920,4.24060883,-2.94635605,-0.03756020,-4.33134807,5.86124628,0.59004257
-0.94809140,-1.38891312

>  <COMPND>
    UNNAMED

>  <MASTER>
        0    0    0    0    0    0    0    0  109    0  109    0

>  <Name>
FB1.pdb

>  <RI>
0

>  <Rbt.Current_Directory>
/home/fc/tossine/F10/p3/2_clust03

>  <Rbt.Executable>
rbdock/0.1.0

>  <Rbt.Library>
librxdock.so/0.1.0

>  <Rbt.Parameter_File>
/cluster/rxdock/data/scripts/dock.prm

>  <Rbt.Receptor>
rx_4.prm

>  <SCORE>
36.5964

>  <SCORE.INTER>
0.335077

>  <SCORE.INTER.CONST>
1

>  <SCORE.INTER.POLAR>
-4.31834

>  <SCORE.INTER.REPUL>
1.03151

>  <SCORE.INTER.ROT>
32

>  <SCORE.INTER.VDW>
-27.5401

>  <SCORE.INTER.norm>
0.00670154

>  <SCORE.INTRA>
35.2171

>  <SCORE.INTRA.DIHEDRAL>
54.051

>  <SCORE.INTRA.DIHEDRAL.0>
47.3121

>  <SCORE.INTRA.POLAR>
1.47808

>  <SCORE.INTRA.POLAR.0>
-1.47808

>  <SCORE.INTRA.REPUL>
0.000961166

>  <SCORE.INTRA.REPUL.0>
0

>  <SCORE.INTRA.VDW>
3.16129

>  <SCORE.INTRA.VDW.0>
-2.78316

>  <SCORE.INTRA.norm>
0.704341

>  <SCORE.RESTR>
1.04429

>  <SCORE.RESTR.CAVITY>
1.04429

>  <SCORE.RESTR.norm>
0.0208859

>  <SCORE.SYSTEM>
0

>  <SCORE.SYSTEM.CONST>
0

>  <SCORE.SYSTEM.DIHEDRAL>
0

>  <SCORE.SYSTEM.norm>
0

>  <SCORE.heavy>
50

>  <SCORE.norm>
0.731929

$$$$
