FB1.pdb
  RxDock  10092023073D
librxdock.so/0.1.0
 59 58  0  0  0  0  0  0  0  0999 V2000
   -6.4261   -1.9344   10.5343 C   0  0  0  0  0  0
   -5.2468   -2.0146    9.5677 C   0  0  0  0  0  0
   -5.5650   -2.9032    8.3538 C   0  0  0  0  0  0
   -4.3148   -3.5818    7.7406 C   0  0  0  0  0  0
   -4.5993   -4.9152    6.9650 C   0  0  0  0  0  0
   -4.6005   -4.6050    5.4502 C   0  0  0  0  0  0
   -3.5736   -6.0770    7.3055 C   0  0  0  0  0  0
   -2.0233   -5.6795    7.3737 C   0  0  0  0  0  0
   -0.8123   -6.7094    7.3422 C   0  0  0  0  0  0
    0.5747   -6.1805    8.0619 C   0  0  0  0  0  0
    0.2059   -5.4746    9.3657 C   0  0  0  0  0  0
    1.6846   -7.2896    8.3495 C   0  0  0  0  0  0
    3.2100   -6.9579    8.7759 C   0  0  0  0  0  0
    4.3518   -8.0297    8.7134 C   0  0  0  0  0  0
    4.3293   -9.2230    9.7739 C   0  0  0  0  0  0
    4.3917   -9.0220   11.3392 C   0  0  0  0  0  0
    4.0997  -10.2235   12.2766 C   0  0  0  0  0  0
    5.3324  -11.1247   12.6733 C   0  0  0  0  0  0
    6.3700  -11.3792   11.5728 C   0  0  0  0  0  0
    6.0809  -12.4972   10.5312 C   0  0  0  0  0  0
    6.3713  -12.2641    9.0190 C   0  0  0  0  0  0
    5.1671  -11.9701    8.1354 C   0  0  0  0  0  0
    7.4209  -11.2436    8.8367 N   0  0  0  0  0  0
    6.9508  -13.5922   10.9162 O   0  0  0  0  0  0
    5.9907  -10.5080   13.7852 O   0  0  0  0  0  0
    3.6257   -5.9141    7.8791 O   0  0  0  0  0  0
   -1.7786   -4.8016    6.2415 O   0  0  0  0  0  0
   -1.2413   -3.5833    6.5103 C   0  0  0  0  0  0
   -0.4410   -3.3283    7.3900 O   0  0  0  0  0  0
   -1.7235   -2.6104    5.4700 C   0  0  0  0  0  0
   -0.6218   -1.6411    5.0125 C   0  0  0  0  0  0
   -0.9928   -0.8935    3.7253 C   0  0  0  0  0  0
    0.1777   -0.8363    2.7714 C   0  0  0  0  0  0
    0.1268   -1.2295    1.6110 O   0  0  0  0  0  0
    1.2850   -0.3101    3.3153 O   0  0  0  0  0  0
   -0.4329   -0.6435    6.1636 C   0  0  0  0  0  0
   -1.2664   -0.4706    7.0398 O   0  0  0  0  0  0
    0.7047    0.0623    6.1027 O   0  0  0  0  0  0
   -4.0042   -6.8372    8.5041 O   0  0  0  0  0  0
   -4.9346   -7.8503    8.3428 C   0  0  0  0  0  0
   -5.1053   -8.4807    7.3075 O   0  0  0  0  0  0
   -5.7451   -8.1073    9.6201 C   0  0  0  0  0  0
   -7.0222   -8.9867    9.4464 C   0  0  0  0  0  0
   -8.0228   -9.0477   10.6150 C   0  0  0  0  0  0
   -8.8866  -10.2755   10.5841 C   0  0  0  0  0  0
   -8.6187  -11.3496   11.1047 O   0  0  0  0  0  0
  -10.0368  -10.0772    9.9223 O   0  0  0  0  0  0
   -7.8285   -8.6960    8.1746 C   0  0  0  0  0  0
   -7.8771   -7.5959    7.6606 O   0  0  0  0  0  0
   -8.4015   -9.7708    7.5935 O   0  0  0  0  0  0
    8.2800  -11.5649    9.2809 H   0  0  0  0  0  0
    7.1540  -10.4041    9.3558 H   0  0  0  0  0  0
    7.8321  -13.3414   10.5674 H   0  0  0  0  0  0
    6.9443  -10.4635   13.5876 H   0  0  0  0  0  0
    3.5836   -6.2619    6.9726 H   0  0  0  0  0  0
    1.1721    0.0649    4.2098 H   0  0  0  0  0  0
    0.7951    0.7554    6.8028 H   0  0  0  0  0  0
  -10.7608  -10.2138   10.5693 H   0  0  0  0  0  0
   -8.7857   -9.6114    6.7029 H   0  0  0  0  0  0
  1  2  1  0  0  0
  2  3  1  0  0  0
  3  4  1  0  0  0
  4  5  1  0  0  0
  5  6  1  0  0  0
  5  7  1  0  0  0
  7  8  1  0  0  0
  7 39  1  0  0  0
  8  9  1  0  0  0
  8 27  1  0  0  0
  9 10  1  0  0  0
 10 11  1  0  0  0
 10 12  1  0  0  0
 12 13  1  0  0  0
 13 14  1  0  0  0
 13 26  1  0  0  0
 14 15  1  0  0  0
 15 16  1  0  0  0
 16 17  1  0  0  0
 17 18  1  0  0  0
 18 19  1  0  0  0
 18 25  1  0  0  0
 19 20  1  0  0  0
 20 21  1  0  0  0
 20 24  1  0  0  0
 21 22  1  0  0  0
 21 23  1  0  0  0
 23 51  1  0  0  0
 23 52  1  0  0  0
 24 53  1  0  0  0
 25 54  1  0  0  0
 26 55  1  0  0  0
 27 28  1  0  0  0
 28 29  2  0  0  0
 28 30  1  0  0  0
 30 31  1  0  0  0
 31 32  1  0  0  0
 31 36  1  0  0  0
 32 33  1  0  0  0
 33 34  2  0  0  0
 33 35  1  0  0  0
 35 56  1  0  0  0
 36 37  2  0  0  0
 36 38  1  0  0  0
 38 57  1  0  0  0
 39 40  1  0  0  0
 40 41  2  0  0  0
 40 42  1  0  0  0
 42 43  1  0  0  0
 43 44  1  0  0  0
 43 48  1  0  0  0
 44 45  1  0  0  0
 45 46  2  0  0  0
 45 47  1  0  0  0
 47 58  1  0  0  0
 48 49  2  0  0  0
 48 50  1  0  0  0
 50 59  1  0  0  0
M  END
>  <AUTHOR>
    GENERATED BY OPEN BABEL 2.4.1

>  <CHROM.1>
-151.59301209,154.57245853,101.17658296,-43.96636146,-164.22219645,83.31921470
-154.37575687,124.69380044,42.35251925,167.66438515,-164.81621854,-70.68938761
-61.42866281,-59.93192689,168.70322213,89.04680819,-38.18285769,-81.76367925
-130.83865466,137.27421761,-102.79955149,-79.13645082,60.85053181,34.13490741
-139.76638325,165.62955834,-136.86976345,-18.63985618,125.22419423,-7.01862387
175.39156539,26.06401917,166.46169158,-167.96688646,-157.44862363,-30.73161427
89.05274485,-117.98935980,-169.99898733,-1.04820600,-6.58101722,8.21977170
2.65038834,0.01998643,-0.51626698

>  <COMPND>
    UNNAMED

>  <MASTER>
        0    0    0    0    0    0    0    0  109    0  109    0

>  <Name>
FB1.pdb

>  <RI>
0

>  <Rbt.Current_Directory>
/home/fc/tossine/F10/p3/2_clust03

>  <Rbt.Executable>
rbdock/0.1.0

>  <Rbt.Library>
librxdock.so/0.1.0

>  <Rbt.Parameter_File>
/cluster/rxdock/data/scripts/dock.prm

>  <Rbt.Receptor>
rx_0.prm

>  <SCORE>
26.5552

>  <SCORE.INTER>
0.199767

>  <SCORE.INTER.CONST>
1

>  <SCORE.INTER.POLAR>
-4.69162

>  <SCORE.INTER.REPUL>
0.241749

>  <SCORE.INTER.ROT>
32

>  <SCORE.INTER.VDW>
-22.4575

>  <SCORE.INTER.norm>
0.00399533

>  <SCORE.INTRA>
25.3244

>  <SCORE.INTRA.DIHEDRAL>
50.7856

>  <SCORE.INTRA.DIHEDRAL.0>
47.3121

>  <SCORE.INTRA.POLAR>
0.478077

>  <SCORE.INTRA.POLAR.0>
-1.47808

>  <SCORE.INTRA.REPUL>
0

>  <SCORE.INTRA.REPUL.0>
0

>  <SCORE.INTRA.VDW>
-1.69383

>  <SCORE.INTRA.VDW.0>
-2.78316

>  <SCORE.INTRA.norm>
0.506489

>  <SCORE.RESTR>
1.03103

>  <SCORE.RESTR.CAVITY>
1.03103

>  <SCORE.RESTR.norm>
0.0206205

>  <SCORE.SYSTEM>
0

>  <SCORE.SYSTEM.CONST>
0

>  <SCORE.SYSTEM.DIHEDRAL>
0

>  <SCORE.SYSTEM.norm>
0

>  <SCORE.heavy>
50

>  <SCORE.norm>
0.531104

$$$$
