FB1.pdb
  RxDock  10102002243D
librxdock.so/0.1.0
 59 58  0  0  0  0  0  0  0  0999 V2000
    0.0794    0.0488    2.1010 C   0  0  0  0  0  0
   -0.9563   -0.2025    3.1944 C   0  0  0  0  0  0
   -0.4162   -1.1422    4.2852 C   0  0  0  0  0  0
   -1.4843   -1.5562    5.3279 C   0  0  0  0  0  0
   -1.0621   -2.7322    6.2763 C   0  0  0  0  0  0
   -0.1204   -2.1649    7.3635 C   0  0  0  0  0  0
   -2.2925   -3.4908    6.9308 C   0  0  0  0  0  0
   -2.3306   -5.0843    6.7715 C   0  0  0  0  0  0
   -1.0957   -5.9912    6.3460 C   0  0  0  0  0  0
   -0.3241   -5.5195    4.9663 C   0  0  0  0  0  0
   -1.3595   -4.9343    4.0073 C   0  0  0  0  0  0
    0.8779   -4.4871    5.1508 C   0  0  0  0  0  0
    2.3399   -4.8880    5.7168 C   0  0  0  0  0  0
    2.9206   -4.2887    7.0434 C   0  0  0  0  0  0
    2.0031   -4.3112    8.3499 C   0  0  0  0  0  0
    2.5381   -4.6055    9.8065 C   0  0  0  0  0  0
    2.0516   -5.8727   10.5582 C   0  0  0  0  0  0
    2.3003   -7.2566    9.8426 C   0  0  0  0  0  0
    3.7518   -7.7511    9.8054 C   0  0  0  0  0  0
    4.2423   -8.5028    8.5355 C   0  0  0  0  0  0
    5.2138   -9.7138    8.6586 C   0  0  0  0  0  0
    6.2822   -9.8374    7.5812 C   0  0  0  0  0  0
    5.8136   -9.7716   10.0051 N   0  0  0  0  0  0
    3.0362   -9.0478    7.9421 O   0  0  0  0  0  0
    1.5001   -8.2445   10.5010 O   0  0  0  0  0  0
    2.2723   -6.3059    5.9437 O   0  0  0  0  0  0
   -2.7364   -5.6123    8.0634 O   0  0  0  0  0  0
   -4.0097   -6.0735    8.1690 C   0  0  0  0  0  0
   -4.9540   -5.7439    7.4768 O   0  0  0  0  0  0
   -4.0423   -7.1436    9.2250 C   0  0  0  0  0  0
   -4.1237   -8.5583    8.6296 C   0  0  0  0  0  0
   -3.3378   -9.5886    9.4507 C   0  0  0  0  0  0
   -2.0083   -9.0283    9.8997 C   0  0  0  0  0  0
   -1.0238   -8.9524    9.1726 O   0  0  0  0  0  0
   -2.0054   -8.6171   11.1764 O   0  0  0  0  0  0
   -5.6142   -8.9247    8.6149 C   0  0  0  0  0  0
   -6.4045   -8.5375    9.4622 O   0  0  0  0  0  0
   -5.9714   -9.7485    7.6201 O   0  0  0  0  0  0
   -2.4939   -3.0695    8.3385 O   0  0  0  0  0  0
   -3.0803   -1.8384    8.5805 C   0  0  0  0  0  0
   -3.6707   -1.1712    7.7411 O   0  0  0  0  0  0
   -2.9116   -1.3876   10.0375 C   0  0  0  0  0  0
   -3.9771   -0.3752   10.5611 C   0  0  0  0  0  0
   -4.0389    1.0151    9.9026 C   0  0  0  0  0  0
   -5.1351    1.8786   10.4569 C   0  0  0  0  0  0
   -5.7305    2.7556    9.8463 O   0  0  0  0  0  0
   -5.4301    1.5784   11.7310 O   0  0  0  0  0  0
   -5.4098   -0.9212   10.6014 C   0  0  0  0  0  0
   -6.3027   -0.4848    9.9021 O   0  0  0  0  0  0
   -5.5971   -1.9985   11.3924 O   0  0  0  0  0  0
    6.7398   -9.3475    9.9767 H   0  0  0  0  0  0
    5.9797  -10.7511   10.2470 H   0  0  0  0  0  0
    2.7376   -9.7336    8.5760 H   0  0  0  0  0  0
    1.5588   -9.0731    9.9907 H   0  0  0  0  0  0
    3.1809   -6.6492    5.9743 H   0  0  0  0  0  0
   -2.7888   -8.8753   11.6990 H   0  0  0  0  0  0
   -6.9283   -9.9998    7.6194 H   0  0  0  0  0  0
   -6.0907    2.2384   12.0298 H   0  0  0  0  0  0
   -6.5095   -2.3643   11.3942 H   0  0  0  0  0  0
  1  2  1  0  0  0
  2  3  1  0  0  0
  3  4  1  0  0  0
  4  5  1  0  0  0
  5  6  1  0  0  0
  5  7  1  0  0  0
  7  8  1  0  0  0
  7 39  1  0  0  0
  8  9  1  0  0  0
  8 27  1  0  0  0
  9 10  1  0  0  0
 10 11  1  0  0  0
 10 12  1  0  0  0
 12 13  1  0  0  0
 13 14  1  0  0  0
 13 26  1  0  0  0
 14 15  1  0  0  0
 15 16  1  0  0  0
 16 17  1  0  0  0
 17 18  1  0  0  0
 18 19  1  0  0  0
 18 25  1  0  0  0
 19 20  1  0  0  0
 20 21  1  0  0  0
 20 24  1  0  0  0
 21 22  1  0  0  0
 21 23  1  0  0  0
 23 51  1  0  0  0
 23 52  1  0  0  0
 24 53  1  0  0  0
 25 54  1  0  0  0
 26 55  1  0  0  0
 27 28  1  0  0  0
 28 29  2  0  0  0
 28 30  1  0  0  0
 30 31  1  0  0  0
 31 32  1  0  0  0
 31 36  1  0  0  0
 32 33  1  0  0  0
 33 34  2  0  0  0
 33 35  1  0  0  0
 35 56  1  0  0  0
 36 37  2  0  0  0
 36 38  1  0  0  0
 38 57  1  0  0  0
 39 40  1  0  0  0
 40 41  2  0  0  0
 40 42  1  0  0  0
 42 43  1  0  0  0
 43 44  1  0  0  0
 43 48  1  0  0  0
 44 45  1  0  0  0
 45 46  2  0  0  0
 45 47  1  0  0  0
 47 58  1  0  0  0
 48 49  2  0  0  0
 48 50  1  0  0  0
 50 59  1  0  0  0
M  END
>  <AUTHOR>
    GENERATED BY OPEN BABEL 2.4.1

>  <CHROM.1>
-173.31772984,168.00939453,78.12786828,127.57486487,16.06364469,76.14709315
-51.96272824,105.27564902,-34.06534548,75.34872009,-117.60891318,49.38805997
160.03797256,141.30340081,-115.60609856,57.18159713,72.34065279,-143.44838577
172.58412342,-142.07113684,-142.56244382,-68.06897225,-98.10312395,-24.02779750
-103.90565735,144.63886818,-41.86651859,-32.92583590,-79.07505249,10.78517530
178.86810185,14.18070493,-155.71846788,-63.95345953,177.88127993,-114.43038379
-150.77152204,175.02626568,-178.11410105,-1.29821077,-4.79431728,8.20810111
-2.38403122,-0.38026676,2.83531002

>  <COMPND>
    UNNAMED

>  <MASTER>
        0    0    0    0    0    0    0    0  109    0  109    0

>  <Name>
FB1.pdb

>  <RI>
0

>  <Rbt.Current_Directory>
/home/fc/tossine/F10/p3/2_clust03

>  <Rbt.Executable>
rbdock/0.1.0

>  <Rbt.Library>
librxdock.so/0.1.0

>  <Rbt.Parameter_File>
/cluster/rxdock/data/scripts/dock.prm

>  <Rbt.Receptor>
rx_4.prm

>  <SCORE>
33.8829

>  <SCORE.INTER>
9.39646

>  <SCORE.INTER.CONST>
1

>  <SCORE.INTER.POLAR>
-1.81295

>  <SCORE.INTER.REPUL>
0.372455

>  <SCORE.INTER.ROT>
32

>  <SCORE.INTER.VDW>
-23.7018

>  <SCORE.INTER.norm>
0.187929

>  <SCORE.INTRA>
23.3133

>  <SCORE.INTRA.DIHEDRAL>
32.5584

>  <SCORE.INTRA.DIHEDRAL.0>
47.3121

>  <SCORE.INTRA.POLAR>
1.47808

>  <SCORE.INTRA.POLAR.0>
-1.47808

>  <SCORE.INTRA.REPUL>
0.0621686

>  <SCORE.INTRA.REPUL.0>
0

>  <SCORE.INTRA.VDW>
1.69781

>  <SCORE.INTRA.VDW.0>
-2.78316

>  <SCORE.INTRA.norm>
0.466267

>  <SCORE.RESTR>
1.17311

>  <SCORE.RESTR.CAVITY>
1.17311

>  <SCORE.RESTR.norm>
0.0234622

>  <SCORE.SYSTEM>
0

>  <SCORE.SYSTEM.CONST>
0

>  <SCORE.SYSTEM.DIHEDRAL>
0

>  <SCORE.SYSTEM.norm>
0

>  <SCORE.heavy>
50

>  <SCORE.norm>
0.677658

$$$$
