FB1.pdb
  RxDock  10102002253D
librxdock.so/0.1.0
 59 58  0  0  0  0  0  0  0  0999 V2000
    2.3586   -3.0219    2.0470 C   0  0  0  0  0  0
    2.9390   -2.0639    3.0846 C   0  0  0  0  0  0
    1.9339   -1.7656    4.2093 C   0  0  0  0  0  0
    2.5307   -1.9267    5.6297 C   0  0  0  0  0  0
    1.7483   -1.1785    6.7648 C   0  0  0  0  0  0
    1.9020    0.3433    6.5386 C   0  0  0  0  0  0
    0.2177   -1.5871    6.8543 C   0  0  0  0  0  0
   -0.1102   -3.0575    7.3991 C   0  0  0  0  0  0
    0.8543   -3.9309    8.3129 C   0  0  0  0  0  0
    2.4278   -3.9822    7.8201 C   0  0  0  0  0  0
    3.3255   -3.8228    9.0460 C   0  0  0  0  0  0
    2.8662   -5.2791    7.0011 C   0  0  0  0  0  0
    2.1240   -5.8000    5.6608 C   0  0  0  0  0  0
    0.6330   -6.2829    5.6597 C   0  0  0  0  0  0
    0.2496   -7.5590    6.5392 C   0  0  0  0  0  0
   -1.2218   -8.1035    6.7210 C   0  0  0  0  0  0
   -2.3482   -7.5895    5.7858 C   0  0  0  0  0  0
   -3.7866   -8.1962    6.0143 C   0  0  0  0  0  0
   -3.8794   -9.7266    6.0580 C   0  0  0  0  0  0
   -2.9670  -10.4924    7.0577 C   0  0  0  0  0  0
   -3.5648  -11.1275    8.3478 C   0  0  0  0  0  0
   -2.5852  -11.8431    9.2673 C   0  0  0  0  0  0
   -4.3661  -10.1407    9.0966 N   0  0  0  0  0  0
   -2.4446  -11.6107    6.2960 O   0  0  0  0  0  0
   -4.2954   -7.6744    7.2466 O   0  0  0  0  0  0
    2.1560   -4.6790    4.7613 O   0  0  0  0  0  0
   -1.3328   -2.9396    8.1761 O   0  0  0  0  0  0
   -2.4692   -2.6372    7.4961 C   0  0  0  0  0  0
   -2.5921   -2.5862    6.2871 O   0  0  0  0  0  0
   -3.5878   -2.4728    8.4876 C   0  0  0  0  0  0
   -4.9752   -2.6125    7.8409 C   0  0  0  0  0  0
   -5.6850   -3.9111    8.2452 C   0  0  0  0  0  0
   -6.8010   -3.6393    9.2270 C   0  0  0  0  0  0
   -7.9814   -3.5548    8.9058 O   0  0  0  0  0  0
   -6.3777   -3.4999   10.4920 O   0  0  0  0  0  0
   -5.7867   -1.4000    8.3175 C   0  0  0  0  0  0
   -5.5751   -0.8306    9.3774 O   0  0  0  0  0  0
   -6.7839   -1.0444    7.4958 O   0  0  0  0  0  0
   -0.5741   -0.5470    7.5550 O   0  0  0  0  0  0
   -1.0548    0.5229    6.8186 C   0  0  0  0  0  0
   -1.0836    0.5698    5.5958 O   0  0  0  0  0  0
   -1.5582    1.6660    7.7100 C   0  0  0  0  0  0
   -1.5232    1.3930    9.2458 C   0  0  0  0  0  0
   -1.3528    2.5965   10.1907 C   0  0  0  0  0  0
   -0.6893    2.2343   11.4881 C   0  0  0  0  0  0
    0.3110    2.7654   11.9506 O   0  0  0  0  0  0
   -1.3284    1.2464   12.1330 O   0  0  0  0  0  0
   -2.7024    0.5663    9.7735 C   0  0  0  0  0  0
   -2.5590   -0.4832   10.3690 O   0  0  0  0  0  0
   -3.9184    1.1334    9.6286 O   0  0  0  0  0  0
   -3.7466   -9.5828    9.6826 H   0  0  0  0  0  0
   -4.9700  -10.6408    9.7530 H   0  0  0  0  0  0
   -1.8595  -11.2002    5.6247 H   0  0  0  0  0  0
   -5.2378   -7.9151    7.3128 H   0  0  0  0  0  0
    1.6935   -4.9347    3.9456 H   0  0  0  0  0  0
   -6.9912   -3.8312   11.1756 H   0  0  0  0  0  0
   -7.1833   -0.1612    7.6940 H   0  0  0  0  0  0
   -0.7779    1.0161   12.9110 H   0  0  0  0  0  0
   -4.6632    0.6399   10.0384 H   0  0  0  0  0  0
  1  2  1  0  0  0
  2  3  1  0  0  0
  3  4  1  0  0  0
  4  5  1  0  0  0
  5  6  1  0  0  0
  5  7  1  0  0  0
  7  8  1  0  0  0
  7 39  1  0  0  0
  8  9  1  0  0  0
  8 27  1  0  0  0
  9 10  1  0  0  0
 10 11  1  0  0  0
 10 12  1  0  0  0
 12 13  1  0  0  0
 13 14  1  0  0  0
 13 26  1  0  0  0
 14 15  1  0  0  0
 15 16  1  0  0  0
 16 17  1  0  0  0
 17 18  1  0  0  0
 18 19  1  0  0  0
 18 25  1  0  0  0
 19 20  1  0  0  0
 20 21  1  0  0  0
 20 24  1  0  0  0
 21 22  1  0  0  0
 21 23  1  0  0  0
 23 51  1  0  0  0
 23 52  1  0  0  0
 24 53  1  0  0  0
 25 54  1  0  0  0
 26 55  1  0  0  0
 27 28  1  0  0  0
 28 29  2  0  0  0
 28 30  1  0  0  0
 30 31  1  0  0  0
 31 32  1  0  0  0
 31 36  1  0  0  0
 32 33  1  0  0  0
 33 34  2  0  0  0
 33 35  1  0  0  0
 35 56  1  0  0  0
 36 37  2  0  0  0
 36 38  1  0  0  0
 38 57  1  0  0  0
 39 40  1  0  0  0
 40 41  2  0  0  0
 40 42  1  0  0  0
 42 43  1  0  0  0
 43 44  1  0  0  0
 43 48  1  0  0  0
 44 45  1  0  0  0
 45 46  2  0  0  0
 45 47  1  0  0  0
 47 58  1  0  0  0
 48 49  2  0  0  0
 48 50  1  0  0  0
 50 59  1  0  0  0
M  END
>  <AUTHOR>
    GENERATED BY OPEN BABEL 2.4.1

>  <CHROM.1>
130.80101516,159.67672047,-67.41027740,70.68310588,22.83238955,85.38903534
-46.23809014,67.28709010,136.76129063,54.90803181,-63.55560437,-62.49947459
-178.20941092,175.51109143,13.42738463,179.08228339,-51.26217424,54.13449262
169.92942842,106.29668541,-179.40478358,67.38891638,-83.68765924,7.87259254
-160.17447231,109.03068829,106.07762274,-27.61318344,98.76957625,-146.02787522
-167.66328901,13.52075260,-3.57323741,151.45569065,-152.23474242,122.49968756
125.48224908,174.20254254,-174.77210934,-1.67179998,-3.40028354,7.66476029
-1.72254168,0.43320759,0.24547033

>  <COMPND>
    UNNAMED

>  <MASTER>
        0    0    0    0    0    0    0    0  109    0  109    0

>  <Name>
FB1.pdb

>  <RI>
0

>  <Rbt.Current_Directory>
/home/fc/tossine/F10/p3/2_clust03

>  <Rbt.Executable>
rbdock/0.1.0

>  <Rbt.Library>
librxdock.so/0.1.0

>  <Rbt.Parameter_File>
/cluster/rxdock/data/scripts/dock.prm

>  <Rbt.Receptor>
rx_4.prm

>  <SCORE>
26.3396

>  <SCORE.INTER>
14.1388

>  <SCORE.INTER.CONST>
1

>  <SCORE.INTER.POLAR>
-0.469501

>  <SCORE.INTER.REPUL>
0.457621

>  <SCORE.INTER.ROT>
32

>  <SCORE.INTER.VDW>
-23.953

>  <SCORE.INTER.norm>
0.282777

>  <SCORE.INTRA>
11.6424

>  <SCORE.INTRA.DIHEDRAL>
20.7822

>  <SCORE.INTRA.DIHEDRAL.0>
47.3121

>  <SCORE.INTRA.POLAR>
1.19003

>  <SCORE.INTRA.POLAR.0>
-1.47808

>  <SCORE.INTRA.REPUL>
0

>  <SCORE.INTRA.REPUL.0>
0

>  <SCORE.INTRA.VDW>
-2.79481

>  <SCORE.INTRA.VDW.0>
-2.78316

>  <SCORE.INTRA.norm>
0.232848

>  <SCORE.RESTR>
0.558322

>  <SCORE.RESTR.CAVITY>
0.558322

>  <SCORE.RESTR.norm>
0.0111664

>  <SCORE.SYSTEM>
0

>  <SCORE.SYSTEM.CONST>
0

>  <SCORE.SYSTEM.DIHEDRAL>
0

>  <SCORE.SYSTEM.norm>
0

>  <SCORE.heavy>
50

>  <SCORE.norm>
0.526791

$$$$
