FB1.pdb
  RxDock  10102000083D
librxdock.so/0.1.0
 59 58  0  0  0  0  0  0  0  0999 V2000
    4.5201   -1.8445    5.3467 C   0  0  0  0  0  0
    4.9074   -1.5750    6.7989 C   0  0  0  0  0  0
    4.4499   -2.7098    7.7302 C   0  0  0  0  0  0
    2.9186   -2.9434    7.7128 C   0  0  0  0  0  0
    2.4650   -4.3107    7.0920 C   0  0  0  0  0  0
    2.6204   -5.4085    8.1696 C   0  0  0  0  0  0
    0.9864   -4.2854    6.5168 C   0  0  0  0  0  0
    0.7148   -3.3369    5.2547 C   0  0  0  0  0  0
    0.8076   -1.7496    5.2662 C   0  0  0  0  0  0
    0.6396   -1.0499    6.7506 C   0  0  0  0  0  0
    1.2046    0.3681    6.6852 C   0  0  0  0  0  0
   -0.8401   -1.0092    7.3453 C   0  0  0  0  0  0
   -1.6037   -2.2929    7.9679 C   0  0  0  0  0  0
   -2.5304   -2.1899    9.2276 C   0  0  0  0  0  0
   -4.0736   -1.8453    9.0063 C   0  0  0  0  0  0
   -5.0755   -2.7449    8.1810 C   0  0  0  0  0  0
   -6.0906   -3.6462    8.9325 C   0  0  0  0  0  0
   -6.2558   -5.1211    8.3971 C   0  0  0  0  0  0
   -7.1419   -6.0523    9.2339 C   0  0  0  0  0  0
   -7.6348   -7.3782    8.5880 C   0  0  0  0  0  0
   -6.6187   -8.4870    8.1836 C   0  0  0  0  0  0
   -7.1909   -9.8787    7.9525 C   0  0  0  0  0  0
   -5.8002   -8.0559    7.0344 N   0  0  0  0  0  0
   -8.4750   -7.9899    9.5997 O   0  0  0  0  0  0
   -6.7926   -5.0523    7.0717 O   0  0  0  0  0  0
   -2.4576   -2.7633    6.9114 O   0  0  0  0  0  0
    1.6600   -3.7451    4.2288 O   0  0  0  0  0  0
    1.2287   -3.7044    2.9413 C   0  0  0  0  0  0
    0.6411   -4.5908    2.3510 O   0  0  0  0  0  0
    1.5085   -2.3340    2.3888 C   0  0  0  0  0  0
    2.9645   -1.8942    2.6101 C   0  0  0  0  0  0
    3.9100   -2.4198    1.5223 C   0  0  0  0  0  0
    5.3495   -2.0961    1.8484 C   0  0  0  0  0  0
    5.9593   -2.5904    2.7905 O   0  0  0  0  0  0
    5.9030   -1.2127    1.0044 O   0  0  0  0  0  0
    2.9485   -0.3594    2.5954 C   0  0  0  0  0  0
    3.9566    0.3168    2.4578 O   0  0  0  0  0  0
    1.7396    0.1829    2.7961 O   0  0  0  0  0  0
    0.4735   -5.6598    6.2979 O   0  0  0  0  0  0
   -0.8641   -5.8207    5.9769 C   0  0  0  0  0  0
   -1.6540   -4.9019    5.8032 O   0  0  0  0  0  0
   -1.2624   -7.2977    5.8583 C   0  0  0  0  0  0
   -2.6601   -7.6714    6.4426 C   0  0  0  0  0  0
   -2.7116   -8.6742    7.6097 C   0  0  0  0  0  0
   -3.0053  -10.0778    7.1647 C   0  0  0  0  0  0
   -2.3951  -11.0792    7.5131 O   0  0  0  0  0  0
   -4.0531  -10.1425    6.3291 O   0  0  0  0  0  0
   -3.5274   -6.4702    6.8389 C   0  0  0  0  0  0
   -4.2982   -5.9301    6.0701 O   0  0  0  0  0  0
   -3.4611   -6.1112    8.1381 O   0  0  0  0  0  0
   -6.4062   -7.6337    6.3323 H   0  0  0  0  0  0
   -5.4105   -8.8856    6.5813 H   0  0  0  0  0  0
   -9.2236   -7.3661    9.7088 H   0  0  0  0  0  0
   -6.0486   -5.0546    6.4417 H   0  0  0  0  0  0
   -1.9381   -3.3618    6.3489 H   0  0  0  0  0  0
    6.8747   -1.1350    1.0610 H   0  0  0  0  0  0
    1.7575    1.1285    3.0866 H   0  0  0  0  0  0
   -3.8009   -9.6455    5.5225 H   0  0  0  0  0  0
   -2.7219   -6.5121    8.6471 H   0  0  0  0  0  0
  1  2  1  0  0  0
  2  3  1  0  0  0
  3  4  1  0  0  0
  4  5  1  0  0  0
  5  6  1  0  0  0
  5  7  1  0  0  0
  7  8  1  0  0  0
  7 39  1  0  0  0
  8  9  1  0  0  0
  8 27  1  0  0  0
  9 10  1  0  0  0
 10 11  1  0  0  0
 10 12  1  0  0  0
 12 13  1  0  0  0
 13 14  1  0  0  0
 13 26  1  0  0  0
 14 15  1  0  0  0
 15 16  1  0  0  0
 16 17  1  0  0  0
 17 18  1  0  0  0
 18 19  1  0  0  0
 18 25  1  0  0  0
 19 20  1  0  0  0
 20 21  1  0  0  0
 20 24  1  0  0  0
 21 22  1  0  0  0
 21 23  1  0  0  0
 23 51  1  0  0  0
 23 52  1  0  0  0
 24 53  1  0  0  0
 25 54  1  0  0  0
 26 55  1  0  0  0
 27 28  1  0  0  0
 28 29  2  0  0  0
 28 30  1  0  0  0
 30 31  1  0  0  0
 31 32  1  0  0  0
 31 36  1  0  0  0
 32 33  1  0  0  0
 33 34  2  0  0  0
 33 35  1  0  0  0
 35 56  1  0  0  0
 36 37  2  0  0  0
 36 38  1  0  0  0
 38 57  1  0  0  0
 39 40  1  0  0  0
 40 41  2  0  0  0
 40 42  1  0  0  0
 42 43  1  0  0  0
 43 44  1  0  0  0
 43 48  1  0  0  0
 44 45  1  0  0  0
 45 46  2  0  0  0
 45 47  1  0  0  0
 47 58  1  0  0  0
 48 49  2  0  0  0
 48 50  1  0  0  0
 50 59  1  0  0  0
M  END
>  <AUTHOR>
    GENERATED BY OPEN BABEL 2.4.1

>  <CHROM.1>
-59.24541891,112.74119020,81.14739835,65.72862192,-65.55128748,171.11038273
-22.44932981,143.92005997,161.23482008,75.22989432,141.78743546,88.24617093
85.89411283,61.32142610,103.06058165,-135.57925923,173.51452764,164.64704856
92.87154708,64.43231841,162.47534861,63.99583795,-45.30513309,-87.16553549
51.08150287,84.31998260,-173.90368550,-163.86411652,67.30850314,-166.79469216
160.53789487,3.22168693,140.30479680,-117.97640690,-97.39374737,89.91987118
132.43619383,63.84958961,13.48255209,-0.90918015,-4.37109519,6.11651670,-0.41341241
-0.51807189,-2.94510083

>  <COMPND>
    UNNAMED

>  <MASTER>
        0    0    0    0    0    0    0    0  109    0  109    0

>  <Name>
FB1.pdb

>  <RI>
0

>  <Rbt.Current_Directory>
/home/fc/tossine/F10/p3/2_clust03

>  <Rbt.Executable>
rbdock/0.1.0

>  <Rbt.Library>
librxdock.so/0.1.0

>  <Rbt.Parameter_File>
/cluster/rxdock/data/scripts/dock.prm

>  <Rbt.Receptor>
rx_1.prm

>  <SCORE>
36.9067

>  <SCORE.INTER>
9.02366

>  <SCORE.INTER.CONST>
1

>  <SCORE.INTER.POLAR>
-2.30785

>  <SCORE.INTER.REPUL>
1.85544

>  <SCORE.INTER.ROT>
32

>  <SCORE.INTER.VDW>
-29.8069

>  <SCORE.INTER.norm>
0.180473

>  <SCORE.INTRA>
27.7147

>  <SCORE.INTRA.DIHEDRAL>
68.4479

>  <SCORE.INTRA.DIHEDRAL.0>
47.3121

>  <SCORE.INTRA.POLAR>
-1.07

>  <SCORE.INTRA.POLAR.0>
-1.47808

>  <SCORE.INTRA.REPUL>
0

>  <SCORE.INTRA.REPUL.0>
0

>  <SCORE.INTRA.VDW>
-2.87123

>  <SCORE.INTRA.VDW.0>
-2.78316

>  <SCORE.INTRA.norm>
0.554294

>  <SCORE.RESTR>
0.168368

>  <SCORE.RESTR.CAVITY>
0.168368

>  <SCORE.RESTR.norm>
0.00336736

>  <SCORE.SYSTEM>
0

>  <SCORE.SYSTEM.CONST>
0

>  <SCORE.SYSTEM.DIHEDRAL>
0

>  <SCORE.SYSTEM.norm>
0

>  <SCORE.heavy>
50

>  <SCORE.norm>
0.738134

$$$$
