FB1.pdb
  RxDock  10102001483D
librxdock.so/0.1.0
 59 58  0  0  0  0  0  0  0  0999 V2000
    1.7959   -2.5151    2.2748 C   0  0  0  0  0  0
    0.9378   -3.7646    2.4587 C   0  0  0  0  0  0
   -0.1882   -3.5367    3.4807 C   0  0  0  0  0  0
   -0.9958   -4.8180    3.8058 C   0  0  0  0  0  0
   -0.4166   -5.6857    4.9771 C   0  0  0  0  0  0
    1.0368   -6.0746    4.6204 C   0  0  0  0  0  0
   -0.4811   -4.9663    6.3899 C   0  0  0  0  0  0
    0.1273   -3.4871    6.4796 C   0  0  0  0  0  0
   -0.7280   -2.1488    6.5532 C   0  0  0  0  0  0
   -1.2485   -1.7334    8.0625 C   0  0  0  0  0  0
   -1.7859   -0.3041    8.0140 C   0  0  0  0  0  0
   -2.3405   -2.6935    8.7186 C   0  0  0  0  0  0
   -3.8921   -2.7485    8.2625 C   0  0  0  0  0  0
   -4.9045   -1.5970    8.5871 C   0  0  0  0  0  0
   -6.4658   -1.8980    8.4419 C   0  0  0  0  0  0
   -7.1222   -3.3165    8.6689 C   0  0  0  0  0  0
   -7.1574   -3.9231   10.0965 C   0  0  0  0  0  0
   -7.1987   -5.4973   10.1934 C   0  0  0  0  0  0
   -5.9844   -6.2449    9.6285 C   0  0  0  0  0  0
   -6.1100   -7.7751    9.3815 C   0  0  0  0  0  0
   -6.5038   -8.3202    7.9768 C   0  0  0  0  0  0
   -6.7812   -9.8141    7.8832 C   0  0  0  0  0  0
   -7.6172   -7.5403    7.4036 N   0  0  0  0  0  0
   -4.7794   -8.2976    9.6274 O   0  0  0  0  0  0
   -7.3494   -5.8512   11.5725 O   0  0  0  0  0  0
   -3.8531   -2.8202    6.8273 O   0  0  0  0  0  0
    0.9468   -3.4569    7.6796 O   0  0  0  0  0  0
    2.2776   -3.2413    7.5125 C   0  0  0  0  0  0
    2.8023   -2.6769    6.5715 O   0  0  0  0  0  0
    2.9965   -3.7286    8.7401 C   0  0  0  0  0  0
    2.6681   -5.1925    9.0744 C   0  0  0  0  0  0
    3.3320   -6.1805    8.1067 C   0  0  0  0  0  0
    2.7874   -7.5774    8.2952 C   0  0  0  0  0  0
    1.5994   -7.8240    8.4726 O   0  0  0  0  0  0
    3.7308   -8.5295    8.2482 O   0  0  0  0  0  0
    3.1857   -5.4258   10.5005 C   0  0  0  0  0  0
    4.1227   -6.1665   10.7571 O   0  0  0  0  0  0
    2.4919   -4.7864   11.4522 O   0  0  0  0  0  0
   -1.8456   -5.0403    6.9666 O   0  0  0  0  0  0
   -2.3059   -6.2671    7.4150 C   0  0  0  0  0  0
   -3.3862   -6.4482    7.9614 O   0  0  0  0  0  0
   -1.3039   -7.3987    7.1509 C   0  0  0  0  0  0
   -1.7310   -8.8127    7.6537 C   0  0  0  0  0  0
   -1.9159   -9.0164    9.1685 C   0  0  0  0  0  0
   -0.6148   -9.1546    9.9050 C   0  0  0  0  0  0
    0.0042  -10.1967   10.0706 O   0  0  0  0  0  0
   -0.1611   -7.9806   10.3700 O   0  0  0  0  0  0
   -2.9756   -9.3855    6.9644 C   0  0  0  0  0  0
   -3.6925   -8.7238    6.2399 O   0  0  0  0  0  0
   -3.1697  -10.7111    7.1274 O   0  0  0  0  0  0
   -7.4503   -7.4019    6.4079 H   0  0  0  0  0  0
   -7.5994   -6.6008    7.8068 H   0  0  0  0  0  0
   -4.2195   -7.8805    8.9391 H   0  0  0  0  0  0
   -7.4073   -6.8225   11.6327 H   0  0  0  0  0  0
   -3.4480   -3.6682    6.5795 H   0  0  0  0  0  0
    3.4422   -9.4166    8.5370 H   0  0  0  0  0  0
    2.9863   -4.6496   12.2981 H   0  0  0  0  0  0
   -0.8661   -7.3201   10.2021 H   0  0  0  0  0  0
   -3.7982  -11.1241    6.4944 H   0  0  0  0  0  0
  1  2  1  0  0  0
  2  3  1  0  0  0
  3  4  1  0  0  0
  4  5  1  0  0  0
  5  6  1  0  0  0
  5  7  1  0  0  0
  7  8  1  0  0  0
  7 39  1  0  0  0
  8  9  1  0  0  0
  8 27  1  0  0  0
  9 10  1  0  0  0
 10 11  1  0  0  0
 10 12  1  0  0  0
 12 13  1  0  0  0
 13 14  1  0  0  0
 13 26  1  0  0  0
 14 15  1  0  0  0
 15 16  1  0  0  0
 16 17  1  0  0  0
 17 18  1  0  0  0
 18 19  1  0  0  0
 18 25  1  0  0  0
 19 20  1  0  0  0
 20 21  1  0  0  0
 20 24  1  0  0  0
 21 22  1  0  0  0
 21 23  1  0  0  0
 23 51  1  0  0  0
 23 52  1  0  0  0
 24 53  1  0  0  0
 25 54  1  0  0  0
 26 55  1  0  0  0
 27 28  1  0  0  0
 28 29  2  0  0  0
 28 30  1  0  0  0
 30 31  1  0  0  0
 31 32  1  0  0  0
 31 36  1  0  0  0
 32 33  1  0  0  0
 33 34  2  0  0  0
 33 35  1  0  0  0
 35 56  1  0  0  0
 36 37  2  0  0  0
 36 38  1  0  0  0
 38 57  1  0  0  0
 39 40  1  0  0  0
 40 41  2  0  0  0
 40 42  1  0  0  0
 42 43  1  0  0  0
 43 44  1  0  0  0
 43 48  1  0  0  0
 44 45  1  0  0  0
 45 46  2  0  0  0
 45 47  1  0  0  0
 47 58  1  0  0  0
 48 49  2  0  0  0
 48 50  1  0  0  0
 50 59  1  0  0  0
M  END
>  <AUTHOR>
    GENERATED BY OPEN BABEL 2.4.1

>  <CHROM.1>
-174.18084362,88.32441464,-57.47435916,-51.44025386,104.61765398,70.66022768
83.78913239,116.73205745,168.18283501,-73.49488520,-72.04428452,-164.28293837
65.72923446,30.27905020,68.37621820,-153.32275264,62.97455048,-165.47684357
178.00799560,94.66383146,-172.10461861,-63.55584336,139.93194809,24.36444008
54.48549171,73.18277435,-169.23309184,-112.57038086,41.65215479,168.59827287
-158.41996449,176.69371069,178.72208388,-63.55191837,-77.25520550,-10.80912502
-86.72117119,6.85588279,-163.21224190,-1.61135524,-5.66422424,7.87879515
0.23050569,0.10759516,-0.35505774

>  <COMPND>
    UNNAMED

>  <MASTER>
        0    0    0    0    0    0    0    0  109    0  109    0

>  <Name>
FB1.pdb

>  <RI>
0

>  <Rbt.Current_Directory>
/home/fc/tossine/F10/p3/2_clust03

>  <Rbt.Executable>
rbdock/0.1.0

>  <Rbt.Library>
librxdock.so/0.1.0

>  <Rbt.Parameter_File>
/cluster/rxdock/data/scripts/dock.prm

>  <Rbt.Receptor>
rx_3.prm

>  <SCORE>
2.06818

>  <SCORE.INTER>
1.47084

>  <SCORE.INTER.CONST>
1

>  <SCORE.INTER.POLAR>
-2.85295

>  <SCORE.INTER.REPUL>
0.411032

>  <SCORE.INTER.ROT>
32

>  <SCORE.INTER.VDW>
-28.2843

>  <SCORE.INTER.norm>
0.0294169

>  <SCORE.INTRA>
0.443461

>  <SCORE.INTRA.DIHEDRAL>
6.08493

>  <SCORE.INTRA.DIHEDRAL.0>
47.3121

>  <SCORE.INTRA.POLAR>
-0.430812

>  <SCORE.INTRA.POLAR.0>
-1.47808

>  <SCORE.INTRA.REPUL>
0

>  <SCORE.INTRA.REPUL.0>
0

>  <SCORE.INTRA.VDW>
-1.13424

>  <SCORE.INTRA.VDW.0>
-2.78316

>  <SCORE.INTRA.norm>
0.00886923

>  <SCORE.RESTR>
0.153877

>  <SCORE.RESTR.CAVITY>
0.153877

>  <SCORE.RESTR.norm>
0.00307754

>  <SCORE.SYSTEM>
0

>  <SCORE.SYSTEM.CONST>
0

>  <SCORE.SYSTEM.DIHEDRAL>
0

>  <SCORE.SYSTEM.norm>
0

>  <SCORE.heavy>
50

>  <SCORE.norm>
0.0413637

$$$$
