FB1.pdb
  RxDock  10102001023D
librxdock.so/0.1.0
 59 58  0  0  0  0  0  0  0  0999 V2000
    4.3360    0.9761    3.2647 C   0  0  0  0  0  0
    3.4740    0.6991    4.4942 C   0  0  0  0  0  0
    2.9371   -0.7417    4.5003 C   0  0  0  0  0  0
    2.0407   -1.0615    5.7225 C   0  0  0  0  0  0
    1.6373   -2.5701    5.8704 C   0  0  0  0  0  0
    2.9100   -3.3826    6.2032 C   0  0  0  0  0  0
    0.5053   -2.8197    6.9539 C   0  0  0  0  0  0
   -0.8065   -1.9053    6.8567 C   0  0  0  0  0  0
   -2.1584   -2.3191    6.1291 C   0  0  0  0  0  0
   -2.7285   -3.8188    6.5126 C   0  0  0  0  0  0
   -2.7381   -3.9597    8.0338 C   0  0  0  0  0  0
   -4.1659   -4.1944    5.9315 C   0  0  0  0  0  0
   -4.8562   -5.6496    6.0879 C   0  0  0  0  0  0
   -4.7850   -6.4745    7.4185 C   0  0  0  0  0  0
   -5.5753   -7.8598    7.4939 C   0  0  0  0  0  0
   -5.3426   -9.0705    6.5066 C   0  0  0  0  0  0
   -3.8946   -9.5077    6.1609 C   0  0  0  0  0  0
   -2.9659   -9.8963    7.3756 C   0  0  0  0  0  0
   -3.1537  -11.3056    7.9508 C   0  0  0  0  0  0
   -4.3681  -11.5641    8.8872 C   0  0  0  0  0  0
   -5.8178  -11.5742    8.3184 C   0  0  0  0  0  0
   -6.0811  -12.5153    7.1511 C   0  0  0  0  0  0
   -6.8037  -11.7821    9.3960 N   0  0  0  0  0  0
   -4.1572  -12.9038    9.4015 O   0  0  0  0  0  0
   -1.6050   -9.7548    6.9541 O   0  0  0  0  0  0
   -6.2574   -5.4200    5.8633 O   0  0  0  0  0  0
   -1.2065   -1.6218    8.2250 O   0  0  0  0  0  0
   -1.8482   -0.4457    8.4489 C   0  0  0  0  0  0
   -1.8498    0.5241    7.7148 O   0  0  0  0  0  0
   -2.6473   -0.5733    9.7164 C   0  0  0  0  0  0
   -2.1159    0.3276   10.8426 C   0  0  0  0  0  0
   -2.2555    1.8204   10.5178 C   0  0  0  0  0  0
   -1.0019    2.3559    9.8658 C   0  0  0  0  0  0
    0.1078    2.3042   10.3850 O   0  0  0  0  0  0
   -1.2171    2.8954    8.6568 O   0  0  0  0  0  0
   -2.9451   -0.0190   12.0869 C   0  0  0  0  0  0
   -4.0589   -0.5174   12.0285 O   0  0  0  0  0  0
   -2.3664    0.3163   13.2482 O   0  0  0  0  0  0
    0.1701   -4.2609    7.0559 O   0  0  0  0  0  0
    1.0118   -5.0833    7.7861 C   0  0  0  0  0  0
    1.8076   -4.6921    8.6300 O   0  0  0  0  0  0
    0.8411   -6.5641    7.4224 C   0  0  0  0  0  0
    1.2064   -7.5839    8.5455 C   0  0  0  0  0  0
    2.5384   -7.3902    9.2930 C   0  0  0  0  0  0
    3.6948   -7.1263    8.3723 C   0  0  0  0  0  0
    4.0321   -6.0301    7.9465 O   0  0  0  0  0  0
    4.3665   -8.2446    8.0584 O   0  0  0  0  0  0
    0.1165   -7.7819    9.6061 C   0  0  0  0  0  0
    0.2852   -7.5261   10.7820 O   0  0  0  0  0  0
   -1.0895   -8.1613    9.1338 O   0  0  0  0  0  0
   -7.7304  -11.5318    9.0538 H   0  0  0  0  0  0
   -6.6116  -11.1159   10.1475 H   0  0  0  0  0  0
   -4.1934  -13.4806    8.6095 H   0  0  0  0  0  0
   -1.0341   -9.8211    7.7416 H   0  0  0  0  0  0
   -6.3665   -5.0921    4.9549 H   0  0  0  0  0  0
   -0.4166    3.2016    8.1888 H   0  0  0  0  0  0
   -1.4480    0.6737   13.1605 H   0  0  0  0  0  0
    5.1837   -7.9616    7.5965 H   0  0  0  0  0  0
   -1.8312   -8.0953    9.7755 H   0  0  0  0  0  0
  1  2  1  0  0  0
  2  3  1  0  0  0
  3  4  1  0  0  0
  4  5  1  0  0  0
  5  6  1  0  0  0
  5  7  1  0  0  0
  7  8  1  0  0  0
  7 39  1  0  0  0
  8  9  1  0  0  0
  8 27  1  0  0  0
  9 10  1  0  0  0
 10 11  1  0  0  0
 10 12  1  0  0  0
 12 13  1  0  0  0
 13 14  1  0  0  0
 13 26  1  0  0  0
 14 15  1  0  0  0
 15 16  1  0  0  0
 16 17  1  0  0  0
 17 18  1  0  0  0
 18 19  1  0  0  0
 18 25  1  0  0  0
 19 20  1  0  0  0
 20 21  1  0  0  0
 20 24  1  0  0  0
 21 22  1  0  0  0
 21 23  1  0  0  0
 23 51  1  0  0  0
 23 52  1  0  0  0
 24 53  1  0  0  0
 25 54  1  0  0  0
 26 55  1  0  0  0
 27 28  1  0  0  0
 28 29  2  0  0  0
 28 30  1  0  0  0
 30 31  1  0  0  0
 31 32  1  0  0  0
 31 36  1  0  0  0
 32 33  1  0  0  0
 33 34  2  0  0  0
 33 35  1  0  0  0
 35 56  1  0  0  0
 36 37  2  0  0  0
 36 38  1  0  0  0
 38 57  1  0  0  0
 39 40  1  0  0  0
 40 41  2  0  0  0
 40 42  1  0  0  0
 42 43  1  0  0  0
 43 44  1  0  0  0
 43 48  1  0  0  0
 44 45  1  0  0  0
 45 46  2  0  0  0
 45 47  1  0  0  0
 47 58  1  0  0  0
 48 49  2  0  0  0
 48 50  1  0  0  0
 50 59  1  0  0  0
M  END
>  <AUTHOR>
    GENERATED BY OPEN BABEL 2.4.1

>  <CHROM.1>
-179.24780471,-171.89788962,67.42897739,50.05158807,95.84970039,79.31994370
48.16362676,150.43882395,49.22118868,174.93269220,41.06806611,176.35805727
62.42835514,57.83870047,45.38901628,56.80101423,80.16334350,-77.91761153
169.00283582,70.11527809,54.30043608,-63.10445127,164.52707275,-18.60111759
113.08132352,65.01898605,-92.66360398,-23.37429651,-57.92810905,-176.50093182
-4.91382365,19.76620861,-153.36554602,-47.55666107,-46.49305214,-118.60171125
86.50404674,-170.04407878,-166.99016449,-1.30075716,-4.69301151,8.01697775
-1.19131496,-0.30096807,-3.01194568

>  <COMPND>
    UNNAMED

>  <MASTER>
        0    0    0    0    0    0    0    0  109    0  109    0

>  <Name>
FB1.pdb

>  <RI>
0

>  <Rbt.Current_Directory>
/home/fc/tossine/F10/p3/2_clust03

>  <Rbt.Executable>
rbdock/0.1.0

>  <Rbt.Library>
librxdock.so/0.1.0

>  <Rbt.Parameter_File>
/cluster/rxdock/data/scripts/dock.prm

>  <Rbt.Receptor>
rx_2.prm

>  <SCORE>
3.88373

>  <SCORE.INTER>
2.95651

>  <SCORE.INTER.CONST>
1

>  <SCORE.INTER.POLAR>
-2.02911

>  <SCORE.INTER.REPUL>
0.0793864

>  <SCORE.INTER.ROT>
32

>  <SCORE.INTER.VDW>
-27.9414

>  <SCORE.INTER.norm>
0.0591303

>  <SCORE.INTRA>
0.863013

>  <SCORE.INTRA.DIHEDRAL>
-5.37244

>  <SCORE.INTRA.DIHEDRAL.0>
47.3121

>  <SCORE.INTRA.POLAR>
1.15731

>  <SCORE.INTRA.POLAR.0>
-1.47808

>  <SCORE.INTRA.REPUL>
0

>  <SCORE.INTRA.REPUL.0>
0

>  <SCORE.INTRA.VDW>
-0.385615

>  <SCORE.INTRA.VDW.0>
-2.78316

>  <SCORE.INTRA.norm>
0.0172603

>  <SCORE.RESTR>
0.0642067

>  <SCORE.RESTR.CAVITY>
0.0642067

>  <SCORE.RESTR.norm>
0.00128413

>  <SCORE.SYSTEM>
0

>  <SCORE.SYSTEM.CONST>
0

>  <SCORE.SYSTEM.DIHEDRAL>
0

>  <SCORE.SYSTEM.norm>
0

>  <SCORE.heavy>
50

>  <SCORE.norm>
0.0776747

$$$$
