FB1.pdb
  RxDock  10102001043D
librxdock.so/0.1.0
 59 58  0  0  0  0  0  0  0  0999 V2000
    0.1726   -4.2901    3.1688 C   0  0  0  0  0  0
    0.6927   -3.8426    4.5328 C   0  0  0  0  0  0
    2.2289   -3.7872    4.5662 C   0  0  0  0  0  0
    2.7989   -3.2615    5.9073 C   0  0  0  0  0  0
    2.6518   -4.2457    7.1198 C   0  0  0  0  0  0
    3.5084   -3.7071    8.2890 C   0  0  0  0  0  0
    1.1482   -4.4702    7.5744 C   0  0  0  0  0  0
    0.8153   -5.8442    8.3278 C   0  0  0  0  0  0
    1.4612   -6.3135    9.7028 C   0  0  0  0  0  0
    3.0320   -6.8077    9.6052 C   0  0  0  0  0  0
    3.5909   -6.9305   11.0218 C   0  0  0  0  0  0
    3.2941   -8.1640    8.8074 C   0  0  0  0  0  0
    4.7640   -8.7681    8.5024 C   0  0  0  0  0  0
    5.8448   -8.9540    9.6220 C   0  0  0  0  0  0
    7.3810   -9.0072    9.1904 C   0  0  0  0  0  0
    7.9340   -9.8514    7.9754 C   0  0  0  0  0  0
    9.4520  -10.1603    7.8870 C   0  0  0  0  0  0
    9.9518  -10.8707    6.5699 C   0  0  0  0  0  0
    8.8990  -11.6607    5.7826 C   0  0  0  0  0  0
    9.3863  -12.6408    4.6780 C   0  0  0  0  0  0
    9.8982  -12.1003    3.3101 C   0  0  0  0  0  0
    8.8520  -11.4886    2.3889 C   0  0  0  0  0  0
   11.0354  -11.1801    3.5010 N   0  0  0  0  0  0
   10.5268  -13.3181    5.2646 O   0  0  0  0  0  0
   10.5053   -9.8685    5.7103 O   0  0  0  0  0  0
    4.5217  -10.0899    7.9917 O   0  0  0  0  0  0
   -0.6144   -5.8285    8.5886 O   0  0  0  0  0  0
   -1.4380   -5.9946    7.5212 C   0  0  0  0  0  0
   -1.0943   -6.1701    6.3677 O   0  0  0  0  0  0
   -2.8577   -6.0277    8.0160 C   0  0  0  0  0  0
   -3.5464   -7.3746    7.7439 C   0  0  0  0  0  0
   -3.8809   -8.1358    9.0332 C   0  0  0  0  0  0
   -2.6368   -8.7240    9.6573 C   0  0  0  0  0  0
   -2.4511   -8.7896   10.8676 O   0  0  0  0  0  0
   -1.7486   -9.1724    8.7578 O   0  0  0  0  0  0
   -4.8359   -7.0424    6.9805 C   0  0  0  0  0  0
   -5.1022   -5.9202    6.5777 O   0  0  0  0  0  0
   -5.6740   -8.0778    6.8335 O   0  0  0  0  0  0
    0.6310   -3.2931    8.3139 O   0  0  0  0  0  0
   -0.7393   -3.1008    8.3712 C   0  0  0  0  0  0
   -1.3964   -3.0757    9.4037 O   0  0  0  0  0  0
   -1.3619   -2.9183    6.9807 C   0  0  0  0  0  0
   -1.6448   -1.4445    6.5534 C   0  0  0  0  0  0
   -1.5258   -0.3452    7.6248 C   0  0  0  0  0  0
   -2.6749   -0.3413    8.5913 C   0  0  0  0  0  0
   -3.7956   -0.7787    8.3692 O   0  0  0  0  0  0
   -2.3453    0.1905    9.7782 O   0  0  0  0  0  0
   -0.8506   -0.9719    5.3294 C   0  0  0  0  0  0
   -1.3744   -0.7000    4.2672 O   0  0  0  0  0  0
    0.4679   -0.7717    5.5362 O   0  0  0  0  0  0
   10.7410  -10.4033    4.0913 H   0  0  0  0  0  0
   11.2656  -10.7540    2.6004 H   0  0  0  0  0  0
   10.1456  -13.8667    5.9823 H   0  0  0  0  0  0
    9.7895   -9.2578    5.4548 H   0  0  0  0  0  0
    3.8975  -10.0161    7.2504 H   0  0  0  0  0  0
   -0.9116   -9.5094    9.1311 H   0  0  0  0  0  0
   -6.4563   -7.8934    6.2567 H   0  0  0  0  0  0
   -1.3942    0.4234    9.7278 H   0  0  0  0  0  0
    0.8050   -1.0667    6.4112 H   0  0  0  0  0  0
  1  2  1  0  0  0
  2  3  1  0  0  0
  3  4  1  0  0  0
  4  5  1  0  0  0
  5  6  1  0  0  0
  5  7  1  0  0  0
  7  8  1  0  0  0
  7 39  1  0  0  0
  8  9  1  0  0  0
  8 27  1  0  0  0
  9 10  1  0  0  0
 10 11  1  0  0  0
 10 12  1  0  0  0
 12 13  1  0  0  0
 13 14  1  0  0  0
 13 26  1  0  0  0
 14 15  1  0  0  0
 15 16  1  0  0  0
 16 17  1  0  0  0
 17 18  1  0  0  0
 18 19  1  0  0  0
 18 25  1  0  0  0
 19 20  1  0  0  0
 20 21  1  0  0  0
 20 24  1  0  0  0
 21 22  1  0  0  0
 21 23  1  0  0  0
 23 51  1  0  0  0
 23 52  1  0  0  0
 24 53  1  0  0  0
 25 54  1  0  0  0
 26 55  1  0  0  0
 27 28  1  0  0  0
 28 29  2  0  0  0
 28 30  1  0  0  0
 30 31  1  0  0  0
 31 32  1  0  0  0
 31 36  1  0  0  0
 32 33  1  0  0  0
 33 34  2  0  0  0
 33 35  1  0  0  0
 35 56  1  0  0  0
 36 37  2  0  0  0
 36 38  1  0  0  0
 38 57  1  0  0  0
 39 40  1  0  0  0
 40 41  2  0  0  0
 40 42  1  0  0  0
 42 43  1  0  0  0
 43 44  1  0  0  0
 43 48  1  0  0  0
 44 45  1  0  0  0
 45 46  2  0  0  0
 45 47  1  0  0  0
 47 58  1  0  0  0
 48 49  2  0  0  0
 48 50  1  0  0  0
 50 59  1  0  0  0
M  END
>  <AUTHOR>
    GENERATED BY OPEN BABEL 2.4.1

>  <CHROM.1>
176.77007513,71.22483060,168.71704907,154.92452407,60.76593717,157.54264771
-73.30390273,71.90813170,167.84369702,175.40674353,50.57728544,-156.80939873
53.42895141,-45.33662853,-162.51306299,-173.55785475,-23.05197175,-166.03353281
-64.28092454,-75.14286468,-69.90808151,67.85856011,-58.90373929,0.85982276
-116.90667221,113.93615519,-73.86451921,7.36745508,143.36840535,176.50940688
-173.49508695,119.24113560,-99.25585659,-10.87955214,-74.39550686,113.38017266
-24.52277909,-2.02198369,8.08615245,1.84884133,-6.34338275,7.24947062,-2.62889902
-0.31470500,2.86405170

>  <COMPND>
    UNNAMED

>  <MASTER>
        0    0    0    0    0    0    0    0  109    0  109    0

>  <Name>
FB1.pdb

>  <RI>
0

>  <Rbt.Current_Directory>
/home/fc/tossine/F10/p3/2_clust03

>  <Rbt.Executable>
rbdock/0.1.0

>  <Rbt.Library>
librxdock.so/0.1.0

>  <Rbt.Parameter_File>
/cluster/rxdock/data/scripts/dock.prm

>  <Rbt.Receptor>
rx_2.prm

>  <SCORE>
2.78723

>  <SCORE.INTER>
-3.76647

>  <SCORE.INTER.CONST>
1

>  <SCORE.INTER.POLAR>
-2.6352

>  <SCORE.INTER.REPUL>
0.0325851

>  <SCORE.INTER.ROT>
32

>  <SCORE.INTER.VDW>
-32.3697

>  <SCORE.INTER.norm>
-0.0753294

>  <SCORE.INTRA>
6.37241

>  <SCORE.INTRA.DIHEDRAL>
12.2649

>  <SCORE.INTRA.DIHEDRAL.0>
47.3121

>  <SCORE.INTRA.POLAR>
0.68321

>  <SCORE.INTRA.POLAR.0>
-1.47808

>  <SCORE.INTRA.REPUL>
0

>  <SCORE.INTRA.REPUL.0>
0

>  <SCORE.INTRA.VDW>
-2.08297

>  <SCORE.INTRA.VDW.0>
-2.78316

>  <SCORE.INTRA.norm>
0.127448

>  <SCORE.RESTR>
0.181293

>  <SCORE.RESTR.CAVITY>
0.181293

>  <SCORE.RESTR.norm>
0.00362586

>  <SCORE.SYSTEM>
0

>  <SCORE.SYSTEM.CONST>
0

>  <SCORE.SYSTEM.DIHEDRAL>
0

>  <SCORE.SYSTEM.norm>
0

>  <SCORE.heavy>
50

>  <SCORE.norm>
0.0557446

$$$$
