FB1.pdb
  RxDock  10102000113D
librxdock.so/0.1.0
 59 58  0  0  0  0  0  0  0  0999 V2000
    0.5744  -11.9313    6.7900 C   0  0  0  0  0  0
   -0.6020  -11.7078    5.8427 C   0  0  0  0  0  0
   -1.7597  -10.9712    6.5365 C   0  0  0  0  0  0
   -1.4013   -9.5281    6.9710 C   0  0  0  0  0  0
   -1.6541   -9.2115    8.4864 C   0  0  0  0  0  0
   -0.6063   -9.9800    9.3244 C   0  0  0  0  0  0
   -1.6237   -7.6612    8.8230 C   0  0  0  0  0  0
   -0.2643   -6.8759    8.5043 C   0  0  0  0  0  0
    0.9890   -7.4886    7.7412 C   0  0  0  0  0  0
    0.9487   -7.3406    6.0987 C   0  0  0  0  0  0
    1.2129   -8.7129    5.4814 C   0  0  0  0  0  0
   -0.3867   -6.7243    5.4808 C   0  0  0  0  0  0
   -0.5026   -5.2246    4.8841 C   0  0  0  0  0  0
    0.7403   -4.4361    4.3460 C   0  0  0  0  0  0
    1.5971   -3.5747    5.3818 C   0  0  0  0  0  0
    1.4472   -2.0147    5.5782 C   0  0  0  0  0  0
    1.9968   -1.0512    4.4934 C   0  0  0  0  0  0
    3.4616   -0.5065    4.7101 C   0  0  0  0  0  0
    4.0829    0.2583    3.5347 C   0  0  0  0  0  0
    4.2369   -0.4789    2.1742 C   0  0  0  0  0  0
    4.9940   -1.8374    2.0915 C   0  0  0  0  0  0
    4.9047   -2.5833    0.7675 C   0  0  0  0  0  0
    6.3984   -1.6830    2.5161 N   0  0  0  0  0  0
    2.8789   -0.7804    1.7636 O   0  0  0  0  0  0
    3.4485    0.3523    5.8555 O   0  0  0  0  0  0
   -1.3885   -5.3425    3.7580 O   0  0  0  0  0  0
   -0.6401   -5.7194    7.7082 O   0  0  0  0  0  0
   -0.4837   -4.4982    8.2823 C   0  0  0  0  0  0
    0.5732   -3.9605    8.5527 O   0  0  0  0  0  0
   -1.8404   -3.8686    8.4387 C   0  0  0  0  0  0
   -1.8015   -2.3389    8.2939 C   0  0  0  0  0  0
   -2.5095   -1.8497    7.0239 C   0  0  0  0  0  0
   -2.2862   -2.8036    5.8735 C   0  0  0  0  0  0
   -1.4902   -2.5952    4.9643 O   0  0  0  0  0  0
   -3.0437   -3.9084    5.9407 O   0  0  0  0  0  0
   -2.5068   -1.7794    9.5371 C   0  0  0  0  0  0
   -3.4949   -2.2986   10.0337 O   0  0  0  0  0  0
   -1.9781   -0.6415   10.0077 O   0  0  0  0  0  0
   -2.8088   -6.9680    8.2618 O   0  0  0  0  0  0
   -4.0403   -7.1799    8.8590 C   0  0  0  0  0  0
   -4.2801   -8.0709    9.6633 O   0  0  0  0  0  0
   -5.0940   -6.1630    8.4008 C   0  0  0  0  0  0
   -5.9340   -6.5740    7.1519 C   0  0  0  0  0  0
   -7.2774   -5.8597    6.9167 C   0  0  0  0  0  0
   -8.3661   -6.3414    7.8317 C   0  0  0  0  0  0
   -9.4172   -6.8589    7.4796 O   0  0  0  0  0  0
   -8.0639   -6.1638    9.1269 O   0  0  0  0  0  0
   -5.1642   -6.5389    5.8259 C   0  0  0  0  0  0
   -4.7276   -7.5380    5.2892 O   0  0  0  0  0  0
   -5.0916   -5.3303    5.2299 O   0  0  0  0  0  0
    6.4653   -0.9071    3.1734 H   0  0  0  0  0  0
    6.9538   -1.3925    1.7082 H   0  0  0  0  0  0
    2.8953   -0.7095    0.7859 H   0  0  0  0  0  0
    3.7438   -0.1652    6.6272 H   0  0  0  0  0  0
   -1.3987   -4.4892    3.2929 H   0  0  0  0  0  0
   -2.9077   -4.5514    5.2186 H   0  0  0  0  0  0
   -1.2503   -0.2669    9.4521 H   0  0  0  0  0  0
   -8.8230   -6.5086    9.6427 H   0  0  0  0  0  0
   -5.4910   -4.5882    5.7358 H   0  0  0  0  0  0
  1  2  1  0  0  0
  2  3  1  0  0  0
  3  4  1  0  0  0
  4  5  1  0  0  0
  5  6  1  0  0  0
  5  7  1  0  0  0
  7  8  1  0  0  0
  7 39  1  0  0  0
  8  9  1  0  0  0
  8 27  1  0  0  0
  9 10  1  0  0  0
 10 11  1  0  0  0
 10 12  1  0  0  0
 12 13  1  0  0  0
 13 14  1  0  0  0
 13 26  1  0  0  0
 14 15  1  0  0  0
 15 16  1  0  0  0
 16 17  1  0  0  0
 17 18  1  0  0  0
 18 19  1  0  0  0
 18 25  1  0  0  0
 19 20  1  0  0  0
 20 21  1  0  0  0
 20 24  1  0  0  0
 21 22  1  0  0  0
 21 23  1  0  0  0
 23 51  1  0  0  0
 23 52  1  0  0  0
 24 53  1  0  0  0
 25 54  1  0  0  0
 26 55  1  0  0  0
 27 28  1  0  0  0
 28 29  2  0  0  0
 28 30  1  0  0  0
 30 31  1  0  0  0
 31 32  1  0  0  0
 31 36  1  0  0  0
 32 33  1  0  0  0
 33 34  2  0  0  0
 33 35  1  0  0  0
 35 56  1  0  0  0
 36 37  2  0  0  0
 36 38  1  0  0  0
 38 57  1  0  0  0
 39 40  1  0  0  0
 40 41  2  0  0  0
 40 42  1  0  0  0
 42 43  1  0  0  0
 43 44  1  0  0  0
 43 48  1  0  0  0
 44 45  1  0  0  0
 45 46  2  0  0  0
 45 47  1  0  0  0
 47 58  1  0  0  0
 48 49  2  0  0  0
 48 50  1  0  0  0
 50 59  1  0  0  0
M  END
>  <AUTHOR>
    GENERATED BY OPEN BABEL 2.4.1

>  <CHROM.1>
64.73513462,-125.74916006,70.55547231,-59.82863966,6.88237717,72.48496729
88.24627990,112.49709132,-129.10609326,106.00117747,24.26103939,-87.53337393
-172.62832560,-98.86030457,-73.38330083,-93.65100107,170.49100089,-59.39281018
97.01403745,-54.68940701,170.76148451,145.98614132,27.47628926,68.50478267
-147.20287467,111.77913051,-36.62235595,-38.34791077,-102.56041240,-178.87120223
4.86022966,-13.63220880,90.60006618,160.23395002,-76.01026604,101.39553424
-119.61651052,-179.69677327,3.68493267,-1.16614150,-5.02472523,6.43290918
-2.54668649,0.43884926,-0.06526634

>  <COMPND>
    UNNAMED

>  <MASTER>
        0    0    0    0    0    0    0    0  109    0  109    0

>  <Name>
FB1.pdb

>  <RI>
0

>  <Rbt.Current_Directory>
/home/fc/tossine/F10/p3/2_clust03

>  <Rbt.Executable>
rbdock/0.1.0

>  <Rbt.Library>
librxdock.so/0.1.0

>  <Rbt.Parameter_File>
/cluster/rxdock/data/scripts/dock.prm

>  <Rbt.Receptor>
rx_1.prm

>  <SCORE>
35.2029

>  <SCORE.INTER>
2.20159

>  <SCORE.INTER.CONST>
1

>  <SCORE.INTER.POLAR>
-2.6563

>  <SCORE.INTER.REPUL>
0.20344

>  <SCORE.INTER.ROT>
32

>  <SCORE.INTER.VDW>
-27.1842

>  <SCORE.INTER.norm>
0.0440318

>  <SCORE.INTRA>
32.8997

>  <SCORE.INTRA.DIHEDRAL>
53.2809

>  <SCORE.INTRA.DIHEDRAL.0>
47.3121

>  <SCORE.INTRA.POLAR>
1.4319

>  <SCORE.INTRA.POLAR.0>
-1.47808

>  <SCORE.INTRA.REPUL>
0.175342

>  <SCORE.INTRA.REPUL.0>
0

>  <SCORE.INTRA.VDW>
0.514125

>  <SCORE.INTRA.VDW.0>
-2.78316

>  <SCORE.INTRA.norm>
0.657995

>  <SCORE.RESTR>
0.101549

>  <SCORE.RESTR.CAVITY>
0.101549

>  <SCORE.RESTR.norm>
0.00203097

>  <SCORE.SYSTEM>
0

>  <SCORE.SYSTEM.CONST>
0

>  <SCORE.SYSTEM.DIHEDRAL>
0

>  <SCORE.SYSTEM.norm>
0

>  <SCORE.heavy>
50

>  <SCORE.norm>
0.704058

$$$$
