FB1.pdb
  RxDock  10102002233D
librxdock.so/0.1.0
 59 58  0  0  0  0  0  0  0  0999 V2000
    0.8816   -6.8677    5.0753 C   0  0  0  0  0  0
    0.1862   -5.6916    5.7571 C   0  0  0  0  0  0
   -1.2511   -5.5046    5.2438 C   0  0  0  0  0  0
   -1.9692   -4.2745    5.8528 C   0  0  0  0  0  0
   -1.4660   -2.8860    5.3244 C   0  0  0  0  0  0
   -2.4184   -1.7901    5.8559 C   0  0  0  0  0  0
    0.0389   -2.5677    5.7140 C   0  0  0  0  0  0
    0.4730   -2.8566    7.2287 C   0  0  0  0  0  0
    1.9201   -2.5921    7.8322 C   0  0  0  0  0  0
    2.9665   -3.8627    7.7232 C   0  0  0  0  0  0
    4.3622   -3.3175    7.4250 C   0  0  0  0  0  0
    3.0299   -4.8319    8.9887 C   0  0  0  0  0  0
    2.8326   -6.4363    8.9139 C   0  0  0  0  0  0
    1.5838   -7.0985    8.2373 C   0  0  0  0  0  0
    0.5462   -7.8816    9.1644 C   0  0  0  0  0  0
   -0.7788   -8.5611    8.6380 C   0  0  0  0  0  0
   -2.0395   -7.6903    8.3933 C   0  0  0  0  0  0
   -3.3089   -8.4319    7.8206 C   0  0  0  0  0  0
   -3.4678   -9.9067    8.2108 C   0  0  0  0  0  0
   -4.8560  -10.5776    8.0078 C   0  0  0  0  0  0
   -5.7027  -10.2751    6.7363 C   0  0  0  0  0  0
   -6.7168  -11.3352    6.3296 C   0  0  0  0  0  0
   -6.3378   -8.9469    6.8314 N   0  0  0  0  0  0
   -4.5713  -11.9982    7.9402 O   0  0  0  0  0  0
   -4.4712   -7.7184    8.2561 O   0  0  0  0  0  0
    3.9626   -6.9130    8.1640 O   0  0  0  0  0  0
   -0.4153   -2.0656    8.0639 O   0  0  0  0  0  0
   -1.2795   -2.7451    8.8619 C   0  0  0  0  0  0
   -1.3176   -3.9507    9.0187 O   0  0  0  0  0  0
   -2.1246   -1.7482    9.6058 C   0  0  0  0  0  0
   -2.9618   -0.8661    8.6660 C   0  0  0  0  0  0
   -4.4163   -1.3407    8.5535 C   0  0  0  0  0  0
   -5.1363   -1.2093    9.8755 C   0  0  0  0  0  0
   -5.9818   -0.3514   10.1050 O   0  0  0  0  0  0
   -4.7632   -2.1261   10.7805 O   0  0  0  0  0  0
   -2.9152    0.5478    9.2616 C   0  0  0  0  0  0
   -3.8423    1.0387    9.8875 O   0  0  0  0  0  0
   -1.7883    1.2228    8.9962 O   0  0  0  0  0  0
    0.9828   -3.1714    4.7422 O   0  0  0  0  0  0
    1.6426   -2.3348    3.8574 C   0  0  0  0  0  0
    1.7172   -2.5184    2.6495 O   0  0  0  0  0  0
    2.2826   -1.1301    4.5599 C   0  0  0  0  0  0
    2.9361   -0.0678    3.6224 C   0  0  0  0  0  0
    3.3234    1.2927    4.2302 C   0  0  0  0  0  0
    4.2301    1.1667    5.4204 C   0  0  0  0  0  0
    4.4683    0.1329    6.0296 O   0  0  0  0  0  0
    4.7954    2.3349    5.7608 O   0  0  0  0  0  0
    4.1505   -0.5740    2.8342 C   0  0  0  0  0  0
    5.2927   -0.2652    3.1111 O   0  0  0  0  0  0
    3.8793   -1.4777    1.8693 O   0  0  0  0  0  0
   -7.3489   -9.0545    6.7635 H   0  0  0  0  0  0
   -6.0752   -8.3996    6.0087 H   0  0  0  0  0  0
   -4.0952  -12.1142    7.0909 H   0  0  0  0  0  0
   -4.3948   -6.7962    7.9491 H   0  0  0  0  0  0
    3.9294   -6.5091    7.2807 H   0  0  0  0  0  0
   -4.1940   -2.8419   10.4382 H   0  0  0  0  0  0
   -1.0614    0.6724    8.6123 H   0  0  0  0  0  0
    5.4195    2.1429    6.4922 H   0  0  0  0  0  0
    2.9500   -1.7969    1.8425 H   0  0  0  0  0  0
  1  2  1  0  0  0
  2  3  1  0  0  0
  3  4  1  0  0  0
  4  5  1  0  0  0
  5  6  1  0  0  0
  5  7  1  0  0  0
  7  8  1  0  0  0
  7 39  1  0  0  0
  8  9  1  0  0  0
  8 27  1  0  0  0
  9 10  1  0  0  0
 10 11  1  0  0  0
 10 12  1  0  0  0
 12 13  1  0  0  0
 13 14  1  0  0  0
 13 26  1  0  0  0
 14 15  1  0  0  0
 15 16  1  0  0  0
 16 17  1  0  0  0
 17 18  1  0  0  0
 18 19  1  0  0  0
 18 25  1  0  0  0
 19 20  1  0  0  0
 20 21  1  0  0  0
 20 24  1  0  0  0
 21 22  1  0  0  0
 21 23  1  0  0  0
 23 51  1  0  0  0
 23 52  1  0  0  0
 24 53  1  0  0  0
 25 54  1  0  0  0
 26 55  1  0  0  0
 27 28  1  0  0  0
 28 29  2  0  0  0
 28 30  1  0  0  0
 30 31  1  0  0  0
 31 32  1  0  0  0
 31 36  1  0  0  0
 32 33  1  0  0  0
 33 34  2  0  0  0
 33 35  1  0  0  0
 35 56  1  0  0  0
 36 37  2  0  0  0
 36 38  1  0  0  0
 38 57  1  0  0  0
 39 40  1  0  0  0
 40 41  2  0  0  0
 40 42  1  0  0  0
 42 43  1  0  0  0
 43 44  1  0  0  0
 43 48  1  0  0  0
 44 45  1  0  0  0
 45 46  2  0  0  0
 45 47  1  0  0  0
 47 58  1  0  0  0
 48 49  2  0  0  0
 48 50  1  0  0  0
 50 59  1  0  0  0
M  END
>  <AUTHOR>
    GENERATED BY OPEN BABEL 2.4.1

>  <CHROM.1>
-176.87178895,72.65681583,171.36650563,-45.58976726,-179.15171186,107.32960509
-90.33010295,113.88411741,142.58061353,126.51243641,-53.24966201,-112.50010561
-61.00346879,178.03151611,-80.71308558,177.96361628,30.12285778,163.88037449
57.19627956,40.21636353,155.85124412,-69.16302344,-121.14935508,5.70765545
61.24113261,99.73279093,65.00041828,-102.96005082,106.76002777,-9.51005482
-11.68607307,-131.12159096,-174.67320248,167.20681241,55.17763178,-105.48535816
-12.85380876,-175.48298140,-6.94856618,-0.48366206,-3.82743201,7.00183262
-2.38625168,0.47118188,0.11178070

>  <COMPND>
    UNNAMED

>  <MASTER>
        0    0    0    0    0    0    0    0  109    0  109    0

>  <Name>
FB1.pdb

>  <RI>
0

>  <Rbt.Current_Directory>
/home/fc/tossine/F10/p3/2_clust03

>  <Rbt.Executable>
rbdock/0.1.0

>  <Rbt.Library>
librxdock.so/0.1.0

>  <Rbt.Parameter_File>
/cluster/rxdock/data/scripts/dock.prm

>  <Rbt.Receptor>
rx_4.prm

>  <SCORE>
14.5448

>  <SCORE.INTER>
-2.12252

>  <SCORE.INTER.CONST>
1

>  <SCORE.INTER.POLAR>
-3.40053

>  <SCORE.INTER.REPUL>
0.327453

>  <SCORE.INTER.ROT>
32

>  <SCORE.INTER.VDW>
-29.598

>  <SCORE.INTER.norm>
-0.0424504

>  <SCORE.INTRA>
16.6343

>  <SCORE.INTRA.DIHEDRAL>
26.9478

>  <SCORE.INTRA.DIHEDRAL.0>
47.3121

>  <SCORE.INTRA.POLAR>
0.584603

>  <SCORE.INTRA.POLAR.0>
-1.47808

>  <SCORE.INTRA.REPUL>
0

>  <SCORE.INTRA.REPUL.0>
0

>  <SCORE.INTRA.VDW>
1.17271

>  <SCORE.INTRA.VDW.0>
-2.78316

>  <SCORE.INTRA.norm>
0.332686

>  <SCORE.RESTR>
0.0330315

>  <SCORE.RESTR.CAVITY>
0.0330315

>  <SCORE.RESTR.norm>
0.00066063

>  <SCORE.SYSTEM>
0

>  <SCORE.SYSTEM.CONST>
0

>  <SCORE.SYSTEM.DIHEDRAL>
0

>  <SCORE.SYSTEM.norm>
0

>  <SCORE.heavy>
50

>  <SCORE.norm>
0.290896

$$$$
