FB1.pdb
  RxDock  10102002233D
librxdock.so/0.1.0
 59 58  0  0  0  0  0  0  0  0999 V2000
    0.5875   -9.0201    6.1034 C   0  0  0  0  0  0
    0.4231   -7.6295    5.4947 C   0  0  0  0  0  0
   -1.0579   -7.2633    5.3031 C   0  0  0  0  0  0
   -1.2730   -5.9807    4.4614 C   0  0  0  0  0  0
   -1.2448   -4.6414    5.2774 C   0  0  0  0  0  0
   -2.4144   -4.6642    6.2885 C   0  0  0  0  0  0
    0.1361   -4.3770    6.0130 C   0  0  0  0  0  0
    0.5125   -2.8512    6.3233 C   0  0  0  0  0  0
    1.5484   -1.9771    5.4919 C   0  0  0  0  0  0
    3.0820   -2.5816    5.4293 C   0  0  0  0  0  0
    3.0087   -4.0474    5.0048 C   0  0  0  0  0  0
    4.1069   -1.8025    4.4873 C   0  0  0  0  0  0
    3.9924   -1.7438    2.8742 C   0  0  0  0  0  0
    3.8159   -0.3968    2.0929 C   0  0  0  0  0  0
    4.8894    0.7614    2.3282 C   0  0  0  0  0  0
    6.3968    0.6839    1.8631 C   0  0  0  0  0  0
    6.7311    0.6960    0.3480 C   0  0  0  0  0  0
    7.2371    2.0647   -0.2519 C   0  0  0  0  0  0
    8.5602    2.6033    0.3064 C   0  0  0  0  0  0
    9.8159    1.6885    0.2388 C   0  0  0  0  0  0
   11.2459    2.3052    0.2502 C   0  0  0  0  0  0
   12.2992    1.5893   -0.5837 C   0  0  0  0  0  0
   11.2009    3.7427   -0.0783 N   0  0  0  0  0  0
    9.7464    0.8794    1.4406 O   0  0  0  0  0  0
    7.3733    1.9028   -1.6679 O   0  0  0  0  0  0
    5.2305   -2.2958    2.3956 O   0  0  0  0  0  0
   -0.7311   -2.1027    6.2490 O   0  0  0  0  0  0
   -0.9251   -1.1347    7.1821 C   0  0  0  0  0  0
   -0.2314   -0.1502    7.3524 O   0  0  0  0  0  0
   -2.2069   -1.4273    7.9121 C   0  0  0  0  0  0
   -2.3727   -0.5734    9.1793 C   0  0  0  0  0  0
   -2.8413    0.8542    8.8700 C   0  0  0  0  0  0
   -1.6899    1.8309    8.9303 C   0  0  0  0  0  0
   -1.3610    2.5504    7.9933 O   0  0  0  0  0  0
   -1.0575    1.8391   10.1130 O   0  0  0  0  0  0
   -3.4190   -1.2948   10.0401 C   0  0  0  0  0  0
   -4.1467   -2.1752    9.6070 O   0  0  0  0  0  0
   -3.5045   -0.8447   11.2995 O   0  0  0  0  0  0
    0.2771   -5.2377    7.2127 O   0  0  0  0  0  0
    1.5190   -5.3243    7.8194 C   0  0  0  0  0  0
    2.2456   -4.3686    8.0580 O   0  0  0  0  0  0
    1.8983   -6.7693    8.1694 C   0  0  0  0  0  0
    1.7127   -7.1751    9.6646 C   0  0  0  0  0  0
    2.1338   -6.1636   10.7462 C   0  0  0  0  0  0
    3.6219   -5.9841   10.8339 C   0  0  0  0  0  0
    4.3812   -6.6482   11.5261 O   0  0  0  0  0  0
    4.0680   -5.0005   10.0377 O   0  0  0  0  0  0
    0.3029   -7.6609   10.0231 C   0  0  0  0  0  0
   -0.4905   -8.0564    9.1920 O   0  0  0  0  0  0
    0.0300   -7.7238   11.3433 O   0  0  0  0  0  0
   10.5783    4.2155    0.5755 H   0  0  0  0  0  0
   10.7572    3.8551   -0.9927 H   0  0  0  0  0  0
   10.4674    0.2229    1.3381 H   0  0  0  0  0  0
    7.9586    1.1406   -1.8320 H   0  0  0  0  0  0
    5.1569   -3.2646    2.4190 H   0  0  0  0  0  0
   -0.2796    2.4270   10.1655 H   0  0  0  0  0  0
   -4.1865   -1.3006   11.8525 H   0  0  0  0  0  0
    3.2772   -4.5861    9.6325 H   0  0  0  0  0  0
   -0.8909   -7.9825   11.5697 H   0  0  0  0  0  0
  1  2  1  0  0  0
  2  3  1  0  0  0
  3  4  1  0  0  0
  4  5  1  0  0  0
  5  6  1  0  0  0
  5  7  1  0  0  0
  7  8  1  0  0  0
  7 39  1  0  0  0
  8  9  1  0  0  0
  8 27  1  0  0  0
  9 10  1  0  0  0
 10 11  1  0  0  0
 10 12  1  0  0  0
 12 13  1  0  0  0
 13 14  1  0  0  0
 13 26  1  0  0  0
 14 15  1  0  0  0
 15 16  1  0  0  0
 16 17  1  0  0  0
 17 18  1  0  0  0
 18 19  1  0  0  0
 18 25  1  0  0  0
 19 20  1  0  0  0
 20 21  1  0  0  0
 20 24  1  0  0  0
 21 22  1  0  0  0
 21 23  1  0  0  0
 23 51  1  0  0  0
 23 52  1  0  0  0
 24 53  1  0  0  0
 25 54  1  0  0  0
 26 55  1  0  0  0
 27 28  1  0  0  0
 28 29  2  0  0  0
 28 30  1  0  0  0
 30 31  1  0  0  0
 31 32  1  0  0  0
 31 36  1  0  0  0
 32 33  1  0  0  0
 33 34  2  0  0  0
 33 35  1  0  0  0
 35 56  1  0  0  0
 36 37  2  0  0  0
 36 38  1  0  0  0
 38 57  1  0  0  0
 39 40  1  0  0  0
 40 41  2  0  0  0
 40 42  1  0  0  0
 42 43  1  0  0  0
 43 44  1  0  0  0
 43 48  1  0  0  0
 44 45  1  0  0  0
 45 46  2  0  0  0
 45 47  1  0  0  0
 47 58  1  0  0  0
 48 49  2  0  0  0
 48 50  1  0  0  0
 50 59  1  0  0  0
M  END
>  <AUTHOR>
    GENERATED BY OPEN BABEL 2.4.1

>  <CHROM.1>
-169.62871489,-86.76525214,-62.69653660,154.44776856,-102.31132975,167.66793503
-58.95972195,139.58157691,50.34459210,-67.16250879,119.21576406,55.35644862
81.59471238,68.23982607,67.90211227,101.49451182,62.93330181,55.69808350
-55.03781651,156.03107737,-145.16247041,172.61292878,56.33617257,61.12396848
167.79314974,78.77504795,-101.47480240,-14.90824350,122.59813640,176.91743935
179.25338339,45.19731915,-101.36686738,-41.59063313,-70.10323925,19.65775783
-88.67728933,4.19508805,176.41804688,2.29098729,-2.40582604,5.93981175,-2.50715689
0.58885339,-0.31369048

>  <COMPND>
    UNNAMED

>  <MASTER>
        0    0    0    0    0    0    0    0  109    0  109    0

>  <Name>
FB1.pdb

>  <RI>
0

>  <Rbt.Current_Directory>
/home/fc/tossine/F10/p3/2_clust03

>  <Rbt.Executable>
rbdock/0.1.0

>  <Rbt.Library>
librxdock.so/0.1.0

>  <Rbt.Parameter_File>
/cluster/rxdock/data/scripts/dock.prm

>  <Rbt.Receptor>
rx_4.prm

>  <SCORE>
30.1191

>  <SCORE.INTER>
9.52616

>  <SCORE.INTER.CONST>
1

>  <SCORE.INTER.POLAR>
-1.86428

>  <SCORE.INTER.REPUL>
1.26875

>  <SCORE.INTER.ROT>
32

>  <SCORE.INTER.VDW>
-27.879

>  <SCORE.INTER.norm>
0.190523

>  <SCORE.INTRA>
20.5339

>  <SCORE.INTRA.DIHEDRAL>
34.0494

>  <SCORE.INTRA.DIHEDRAL.0>
47.3121

>  <SCORE.INTRA.POLAR>
0.915254

>  <SCORE.INTRA.POLAR.0>
-1.47808

>  <SCORE.INTRA.REPUL>
0.0722146

>  <SCORE.INTRA.REPUL.0>
0

>  <SCORE.INTRA.VDW>
0.0362625

>  <SCORE.INTRA.VDW.0>
-2.78316

>  <SCORE.INTRA.norm>
0.410678

>  <SCORE.RESTR>
0.0590649

>  <SCORE.RESTR.CAVITY>
0.0590649

>  <SCORE.RESTR.norm>
0.0011813

>  <SCORE.SYSTEM>
0

>  <SCORE.SYSTEM.CONST>
0

>  <SCORE.SYSTEM.DIHEDRAL>
0

>  <SCORE.SYSTEM.norm>
0

>  <SCORE.heavy>
50

>  <SCORE.norm>
0.602383

$$$$
