@<TRIPOS>MOLECULE
dna.pdb
 1642 1845 0 0 0
SMALL
GASTEIGER

@<TRIPOS>ATOM
      1  O5'       -3.8340  -14.7400   14.8760 O.3     1  DA1        -0.2176
      2  C5'       -3.0400  -13.6660   15.3830 C.3     1  DA1         0.2140
      3  C4'       -3.9020  -12.4860   15.7680 C.3     1  DA1         0.1774
      4  O4'       -3.6110  -12.1040   17.1410 O.3     1  DA1        -0.3348
      5  C3'       -3.7130  -11.2430   14.9030 C.3     1  DA1         0.1556
      6  O3'       -4.8690  -10.9180   14.1340 O.3     1  DA1        -0.3139
      7  C2'       -3.3640  -10.1090   15.8710 C.3     1  DA1         0.0835
      8  C1'       -3.4030  -10.7120   17.2730 C.3     1  DA1         0.1970
      9  N9        -1.9410  -10.2060   17.5530 N.pl3   1  DA1        -0.2525
     10  C8        -1.9160   -9.1060   18.3700 C.3     1  DA1         0.1918
     11  N7        -0.9550   -9.1330   19.2630 N.pl3   1  DA1        -0.2815
     12  C5        -0.3060  -10.3330   19.0160 C.ar    1  DA1         0.1209
     13  C6         0.8010  -10.9510   19.6220 C.ar    1  DA1         0.2181
     14  N6         1.4770  -10.4200   20.6440 N.4     1  DA1        -0.0590
     15  N1         1.1940  -12.1480   19.1360 N.ar    1  DA1        -0.2007
     16  C2         0.5170  -12.6790   18.1120 C.ar    1  DA1         0.2016
     17  N3        -0.5370  -12.1940   17.4590 N.ar    1  DA1        -0.2075
     18  C4        -0.9030  -11.0050   17.9670 C.ar    1  DA1         0.1529
     19  P         -4.5630  -10.7340   12.4000 P.3     2  DG2         0.2141
     20  OP1       -5.4180  -10.2730   11.2810 O.2     2  DG2        -0.5172
     21  OP2       -3.3430  -11.5220   12.1070 O.3     2  DG2        -0.4373
     22  O5'       -4.1390   -9.4640   13.2770 O.3     2  DG2        -0.3114
     23  C5'       -5.0690   -8.4210   13.6250 C.3     2  DG2         0.1811
     24  C4'       -4.3720   -7.2920   14.3930 C.3     2  DG2         0.1746
     25  O4'       -3.7960   -7.7990   15.6270 O.3     2  DG2        -0.3327
     26  C3'       -3.2030   -6.6160   13.6920 C.3     2  DG2         0.1558
     27  O3'       -3.6710   -5.5820   12.8260 O.3     2  DG2        -0.3138
     28  C2'       -2.3710   -6.0500   14.8480 C.3     2  DG2         0.0865
     29  C1'       -2.6530   -7.0390   15.9810 C.3     2  DG2         0.2094
     30  N9        -1.6480   -7.9710   16.1740 N.ar    2  DG2        -0.2713
     31  C8        -1.4600   -9.2120   15.6150 C.ar    2  DG2         0.1816
     32  N7        -0.2330   -9.6450   15.7230 N.ar    2  DG2        -0.2173
     33  C5         0.4290   -8.6350   16.3950 C.ar    2  DG2         0.1748
     34  C6         1.7850   -8.5300   16.8000 C.ar    2  DG2         0.3023
     35  O6         2.6990   -9.3480   16.6360 O.2     2  DG2        -0.2633
     36  N1         2.0410   -7.3300   17.4570 N.ar    2  DG2        -0.1709
     37  C2         1.1060   -6.3510   17.6950 C.ar    2  DG2         0.2606
     38  N2         1.5410   -5.2630   18.3440 N.pl3   2  DG2        -0.0859
     39  N3        -0.1570   -6.4330   17.3240 N.ar    2  DG2        -0.1918
     40  C4        -0.4280   -7.5900   16.6830 C.ar    2  DG2         0.1722
     41  P         -2.8820   -5.2190   11.3850 P.3     3  DC3         0.2141
     42  OP1       -3.8920   -4.5550   10.5290 O.2     3  DC3        -0.5172
     43  OP2       -2.0030   -6.2650   10.8090 O.3     3  DC3        -0.4373
     44  O5'       -1.8490   -4.1660   12.0140 O.3     3  DC3        -0.3114
     45  C5'       -2.2770   -3.2350   12.9980 C.3     3  DC3         0.1811
     46  C4'       -1.1150   -2.5680   13.6900 C.3     3  DC3         0.1746
     47  O4'       -0.5900   -3.4080   14.7520 O.3     3  DC3        -0.3327
     48  C3'        0.1080   -2.2990   12.8330 C.3     3  DC3         0.1558
     49  O3'       -0.0390   -1.1910   11.9670 O.3     3  DC3        -0.3138
     50  C2'        1.1850   -2.1000   13.8850 C.3     3  DC3         0.0866
     51  C1'        0.7930   -3.1630   14.9080 C.3     3  DC3         0.2106
     52  N1         1.5530   -4.4190   14.6990 N.ar    3  DC3        -0.2556
     53  C2         2.8350   -4.5220   15.2520 C.ar    3  DC3         0.3531
     54  O2         3.2620   -3.5860   15.9500 O.2     3  DC3        -0.2443
     55  N3         3.5700   -5.6340   15.0110 N.ar    3  DC3        -0.1739
     56  C4         3.0710   -6.6120   14.2560 C.ar    3  DC3         0.1759
     57  N4         3.8310   -7.6890   14.0460 N.pl3   3  DC3        -0.1070
     58  C5         1.7740   -6.5270   13.6860 C.ar    3  DC3         0.0566
     59  C6         1.0520   -5.4280   13.9270 C.ar    3  DC3         0.0849
     60  P          1.0320   -1.0140   10.7300 P.3     4  DA4         0.2141
     61  OP1        0.3880   -0.1170    9.7460 O.2     4  DA4        -0.5172
     62  OP2        1.1750   -2.4690   10.4870 O.3     4  DA4        -0.4373
     63  O5'        2.5290   -0.5120   10.9550 O.3     4  DA4        -0.3114
     64  C5'        2.7310    0.7480   11.5700 C.3     4  DA4         0.1811
     65  C4'        4.1310    0.8490   12.1100 C.3     4  DA4         0.1746
     66  O4'        4.3350   -0.1720   13.1230 O.3     4  DA4        -0.3327
     67  C3'        5.2350    0.5600   11.1090 C.3     4  DA4         0.1558
     68  O3'        5.4710    1.6150   10.1930 O.3     4  DA4        -0.3138
     69  C2'        6.3970    0.2270   12.0310 C.3     4  DA4         0.0865
     70  C1'        5.6690   -0.6360   13.0640 C.3     4  DA4         0.2094
     71  N9         5.7700   -2.0660   12.7770 N.ar    4  DA4        -0.2714
     72  C8         4.7500   -2.8870   12.3710 C.ar    4  DA4         0.1815
     73  N7         5.1030   -4.1430   12.2360 N.ar    4  DA4        -0.2193
     74  C5         6.4470   -4.1480   12.5760 C.ar    4  DA4         0.1518
     75  C6         7.4030   -5.1770   12.6360 C.ar    4  DA4         0.1919
     76  N6         7.1370   -6.4520   12.3430 N.pl3   4  DA4        -0.1054
     77  N1         8.6570   -4.8450   13.0120 N.ar    4  DA4        -0.2040
     78  C2         8.9220   -3.5670   13.3070 C.ar    4  DA4         0.2016
     79  N3         8.1080   -2.5140   13.2890 N.ar    4  DA4        -0.2048
     80  C4         6.8710   -2.8760   12.9100 C.ar    4  DA4         0.1691
     81  P          4.7810    1.4730    9.0820 P.3     5  DG5         0.2141
     82  OP1        4.5620    2.9330    8.9690 O.3     5  DG5        -0.4373
     83  OP2        3.7360    0.5220    8.6210 O.2     5  DG5        -0.5172
     84  O5'        6.1430    1.1350    8.3320 O.3     5  DG5        -0.3114
     85  C5'        7.2880    1.9580    8.5060 C.3     5  DG5         0.1811
     86  C4'        8.5410    1.1200    8.4110 C.3     5  DG5         0.1746
     87  O4'        8.6510    0.2730    9.5910 O.3     5  DG5        -0.3327
     88  C3'        8.5380    0.1580    7.2420 C.3     5  DG5         0.1558
     89  O3'        8.9800    0.8050    6.0550 O.3     5  DG5        -0.3138
     90  C2'        9.4660   -0.9470    7.7270 C.3     5  DG5         0.0865
     91  C1'        9.1150   -1.0130    9.2100 C.3     5  DG5         0.2094
     92  N9         8.0610   -1.9440    9.5440 N.ar    5  DG5        -0.2713
     93  C8         6.7360   -1.8630    9.8960 C.ar    5  DG5         0.1816
     94  N7         6.1260   -3.0170    9.8770 N.ar    5  DG5        -0.2173
     95  C5         7.1040   -3.9150    9.4920 C.ar    5  DG5         0.1748
     96  C6         7.0430   -5.3190    9.2930 C.ar    5  DG5         0.3023
     97  O6         6.0680   -6.0690    9.4270 O.2     5  DG5        -0.2633
     98  N1         8.2710   -5.8440    8.9000 N.ar    5  DG5        -0.1709
     99  C2         9.4170   -5.1070    8.7200 C.ar    5  DG5         0.2606
    100  N2        10.5050   -5.7910    8.3400 N.pl3   5  DG5        -0.0859
    101  N3         9.4900   -3.8030    8.9000 N.ar    5  DG5        -0.1918
    102  C4         8.3090   -3.2720    9.2810 C.ar    5  DG5         0.1722
    103  P          8.1280    0.5990    4.7890 P.3     6  DC6         0.2141
    104  OP1        8.4230    1.7470    3.9070 O.2     6  DC6        -0.5172
    105  OP2        6.7230    0.1820    5.0010 O.3     6  DC6        -0.4373
    106  O5'        8.8950   -0.6840    4.2250 O.3     6  DC6        -0.3114
    107  C5'       10.2530   -0.6000    3.8320 C.3     6  DC6         0.1811
    108  C4'       10.7280   -1.9800    3.4300 C.3     6  DC6         0.1746
    109  O4'       10.3800   -2.9220    4.4700 O.3     6  DC6        -0.3327
    110  C3'       10.0370   -2.5570    2.2090 C.3     6  DC6         0.1558
    111  O3'       10.6420   -2.0580    1.0360 O.3     6  DC6        -0.3138
    112  C2'       10.3150   -4.0450    2.3910 C.3     6  DC6         0.0866
    113  C1'       10.1520   -4.1960    3.8980 C.3     6  DC6         0.2106
    114  N1         8.8450   -4.6700    4.3580 N.ar    6  DC6        -0.2556
    115  C2         8.4770   -6.0200    4.3790 C.ar    6  DC6         0.3531
    116  O2         9.3000   -6.8700    4.0010 O.2     6  DC6        -0.2443
    117  N3         7.2370   -6.3580    4.8070 N.ar    6  DC6        -0.1739
    118  C4         6.3860   -5.4110    5.2020 C.ar    6  DC6         0.1759
    119  N4         5.1750   -5.7930    5.6160 N.pl3   6  DC6        -0.1070
    120  C5         6.7400   -4.0380    5.1890 C.ar    6  DC6         0.0566
    121  C6         7.9650   -3.7080    4.7650 C.ar    6  DC6         0.0849
    122  P          9.7900   -1.8180   -0.1750 P.3     7  DA7         0.2141
    123  OP1       10.6090   -1.2610   -1.2720 O.2     7  DA7        -0.5172
    124  OP2        8.4550   -1.2460    0.1070 O.3     7  DA7        -0.4373
    125  O5'        9.4970   -3.3640   -0.4580 O.3     7  DA7        -0.3114
    126  C5'       10.6040   -4.2450   -0.5260 C.3     7  DA7         0.1812
    127  C4'       10.1800   -5.6850   -0.6130 C.3     7  DA7         0.1775
    128  O4'        9.5960   -6.1120    0.6430 O.3     7  DA7        -0.3326
    129  C3'        9.0880   -5.9970   -1.6180 C.3     7  DA7         0.1859
    130  O3'        9.5260   -6.0230   -2.9620 O.3     7  DA7        -0.2202
    131  C2'        8.5740   -7.3360   -1.1120 C.3     7  DA7         0.0894
    132  C1'        8.6110   -7.0940    0.3940 C.3     7  DA7         0.2095
    133  N9         7.3030   -6.6290    0.8800 N.ar    7  DA7        -0.2714
    134  C8         6.9220   -5.3480    1.1830 C.ar    7  DA7         0.1815
    135  N7         5.6960   -5.2550    1.6400 N.ar    7  DA7        -0.2193
    136  C5         5.2400   -6.5640    1.6360 C.ar    7  DA7         0.1518
    137  C6         4.0130   -7.1400    2.0070 C.ar    7  DA7         0.1919
    138  N6         2.9790   -6.4370    2.4760 N.pl3   7  DA7        -0.1054
    139  N1         3.8840   -8.4780    1.8800 N.ar    7  DA7        -0.2040
    140  C2         4.9210   -9.1810    1.4110 C.ar    7  DA7         0.2016
    141  N3         6.1230   -8.7540    1.0310 N.ar    7  DA7        -0.2048
    142  C4         6.2190   -7.4210    1.1690 C.ar    7  DA7         0.1691
    143  P          8.6240   -5.1250   -4.0270 P.3     8  DC8         0.4149
    144  OP1        8.8800   -5.0360   -5.4760 O.3     8  DC8        -0.1481
    145  OP2        7.5060   -4.3540   -3.4520 O.2     8  DC8        -0.2668
    146  O5'        8.4540   -6.6720   -3.6560 O.3     8  DC8        -0.2177
    147  C5'        8.4430   -7.6450   -4.7040 C.3     8  DC8         0.2140
    148  C4'        7.2940   -8.6410   -4.6420 C.3     8  DC8         0.1776
    149  O4'        6.8550   -8.9060   -3.2830 O.3     8  DC8        -0.3326
    150  C3'        6.0210   -8.2060   -5.3390 C.3     8  DC8         0.1559
    151  O3'        6.1710   -8.2980   -6.7380 O.3     8  DC8        -0.3138
    152  C2'        5.0640   -9.2540   -4.7740 C.3     8  DC8         0.0866
    153  C1'        5.4890   -9.2800   -3.3020 C.3     8  DC8         0.2106
    154  N1         4.7080   -8.3800   -2.5020 N.ar    8  DC8        -0.2556
    155  C2         3.4870   -8.8300   -1.9850 C.ar    8  DC8         0.3531
    156  O2         3.1220   -9.9910   -2.2380 O.2     8  DC8        -0.2443
    157  N3         2.7410   -7.9890   -1.2290 N.ar    8  DC8        -0.1739
    158  C4         3.1720   -6.7510   -0.9840 C.ar    8  DC8         0.1759
    159  N4         2.4030   -5.9590   -0.2340 N.pl3   8  DC8        -0.1070
    160  C5         4.4060   -6.2760   -1.4980 C.ar    8  DC8         0.0566
    161  C6         5.1400   -7.1090   -2.2450 C.ar    8  DC8         0.0849
    162  P          5.6680   -7.0400   -7.7320 P.3     9  DA9         0.2141
    163  OP1        6.1300   -7.0640   -9.1330 O.2     9  DA9        -0.5172
    164  OP2        5.9100   -5.8500   -6.8880 O.3     9  DA9        -0.4373
    165  O5'        4.0860   -7.2650   -7.7070 O.3     9  DA9        -0.3114
    166  C5'        3.6280   -8.4760   -8.2880 C.3     9  DA9         0.1811
    167  C4'        2.1540   -8.7000   -8.0680 C.3     9  DA9         0.1746
    168  O4'        1.9080   -9.1720   -6.7190 O.3     9  DA9        -0.3327
    169  C3'        1.2700   -7.4770   -8.2220 C.3     9  DA9         0.1558
    170  O3'        0.9870   -7.2120   -9.5850 O.3     9  DA9        -0.3138
    171  C2'        0.0500   -7.8720   -7.3990 C.3     9  DA9         0.0865
    172  C1'        0.6980   -8.6310   -6.2390 C.3     9  DA9         0.2094
    173  N9         1.0860   -7.7340   -5.0860 N.ar    9  DA9        -0.2714
    174  C8         2.3020   -7.1420   -4.8650 C.ar    9  DA9         0.1815
    175  N7         2.3240   -6.3540   -3.8160 N.ar    9  DA9        -0.2193
    176  C5         1.0340   -6.4330   -3.3150 C.ar    9  DA9         0.1518
    177  C6         0.4110   -5.8300   -2.2090 C.ar    9  DA9         0.1919
    178  N6         1.0330   -4.9930   -1.3750 N.pl3   9  DA9        -0.1054
    179  N1        -0.8890   -6.1190   -1.9880 N.ar    9  DA9        -0.2040
    180  C2        -1.5110   -6.9590   -2.8230 C.ar    9  DA9         0.2016
    181  N3        -1.0330   -7.5880   -3.8940 N.ar    9  DA9        -0.2048
    182  C4         0.2600   -7.2780   -4.0870 C.ar    9  DA9         0.1691
    183  P          0.2460   -5.7180  -10.1630 P.3    10  DG10        0.2141
    184  OP1        0.3750   -5.7840  -11.6460 O.2    10  DG10       -0.5172
    185  OP2        1.3070   -5.1820   -9.2580 O.3    10  DG10       -0.4373
    186  O5'       -1.1460   -5.0810   -9.7800 O.3    10  DG10       -0.3114
    187  C5'       -2.2390   -5.5780  -10.4400 C.3    10  DG10        0.1811
    188  C4'       -3.4550   -5.3050   -9.6020 C.3    10  DG10        0.1746
    189  O4'       -3.0900   -5.7640   -8.2830 O.3    10  DG10       -0.3327
    190  C3'       -3.8060   -3.8740   -9.2600 C.3    10  DG10        0.1558
    191  O3'       -4.3550   -3.1380  -10.3380 O.3    10  DG10       -0.3138
    192  C2'       -4.7470   -4.1000   -8.0640 C.3    10  DG10        0.0865
    193  C1'       -3.9660   -5.1670   -7.3420 C.3    10  DG10        0.2094
    194  N9        -3.2570   -4.5280   -6.3820 N.ar   10  DG10       -0.2713
    195  C8        -1.8930   -4.6880   -6.4260 C.ar   10  DG10        0.1816
    196  N7        -1.2840   -4.2090   -5.3750 N.ar   10  DG10       -0.2173
    197  C5        -2.3030   -3.7050   -4.5890 C.ar   10  DG10        0.1748
    198  C6        -2.2610   -3.0590   -3.3260 C.ar   10  DG10        0.3023
    199  O6        -1.2710   -2.7990   -2.6310 O.2    10  DG10       -0.2633
    200  N1        -3.5310   -2.7030   -2.8810 N.ar   10  DG10       -0.1709
    201  C2        -4.6980   -2.9410   -3.5670 C.ar   10  DG10        0.2606
    202  N2        -5.8260   -2.5260   -2.9750 N.pl3  10  DG10       -0.0859
    203  N3        -4.7530   -3.5390   -4.7410 N.ar   10  DG10       -0.1918
    204  C4        -3.5310   -3.8920   -5.1930 C.ar   10  DG10        0.1722
    205  P         -3.7190   -1.6260  -10.5700 P.3    11  DA11        0.2141
    206  OP1       -4.1530   -1.0290  -11.8540 O.2    11  DA11       -0.5172
    207  OP2       -2.4950   -1.1640   -9.8760 O.3    11  DA11       -0.4373
    208  O5'       -4.9000   -1.4110   -9.5070 O.3    11  DA11       -0.3114
    209  C5'       -6.2500   -1.2200   -9.9190 C.3    11  DA11        0.1811
    210  C4'       -7.1330   -0.6820   -8.8110 C.3    11  DA11        0.1746
    211  O4'       -6.8550   -1.3690   -7.5630 O.3    11  DA11       -0.3327
    212  C3'       -7.0150    0.8040   -8.4830 C.3    11  DA11        0.1558
    213  O3'       -7.8560    1.5820   -9.3210 O.3    11  DA11       -0.3138
    214  C2'       -7.4040    0.8730   -7.0110 C.3    11  DA11        0.0865
    215  C1'       -6.9310   -0.4770   -6.4730 C.3    11  DA11        0.2094
    216  N9        -5.6060   -0.4220   -5.8430 N.ar   11  DA11       -0.2714
    217  C8        -4.3520   -0.6930   -6.3250 C.ar   11  DA11        0.1815
    218  N7        -3.3860   -0.3680   -5.4990 N.ar   11  DA11       -0.2193
    219  C5        -4.0500    0.1530   -4.4000 C.ar   11  DA11        0.1518
    220  C6        -3.5910    0.6770   -3.1780 C.ar   11  DA11        0.1919
    221  N6        -2.3000    0.7640   -2.8490 N.pl3  11  DA11       -0.1054
    222  N1        -4.5160    1.1130   -2.2970 N.ar   11  DA11       -0.2040
    223  C2        -5.8100    1.0250   -2.6280 C.ar   11  DA11        0.2016
    224  N3        -6.3630    0.5520   -3.7420 N.ar   11  DA11       -0.2048
    225  C4        -5.4170    0.1270   -4.5970 C.ar   11  DA11        0.1691
    226  P         -7.9700    3.0420   -9.2860 P.3    12  DG12        0.2141
    227  OP1       -8.9950    3.6190  -10.1870 O.2    12  DG12       -0.5172
    228  OP2       -6.5300    3.2710   -9.5460 O.3    12  DG12       -0.4373
    229  O5'       -8.2470    3.5020   -7.7800 O.3    12  DG12       -0.3114
    230  C5'       -9.5600    3.6290   -7.2460 C.3    12  DG12        0.1811
    231  C4'       -9.4860    4.1570   -5.8220 C.3    12  DG12        0.1746
    232  O4'       -8.8420    3.1750   -4.9610 O.3    12  DG12       -0.3327
    233  C3'       -8.6650    5.4330   -5.6480 C.3    12  DG12        0.1558
    234  O3'       -9.4420    6.6070   -5.8830 O.3    12  DG12       -0.3138
    235  C2'       -8.2050    5.3380   -4.2030 C.3    12  DG12        0.0865
    236  C1'       -7.9620    3.8380   -4.0630 C.3    12  DG12        0.2094
    237  N9        -6.5650    3.5040   -4.3780 N.ar   12  DG12       -0.2713
    238  C8        -6.1030    2.8580   -5.4990 C.ar   12  DG12        0.1816
    239  N7        -4.8110    2.6800   -5.4950 N.ar   12  DG12       -0.2173
    240  C5        -4.3910    3.2380   -4.3020 C.ar   12  DG12        0.1748
    241  C6        -3.0930    3.3490   -3.7410 C.ar   12  DG12        0.3023
    242  O6        -2.0180    2.9570   -4.2130 O.2    12  DG12       -0.2633
    243  N1        -3.1130    3.9910   -2.5060 N.ar   12  DG12       -0.1709
    244  C2        -4.2440    4.4670   -1.8870 C.ar   12  DG12        0.2606
    245  N2        -4.0630    5.0560   -0.6970 N.pl3  12  DG12       -0.0859
    246  N3        -5.4560    4.3720   -2.3960 N.ar   12  DG12       -0.1918
    247  C4        -5.4610    3.7530   -3.5960 C.ar   12  DG12        0.1722
    248  P         -8.8070    7.9320   -6.6600 P.3    13  DG13        0.2141
    249  OP1       -8.9380    9.3990   -6.8750 O.3    13  DG13       -0.4373
    250  OP2       -8.0320    7.1090   -7.6230 O.2    13  DG13       -0.5172
    251  O5'       -8.2070    7.6570   -5.2060 O.3    13  DG13       -0.3114
    252  C5'       -8.8460    8.1900   -4.0170 C.3    13  DG13        0.1811
    253  C4'       -7.8460    8.9760   -3.1980 C.3    13  DG13        0.1746
    254  O4'       -6.8750    8.0810   -2.6160 O.3    13  DG13       -0.3327
    255  C3'       -7.0640    9.9910   -4.0130 C.3    13  DG13        0.1558
    256  O3'       -7.7110   11.2440   -3.8840 O.3    13  DG13       -0.3138
    257  C2'       -5.6970   10.0280   -3.3520 C.3    13  DG13        0.0865
    258  C1'       -5.5800    8.6160   -2.7690 C.3    13  DG13        0.2094
    259  N9        -4.7580    7.6660   -3.4120 N.ar   13  DG13       -0.2713
    260  C8        -4.9640    7.1240   -4.6580 C.ar   13  DG13        0.1816
    261  N7        -3.8630    6.7210   -5.2320 N.ar   13  DG13       -0.2173
    262  C5        -2.8710    7.0110   -4.3140 C.ar   13  DG13        0.1748
    263  C6        -1.4690    6.8050   -4.3740 C.ar   13  DG13        0.3023
    264  O6        -0.8060    6.3040   -5.2910 O.2    13  DG13       -0.2633
    265  N1        -0.8280    7.2480   -3.2200 N.ar   13  DG13       -0.1709
    266  C2        -1.4600    7.8180   -2.1410 C.ar   13  DG13        0.2606
    267  N2        -0.6730    8.1810   -1.1190 N.pl3  13  DG13       -0.0859
    268  N3        -2.7610    8.0170   -2.0710 N.ar   13  DG13       -0.1918
    269  C4        -3.4040    7.5950   -3.1810 C.ar   13  DG13        0.1722
    270  P         -7.2320   12.3310   -4.6880 P.3    14  DT14        0.2141
    271  OP1       -7.0940   13.8020   -4.7310 O.3    14  DT14       -0.4373
    272  OP2       -7.0490   11.5770   -5.9490 O.2    14  DT14       -0.5172
    273  O5'       -6.1380   11.7190   -3.6930 O.3    14  DT14       -0.3114
    274  C5'       -5.9430   12.2980   -2.4090 C.3    14  DT14        0.1811
    275  C4'       -4.6880   13.1320   -2.3280 C.3    14  DT14        0.1746
    276  O4'       -3.5520   12.2480   -2.1240 O.3    14  DT14       -0.3327
    277  C3'       -4.3920   13.9830   -3.5640 C.3    14  DT14        0.1558
    278  O3'       -4.2950   15.3780   -3.2970 O.3    14  DT14       -0.3138
    279  C2'       -3.0420   13.5020   -4.0720 C.3    14  DT14        0.0866
    280  C1'       -2.4850   12.6080   -2.9750 C.3    14  DT14        0.2106
    281  N1        -2.1030   11.2770   -3.7770 N.ar   14  DT14       -0.2559
    282  C2        -0.7550   11.0030   -3.9130 C.ar   14  DT14        0.3545
    283  O2         0.0840   11.3830   -3.1160 O.2    14  DT14       -0.2443
    284  N3        -0.4210   10.2650   -5.0230 N.ar   14  DT14       -0.1533
    285  C4        -1.2800    9.7840   -5.9890 C.ar   14  DT14        0.2804
    286  O4        -0.8310    9.1340   -6.9290 O.2    14  DT14       -0.2654
    287  C5        -2.6630   10.1110   -5.7770 C.ar   14  DT14        0.0534
    288  C6        -3.0150   10.8270   -4.7070 C.ar   14  DT14        0.0824
    289  C7        -3.6770    9.6330   -6.7740 C.3    14  DT14        0.0377
    290  P         -4.6780   16.2170   -4.4610 P.3    15  DC15        0.2141
    291  OP1       -4.5840   17.6200   -3.9730 O.3    15  DC15       -0.4373
    292  OP2       -5.9100   15.7560   -5.1500 O.2    15  DC15       -0.5172
    293  O5'       -3.4210   15.9490   -5.3940 O.3    15  DC15       -0.3114
    294  C5'       -2.1790   16.5580   -5.0990 C.3    15  DC15        0.1811
    295  C4'       -1.2690   16.4600   -6.2840 C.3    15  DC15        0.1746
    296  O4'       -0.8160   15.0860   -6.4210 O.3    15  DC15       -0.3327
    297  C3'       -1.9310   16.7440   -7.6170 C.3    15  DC15        0.1558
    298  O3'       -2.1550   18.1110   -7.8960 O.3    15  DC15       -0.3138
    299  C2'       -1.0060   16.0300   -8.5870 C.3    15  DC15        0.0866
    300  C1'       -0.7130   14.7500   -7.8010 C.3    15  DC15        0.2106
    301  N1        -1.8030   13.7260   -8.0910 N.ar   15  DC15       -0.2556
    302  C2        -1.6400   12.9380   -9.2360 C.ar   15  DC15        0.3531
    303  O2        -0.6710   13.1610   -9.9820 O.2    15  DC15       -0.2443
    304  N3        -2.5400   11.9600   -9.4970 N.ar   15  DC15       -0.1739
    305  C4        -3.5640   11.7570   -8.6670 C.ar   15  DC15        0.1759
    306  N4        -4.4260   10.7820   -8.9650 N.pl3  15  DC15       -0.1070
    307  C5        -3.7470   12.5450   -7.5020 C.ar   15  DC15        0.0566
    308  C6        -2.8560   13.5100   -7.2480 C.ar   15  DC15        0.0849
    309  P         -3.4600   18.5230   -8.6240 P.3    16  DA16        0.2141
    310  OP1       -3.3670   19.9650   -8.3120 O.2    16  DA16       -0.5172
    311  OP2       -4.6530   17.7520   -8.1850 O.3    16  DA16       -0.4373
    312  O5'       -3.2750   18.3280  -10.1960 O.3    16  DA16       -0.3114
    313  C5'       -2.2350   19.0230  -10.9070 C.3    16  DA16        0.1811
    314  C4'       -2.0800   18.4580  -12.2990 C.3    16  DA16        0.1746
    315  O4'       -1.6660   17.0660  -12.2220 O.3    16  DA16       -0.3327
    316  C3'       -3.3470   18.4120  -13.1340 C.3    16  DA16        0.1558
    317  O3'       -3.6350   19.6600  -13.7360 O.3    16  DA16       -0.3138
    318  C2'       -3.0090   17.3420  -14.1570 C.3    16  DA16        0.0865
    319  C1'       -2.2620   16.3330  -13.2830 C.3    16  DA16        0.2094
    320  N9        -3.1440   15.3370  -12.6950 N.ar   16  DA16       -0.2714
    321  C8        -3.6870   15.2830  -11.4370 C.ar   16  DA16        0.1815
    322  N7        -4.5000   14.2700  -11.2550 N.ar   16  DA16       -0.2193
    323  C5        -4.4910   13.6140  -12.4750 C.ar   16  DA16        0.1518
    324  C6        -5.1510   12.4590  -12.9330 C.ar   16  DA16        0.1919
    325  N6        -5.9800   11.7330  -12.1800 N.pl3  16  DA16       -0.1054
    326  N1        -4.9250   12.0730  -14.2070 N.ar   16  DA16       -0.2040
    327  C2        -4.0930   12.8010  -14.9610 C.ar   16  DA16        0.2016
    328  N3        -3.4160   13.9010  -14.6440 N.ar   16  DA16       -0.2048
    329  C4        -3.6620   14.2600  -13.3720 C.ar   16  DA16        0.1691
    330  P         -5.0660   20.0600  -13.8370 P.3    17  DG17        0.2141
    331  OP1       -5.2440   21.4860  -14.2340 O.2    17  DG17       -0.5172
    332  OP2       -6.0300   19.4210  -12.8890 O.3    17  DG17       -0.4373
    333  O5'       -4.9830   19.2020  -15.1800 O.3    17  DG17       -0.3114
    334  C5'       -4.0900   19.5750  -16.2360 C.3    17  DG17        0.1811
    335  C4'       -4.2640   18.6620  -17.4220 C.3    17  DG17        0.1746
    336  O4'       -4.0620   17.2950  -16.9900 O.3    17  DG17       -0.3327
    337  C3'       -5.6520   18.6670  -18.0310 C.3    17  DG17        0.1558
    338  O3'       -5.7810   19.6440  -19.0480 O.3    17  DG17       -0.3138
    339  C2'       -5.7780   17.2800  -18.6340 C.3    17  DG17        0.0865
    340  C1'       -4.9740   16.4400  -17.6510 C.3    17  DG17        0.2094
    341  N9        -5.8630   15.8510  -16.6160 N.ar   17  DG17       -0.2713
    342  C8        -6.2790   16.3560  -15.4080 C.ar   17  DG17        0.1816
    343  N7        -7.2230   15.6480  -14.8510 N.ar   17  DG17       -0.2173
    344  C5        -7.4450   14.6120  -15.7390 C.ar   17  DG17        0.1748
    345  C6        -8.3540   13.5250  -15.6810 C.ar   17  DG17        0.3023
    346  O6        -9.1730   13.2580  -14.7920 O.2    17  DG17       -0.2633
    347  N1        -8.2530   12.7010  -16.7980 N.ar   17  DG17       -0.1709
    348  C2        -7.3820   12.9000  -17.8430 C.ar   17  DG17        0.2606
    349  N2        -7.4290   11.9970  -18.8320 N.pl3  17  DG17       -0.0859
    350  N3        -6.5320   13.9060  -17.9110 N.ar   17  DG17       -0.1918
    351  C4        -6.6130   14.7190  -16.8370 C.ar   17  DG17        0.1722
    352  P         -7.3450   20.0500  -19.5950 P.3    18  DA18        0.2141
    353  OP1       -7.0610   21.2090  -20.4710 O.2    18  DA18       -0.5172
    354  OP2       -8.1250   20.2380  -18.3520 O.3    18  DA18       -0.4373
    355  O5'       -8.0720   18.9150  -20.4570 O.3    18  DA18       -0.3114
    356  C5'       -7.6860   18.6830  -21.8030 C.3    18  DA18        0.1811
    357  C4'       -8.2820   17.3870  -22.3230 C.3    18  DA18        0.1746
    358  O4'       -7.8790   16.2790  -21.4770 O.3    18  DA18       -0.3327
    359  C3'       -9.8010   17.3080  -22.3030 C.3    18  DA18        0.1558
    360  O3'      -10.3600   17.9990  -23.4130 O.3    18  DA18       -0.3138
    361  C2'       -9.9700   15.8020  -22.4380 C.3    18  DA18        0.0865
    362  C1'       -8.9370   15.3340  -21.4180 C.3    18  DA18        0.2094
    363  N9        -9.5030   15.3500  -20.0430 N.ar   18  DA18       -0.2714
    364  C8        -9.4020   16.3500  -19.1110 C.ar   18  DA18        0.1815
    365  N7        -9.9460   16.0510  -17.9550 N.ar   18  DA18       -0.2193
    366  C5       -10.4380   14.7690  -18.1410 C.ar   18  DA18        0.1518
    367  C6       -11.1260   13.8870  -17.2890 C.ar   18  DA18        0.1919
    368  N6       -11.4480   14.1790  -16.0270 N.pl3  18  DA18       -0.1054
    369  N1       -11.4750   12.6810  -17.7850 N.ar   18  DA18       -0.2040
    370  C2       -11.1500   12.3890  -19.0500 C.ar   18  DA18        0.2016
    371  N3       -10.5060   13.1330  -19.9460 N.ar   18  DA18       -0.2048
    372  C4       -10.1740   14.3240  -19.4220 C.ar   18  DA18        0.1691
    373  P        -11.6130   18.5900  -23.2280 P.3    19  DT19        0.2141
    374  OP1      -11.8940   18.9950  -24.6160 O.2    19  DT19       -0.5172
    375  OP2      -12.2150   19.3220  -22.0870 O.3    19  DT19       -0.4373
    376  O5'      -12.0680   17.0930  -23.0320 O.3    19  DT19       -0.3114
    377  C5'      -11.8820   16.1590  -24.0630 C.3    19  DT19        0.1811
    378  C4'      -12.9800   15.1450  -24.0200 C.3    19  DT19        0.1746
    379  O4'      -12.7390   14.3070  -22.8680 O.3    19  DT19       -0.3327
    380  C3'      -14.4070   15.6770  -23.9000 C.3    19  DT19        0.1558
    381  O3'      -14.9170   15.9840  -25.2400 O.3    19  DT19       -0.3138
    382  C2'      -15.0830   14.5310  -23.1470 C.3    19  DT19        0.0866
    383  C1'      -13.9570   13.9890  -22.2480 C.3    19  DT19        0.2106
    384  N1       -13.9880   14.6430  -20.8480 N.ar   19  DT19       -0.2559
    385  C2       -14.8500   14.0500  -19.9450 C.ar   19  DT19        0.3545
    386  O2       -15.4950   13.0490  -20.2010 O.2    19  DT19       -0.2443
    387  N3       -14.9310   14.6750  -18.7230 N.ar   19  DT19       -0.1533
    388  C4       -14.2520   15.8070  -18.3240 C.ar   19  DT19        0.2804
    389  O4       -14.4290   16.2510  -17.1920 O.2    19  DT19       -0.2654
    390  C5       -13.3780   16.3640  -19.3180 C.ar   19  DT19        0.0534
    391  C6       -13.2800   15.7770  -20.5140 C.ar   19  DT19        0.0824
    392  C7       -12.5950   17.5980  -18.9800 C.3    19  DT19        0.0377
    393  P        -16.4350   16.5870  -25.4610 P.3    20  DG20        0.2141
    394  OP1      -16.9300   16.8370  -26.8380 O.2    20  DG20       -0.5172
    395  OP2      -16.0650   17.6730  -24.5370 O.3    20  DG20       -0.4373
    396  O5'      -17.5950   15.7340  -24.7810 O.3    20  DG20       -0.3114
    397  C5'      -18.3060   14.7280  -25.5130 C.3    20  DG20        0.1811
    398  C4'      -19.1070   13.8890  -24.5360 C.3    20  DG20        0.1746
    399  O4'      -18.2490   13.3170  -23.4790 O.3    20  DG20       -0.3327
    400  C3'      -20.1650   14.6520  -23.7650 C.3    20  DG20        0.1558
    401  O3'      -21.3140   14.7900  -24.5720 O.3    20  DG20       -0.3138
    402  C2'      -20.3980   13.6700  -22.6340 C.3    20  DG20        0.0865
    403  C1'      -18.9740   13.2540  -22.2530 C.3    20  DG20        0.2094
    404  N9       -18.4360   14.2270  -21.2950 N.ar   20  DG20       -0.2713
    405  C8       -17.4740   15.1800  -21.5240 C.ar   20  DG20        0.1816
    406  N7       -17.2310   15.9280  -20.4820 N.ar   20  DG20       -0.2173
    407  C5       -18.0800   15.4430  -19.5050 C.ar   20  DG20        0.1748
    408  C6       -18.2730   15.8540  -18.1610 C.ar   20  DG20        0.3023
    409  O6       -17.7020   16.7660  -17.5500 O.2    20  DG20       -0.2633
    410  N1       -19.2390   15.0870  -17.5160 N.ar   20  DG20       -0.1709
    411  C2       -19.9340   14.0520  -18.0940 C.ar   20  DG20        0.2606
    412  N2       -20.8260   13.4300  -17.3110 N.pl3  20  DG20       -0.0859
    413  N3       -19.7670   13.6600  -19.3410 N.ar   20  DG20       -0.1918
    414  C4       -18.8340   14.3900  -19.9880 C.ar   20  DG20        0.1722
    415  P        -22.2740   15.8230  -24.2620 P.3    21  DC21        0.2141
    416  OP1      -23.4720   15.9680  -25.1150 O.2    21  DC21       -0.5172
    417  OP2      -21.7090   17.0250  -23.6120 O.3    21  DC21       -0.4373
    418  O5'      -22.6300   14.8190  -23.0630 O.3    21  DC21       -0.3114
    419  C5'      -23.8190   14.0280  -23.1520 C.3    21  DC21        0.1811
    420  C4'      -24.6010   13.8170  -21.8610 C.3    21  DC21        0.1746
    421  O4'      -23.6960   13.5550  -20.7470 O.3    21  DC21       -0.3327
    422  C3'      -25.4900   14.9700  -21.4000 C.3    21  DC21        0.1558
    423  O3'      -26.8640   14.8270  -21.7290 O.3    21  DC21       -0.3138
    424  C2'      -25.3660   14.9930  -19.8790 C.3    21  DC21        0.0866
    425  C1'      -24.0710   14.2620  -19.5800 C.3    21  DC21        0.2106
    426  N1       -23.1320   15.3030  -19.3090 N.ar   21  DC21       -0.2556
    427  C2       -23.0680   15.7470  -17.9830 C.ar   21  DC21        0.3531
    428  O2       -23.7430   15.1580  -17.1220 O.2    21  DC21       -0.2443
    429  N3       -22.2750   16.8020  -17.6790 N.ar   21  DC21       -0.1739
    430  C4       -21.5690   17.4050  -18.6370 C.ar   21  DC21        0.1759
    431  N4       -20.8010   18.4400  -18.2900 N.pl3  21  DC21       -0.1070
    432  C5       -21.6200   16.9700  -19.9860 C.ar   21  DC21        0.0566
    433  C6       -22.4050   15.9280  -20.2820 C.ar   21  DC21        0.0849
    434  P        -27.3250   16.1360  -22.1480 P.3    22  DG22        0.2141
    435  OP1      -28.4530   15.3160  -22.6530 O.3    22  DG22       -0.4373
    436  OP2      -26.7400   17.2040  -22.9950 O.2    22  DG22       -0.5172
    437  O5'      -27.8010   16.7380  -20.7560 O.3    22  DG22       -0.3114
    438  C5'      -28.8080   16.0740  -20.0390 C.3    22  DG22        0.1811
    439  C4'      -28.6050   16.2490  -18.5530 C.3    22  DG22        0.1746
    440  O4'      -27.2230   15.9790  -18.1510 O.3    22  DG22       -0.3327
    441  C3'      -28.8380   17.6600  -18.0380 C.3    22  DG22        0.1558
    442  O3'      -30.1860   18.0120  -17.9000 O.3    22  DG22       -0.3138
    443  C2'      -28.2370   17.4690  -16.6680 C.3    22  DG22        0.0865
    444  C1'      -26.8990   16.8430  -17.0610 C.3    22  DG22        0.2094
    445  N9       -25.8730   17.8410  -17.3220 N.ar   22  DG22       -0.2713
    446  C8       -25.1630   17.7830  -18.4970 C.ar   22  DG22        0.1816
    447  N7       -24.1230   18.5720  -18.5110 N.ar   22  DG22       -0.2173
    448  C5       -24.1430   19.1880  -17.2740 C.ar   22  DG22        0.1748
    449  C6       -23.2680   20.1500  -16.7070 C.ar   22  DG22        0.3023
    450  O6       -22.2630   20.6630  -17.2130 O.2    22  DG22       -0.2633
    451  N1       -23.6560   20.5110  -15.4190 N.ar   22  DG22       -0.1709
    452  C2       -24.7510   20.0080  -14.7590 C.ar   22  DG22        0.2606
    453  N2       -24.9630   20.4770  -13.5220 N.pl3  22  DG22       -0.0859
    454  N3       -25.5730   19.1140  -15.2730 N.ar   22  DG22       -0.1918
    455  C4       -25.2180   18.7490  -16.5230 C.ar   22  DG22        0.1722
    456  P        -30.6890   18.7400  -19.1210 P.3    23  DA23        0.2141
    457  OP1      -32.1450   18.5290  -18.8860 O.3    23  DA23       -0.4373
    458  OP2      -30.2190   19.2620  -20.4300 O.2    23  DA23       -0.5172
    459  O5'      -30.0240   19.6050  -17.9670 O.3    23  DA23       -0.3114
    460  C5'      -30.4740   19.4780  -16.6420 C.3    23  DA23        0.1811
    461  C4'      -30.0550   20.6730  -15.8550 C.3    23  DA23        0.1746
    462  O4'      -28.6430   20.5840  -15.6010 O.3    23  DA23       -0.3327
    463  C3'      -30.2280   21.9890  -16.5730 C.3    23  DA23        0.1558
    464  O3'      -31.5630   22.4570  -16.5060 O.3    23  DA23       -0.3138
    465  C2'      -29.1930   22.8760  -15.8900 C.3    23  DA23        0.0865
    466  C1'      -28.0700   21.8760  -15.6300 C.3    23  DA23        0.2094
    467  N9       -27.0650   21.8560  -16.6500 N.ar   23  DA23       -0.2714
    468  C8       -27.0480   21.1730  -17.8380 C.ar   23  DA23        0.1815
    469  N7       -26.0580   21.5120  -18.6300 N.ar   23  DA23       -0.2193
    470  C5       -25.3790   22.4840  -17.9130 C.ar   23  DA23        0.1518
    471  C6       -24.2320   23.2440  -18.2030 C.ar   23  DA23        0.1919
    472  N6       -23.5410   23.1360  -19.3400 N.pl3  23  DA23       -0.1054
    473  N1       -23.8160   24.1300  -17.2720 N.ar   23  DA23       -0.2040
    474  C2       -24.5090   24.2370  -16.1330 C.ar   23  DA23        0.2016
    475  N3       -25.6000   23.5790  -15.7470 N.ar   23  DA23       -0.2048
    476  C4       -25.9880   22.7070  -16.6930 C.ar   23  DA23        0.1691
    477  P        -31.8850   23.8700  -17.2680 P.3    24  DT24        0.2141
    478  OP1      -33.2950   24.3150  -17.0720 O.3    24  DT24       -0.4373
    479  OP2      -31.4020   23.4950  -18.6320 O.2    24  DT24       -0.5172
    480  O5'      -30.9430   25.0030  -16.6550 O.3    24  DT24       -0.3114
    481  C5'      -31.1630   25.5040  -15.3310 C.3    24  DT24        0.1811
    482  C4'      -30.2000   26.6220  -15.0240 C.3    24  DT24        0.1746
    483  O4'      -28.8490   26.1360  -15.2090 O.3    24  DT24       -0.3327
    484  C3'      -30.3020   27.8220  -15.9440 C.3    24  DT24        0.1558
    485  O3'      -31.2230   28.7830  -15.4630 O.3    24  DT24       -0.3138
    486  C2'      -28.9000   28.4010  -15.9270 C.3    24  DT24        0.0866
    487  C1'      -28.0470   27.1470  -15.7880 C.3    24  DT24        0.2106
    488  N1       -27.4210   26.4410  -17.1070 N.ar   24  DT24       -0.2559
    489  C2       -26.1890   26.9600  -17.4550 C.ar   24  DT24        0.3545
    490  O2       -25.6230   27.8220  -16.8060 O.2    24  DT24       -0.2443
    491  N3       -25.6380   26.4340  -18.5990 N.ar   24  DT24       -0.1533
    492  C4       -26.1840   25.4610  -19.4100 C.ar   24  DT24        0.2804
    493  O4       -25.5690   25.0880  -20.4060 O.2    24  DT24       -0.2654
    494  C5       -27.4650   24.9730  -18.9820 C.ar   24  DT24        0.0534
    495  C6       -28.0230   25.4680  -17.8740 C.ar   24  DT24        0.0824
    496  C7       -28.1420   23.9130  -19.7990 C.3    24  DT24        0.0377
    497  P        -31.6410   29.9950  -16.4170 P.3    25  DC25        0.2141
    498  OP1      -33.0400   30.4230  -16.1740 O.3    25  DC25       -0.4373
    499  OP2      -31.2610   29.2590  -17.6480 O.2    25  DC25       -0.5172
    500  O5'      -30.6990   31.2840  -16.4430 O.3    25  DC25       -0.3114
    501  C5'      -30.4870   32.0330  -15.2570 C.3    25  DC25        0.1811
    502  C4'      -29.3460   32.9960  -15.4430 C.3    25  DC25        0.1746
    503  O4'      -28.0990   32.2580  -15.5320 O.3    25  DC25       -0.3327
    504  C3'      -29.3700   33.7830  -16.7410 C.3    25  DC25        0.1558
    505  O3'      -30.2880   34.8600  -16.7520 O.3    25  DC25       -0.3138
    506  C2'      -27.9160   34.1990  -16.8750 C.3    25  DC25        0.0866
    507  C1'      -27.2320   32.9020  -16.4440 C.3    25  DC25        0.2106
    508  N1       -26.9930   32.0120  -17.6470 N.ar   25  DC25       -0.2556
    509  C2       -25.9330   32.2920  -18.5170 C.ar   25  DC25        0.3531
    510  O2       -25.2580   33.3170  -18.3270 O.2    25  DC25       -0.2443
    511  N3       -25.6770   31.4400  -19.5390 N.ar   25  DC25       -0.1739
    512  C4       -26.4290   30.3520  -19.7050 C.ar   25  DC25        0.1759
    513  N4       -26.1380   29.5420  -20.7260 N.pl3  25  DC25       -0.1070
    514  C5       -27.5070   30.0510  -18.8340 C.ar   25  DC25        0.0566
    515  C6       -27.7570   30.8940  -17.8270 C.ar   25  DC25        0.0849
    516  P        -31.2860   34.9100  -17.8180 P.3    26  DT26        0.2141
    517  OP1      -32.0980   36.1260  -18.0540 O.2    26  DT26       -0.5172
    518  OP2      -31.9040   33.5680  -17.9190 O.3    26  DT26       -0.4373
    519  O5'      -30.0210   34.9710  -18.7990 O.3    26  DT26       -0.3114
    520  C5'      -29.3640   36.2210  -19.0380 C.3    26  DT26        0.1811
    521  C4'      -28.6910   36.2660  -20.4020 C.3    26  DT26        0.1746
    522  O4'      -27.8240   35.1250  -20.5720 O.3    26  DT26       -0.3327
    523  C3'      -29.6340   36.2280  -21.5930 C.3    26  DT26        0.1558
    524  O3'      -29.8600   37.5610  -22.0340 O.3    26  DT26       -0.3138
    525  C2'      -28.8940   35.4140  -22.6610 C.3    26  DT26        0.0866
    526  C1'      -27.6520   34.8890  -21.9500 C.3    26  DT26        0.2106
    527  N1       -27.3990   33.6020  -22.1410 N.ar   26  DT26       -0.2559
    528  C2       -26.9490   33.3240  -23.4170 C.ar   26  DT26        0.3545
    529  O2       -26.3150   34.1210  -24.0860 O.2    26  DT26       -0.2443
    530  N3       -27.2700   32.0730  -23.8870 N.ar   26  DT26       -0.1533
    531  C4       -27.9800   31.0940  -23.2230 C.ar   26  DT26        0.2804
    532  O4       -28.1880   30.0180  -23.7770 O.2    26  DT26       -0.2654
    533  C5       -28.4140   31.4590  -21.9040 C.ar   26  DT26        0.0534
    534  C6       -28.1150   32.6690  -21.4230 C.ar   26  DT26        0.0824
    535  C7       -29.1950   30.4620  -21.1010 C.3    26  DT26        0.0377
    536  P        -31.2170   38.6120  -21.9930 P.3    27  DG27        0.2141
    537  OP1      -31.2570   40.0910  -22.0600 O.2    27  DG27       -0.5172
    538  OP2      -32.3680   37.8760  -21.4060 O.3    27  DG27       -0.4373
    539  O5'      -30.9870   38.0910  -23.4800 O.3    27  DG27       -0.3114
    540  C5'      -32.0600   38.1230  -24.4370 C.3    27  DG27        0.1811
    541  C4'      -31.5130   38.0790  -25.8430 C.3    27  DG27        0.1746
    542  O4'      -30.6700   39.2380  -26.0530 O.3    27  DG27       -0.3327
    543  C3'      -30.6270   36.8860  -26.1710 C.3    27  DG27        0.1558
    544  O3'      -31.4030   35.7740  -26.5970 O.3    27  DG27       -0.3138
    545  C2'      -29.7360   37.4220  -27.2860 C.3    27  DG27        0.0865
    546  C1'      -29.5760   38.8840  -26.8770 C.3    27  DG27        0.2094
    547  N9       -28.3200   39.0860  -26.0790 N.ar   27  DG27       -0.2713
    548  C8       -28.2930   39.3340  -24.7280 C.ar   27  DG27        0.1816
    549  N7       -27.0920   39.5540  -24.2680 N.ar   27  DG27       -0.2173
    550  C5       -26.2750   39.4490  -25.3780 C.ar   27  DG27        0.1748
    551  C6       -24.8680   39.5850  -25.5060 C.ar   27  DG27        0.3023
    552  O6       -24.0400   39.8390  -24.6220 O.2    27  DG27       -0.2633
    553  N1       -24.4440   39.3970  -26.8180 N.ar   27  DG27       -0.1709
    554  C2       -25.2720   39.1120  -27.8770 C.ar   27  DG27        0.2606
    555  N2       -24.6780   38.9660  -29.0690 N.pl3  27  DG27       -0.0859
    556  N3       -26.5800   38.9820  -27.7740 N.ar   27  DG27       -0.1918
    557  C4       -27.0150   39.1590  -26.5090 C.ar   27  DG27        0.1722
    558  P        -31.0770   34.2780  -26.0420 P.3    28  DG28        0.2141
    559  OP1      -32.0350   33.2060  -26.4240 O.2    28  DG28       -0.5172
    560  OP2      -30.8610   34.5860  -24.5830 O.3    28  DG28       -0.4373
    561  O5'      -29.6910   33.9480  -26.7560 O.3    28  DG28       -0.3114
    562  C5'      -29.6500   33.8680  -28.1660 C.3    28  DG28        0.1811
    563  C4'      -28.2520   34.0520  -28.6720 C.3    28  DG28        0.1746
    564  O4'      -27.7770   35.3990  -28.4210 O.3    28  DG28       -0.3327
    565  C3'      -27.1850   33.1480  -28.0860 C.3    28  DG28        0.1558
    566  O3'      -27.2440   31.8470  -28.6580 O.3    28  DG28       -0.3138
    567  C2'      -25.9060   33.9170  -28.4250 C.3    28  DG28        0.0865
    568  C1'      -26.3660   35.3740  -28.2520 C.3    28  DG28        0.2094
    569  N9       -26.0420   35.8810  -26.9700 N.ar   28  DG28       -0.2713
    570  C8       -26.8820   36.0380  -25.8950 C.ar   28  DG28        0.1816
    571  N7       -26.2870   36.5350  -24.8450 N.ar   28  DG28       -0.2173
    572  C5       -24.9780   36.7190  -25.2470 C.ar   28  DG28        0.1748
    573  C6       -23.8570   37.2270  -24.5400 C.ar   28  DG28        0.3023
    574  O6       -23.8080   37.6300  -23.3710 O.2    28  DG28       -0.2633
    575  N1       -22.7090   37.2420  -25.3260 N.ar   28  DG28       -0.1709
    576  C2       -22.6470   36.8210  -26.6330 C.ar   28  DG28        0.2606
    577  N2       -21.4500   36.9130  -27.2270 N.pl3  28  DG28       -0.0859
    578  N3       -23.6790   36.3460  -27.3020 N.ar   28  DG28       -0.1918
    579  C4       -24.8050   36.3210  -26.5590 C.ar   28  DG28        0.1722
    580  P        -26.2970   30.5270  -27.9830 P.3    29  DA29        0.2141
    581  OP1      -26.8220   29.4110  -28.7940 O.2    29  DA29       -0.5172
    582  OP2      -26.3750   30.4380  -26.4980 O.3    29  DA29       -0.4373
    583  O5'      -24.8000   30.8490  -28.4390 O.3    29  DA29       -0.3114
    584  C5'      -23.6900   30.6980  -27.5560 C.3    29  DA29        0.1811
    585  C4'      -22.5160   31.5670  -27.9900 C.3    29  DA29        0.1746
    586  O4'      -22.8740   32.9740  -27.9780 O.3    29  DA29       -0.3327
    587  C3'      -21.3440   31.4330  -27.0290 C.3    29  DA29        0.1558
    588  O3'      -20.4760   30.4300  -27.4930 O.3    29  DA29       -0.3138
    589  C2'      -20.7040   32.8120  -27.0250 C.3    29  DA29        0.0865
    590  C1'      -21.9420   33.6980  -27.1890 C.3    29  DA29        0.2094
    591  N9       -22.5570   33.8950  -25.8760 N.ar   29  DA29       -0.2714
    592  C8       -23.7490   33.3910  -25.4230 C.ar   29  DA29        0.1815
    593  N7       -24.0070   33.6880  -24.1710 N.ar   29  DA29       -0.2193
    594  C5       -22.9100   34.4370  -23.7750 C.ar   29  DA29        0.1518
    595  C6       -22.5760   35.0520  -22.5550 C.ar   29  DA29        0.1919
    596  N6       -23.3490   35.0070  -21.4680 N.pl3  29  DA29       -0.1054
    597  N1       -21.4060   35.7230  -22.4920 N.ar   29  DA29       -0.2040
    598  C2       -20.6320   35.7680  -23.5830 C.ar   29  DA29        0.2016
    599  N3       -20.8380   35.2310  -24.7830 N.ar   29  DA29       -0.2048
    600  C4       -22.0080   34.5710  -24.8130 C.ar   29  DA29        0.1691
    601  P        -20.2150   28.5410  -26.7310 P.3    30  DT30        0.2141
    602  OP1      -19.4660   27.9770  -27.8750 O.2    30  DT30       -0.5172
    603  OP2      -21.3160   27.7670  -26.1200 O.3    30  DT30       -0.4373
    604  O5'      -19.1670   28.9330  -25.5870 O.3    30  DT30       -0.3114
    605  C5'      -17.9080   29.4850  -25.9480 C.3    30  DT30        0.1811
    606  C4'      -17.5510   30.6350  -25.0290 C.3    30  DT30        0.1746
    607  O4'      -18.7480   31.4050  -24.7620 O.3    30  DT30       -0.3327
    608  C3'      -17.0750   30.2580  -23.6360 C.3    30  DT30        0.1558
    609  O3'      -15.7070   29.8710  -23.6450 O.3    30  DT30       -0.3138
    610  C2'      -17.2760   31.5920  -22.9250 C.3    30  DT30        0.0866
    611  C1'      -18.6280   32.0190  -23.4920 C.3    30  DT30        0.2106
    612  N1       -19.6890   31.6320  -22.6150 N.ar   30  DT30       -0.2559
    613  C2       -19.9630   32.2830  -21.4270 C.ar   30  DT30        0.3545
    614  O2       -19.2050   33.0910  -20.9220 O.2    30  DT30       -0.2443
    615  N3       -21.1640   31.9520  -20.8470 N.ar   30  DT30       -0.1533
    616  C4       -22.0970   31.0550  -21.3250 C.ar   30  DT30        0.2804
    617  O4       -23.1320   30.8630  -20.6910 O.2    30  DT30       -0.2654
    618  C5       -21.7390   30.4200  -22.5620 C.ar   30  DT30        0.0534
    619  C6       -20.5770   30.7230  -23.1470 C.ar   30  DT30        0.0824
    620  C7       -22.6890   29.4270  -23.1630 C.3    30  DT30        0.0377
    621  P        -15.1660   28.6280  -22.6300 P.3    31  DA31        0.2141
    622  OP1      -13.8320   28.0380  -22.8810 O.2    31  DA31       -0.5172
    623  OP2      -16.2170   27.7730  -22.0340 O.3    31  DA31       -0.4373
    624  O5'      -15.0220   29.9490  -21.7360 O.3    31  DA31       -0.3114
    625  C5'      -14.8340   29.8000  -20.3470 C.3    31  DA31        0.1811
    626  C4'      -15.9700   30.3860  -19.5250 C.3    31  DA31        0.1746
    627  O4'      -17.2200   30.5020  -20.2490 O.3    31  DA31       -0.3327
    628  C3'      -16.4190   29.5460  -18.3420 C.3    31  DA31        0.1558
    629  O3'      -15.4060   29.4340  -17.3620 O.3    31  DA31       -0.3138
    630  C2'      -17.6560   30.3420  -17.9270 C.3    31  DA31        0.0865
    631  C1'      -18.2900   30.4140  -19.3130 C.3    31  DA31        0.2094
    632  N9       -19.1320   29.2030  -19.7500 N.ar   31  DA31       -0.2714
    633  C8       -19.0830   28.6090  -20.9840 C.ar   31  DA31        0.1815
    634  N7       -20.0900   27.8020  -21.2240 N.ar   31  DA31       -0.2193
    635  C5       -20.8510   27.8700  -20.0680 C.ar   31  DA31        0.1518
    636  C6       -22.0530   27.2460  -19.6890 C.ar   31  DA31        0.1919
    637  N6       -22.7230   26.3960  -20.4700 N.pl3  31  DA31       -0.1054
    638  N1       -22.5470   27.5300  -18.4650 N.ar   31  DA31       -0.2040
    639  C2       -21.8750   28.3830  -17.6830 C.ar   31  DA31        0.2016
    640  N3       -20.7390   29.0320  -17.9280 N.ar   31  DA31       -0.2048
    641  C4       -20.2740   28.7280  -19.1510 C.ar   31  DA31        0.1691
    642  P        -14.6440   28.0610  -17.2290 P.3    32  DT32        0.2141
    643  OP1      -13.2060   28.2130  -16.9020 O.3    32  DT32       -0.4373
    644  OP2      -15.0610   27.0520  -18.2520 O.2    32  DT32       -0.5172
    645  O5'      -15.4240   27.7420  -15.8790 O.3    32  DT32       -0.3114
    646  C5'      -15.7700   28.7870  -14.9790 C.3    32  DT32        0.1811
    647  C4'      -16.9860   28.4020  -14.1840 C.3    32  DT32        0.1746
    648  O4'      -18.2080   28.5710  -14.9520 O.3    32  DT32       -0.3327
    649  C3'      -17.0070   26.9500  -13.7720 C.3    32  DT32        0.1558
    650  O3'      -16.1550   26.7200  -12.6660 O.3    32  DT32       -0.3138
    651  C2'      -18.4820   26.7020  -13.4940 C.3    32  DT32        0.0866
    652  C1'      -19.1580   27.5940  -14.5500 C.3    32  DT32        0.2106
    653  N1       -19.5990   26.8670  -15.7170 N.ar   32  DT32       -0.2559
    654  C2       -20.8640   26.3120  -15.6930 C.ar   32  DT32        0.3545
    655  O2       -21.6320   26.4490  -14.7570 O.2    32  DT32       -0.2443
    656  N3       -21.2000   25.5840  -16.8090 N.ar   32  DT32       -0.1533
    657  C4       -20.4160   25.3610  -17.9220 C.ar   32  DT32        0.2804
    658  O4       -20.8590   24.6850  -18.8480 O.2    32  DT32       -0.2654
    659  C5       -19.1170   25.9690  -17.8710 C.ar   32  DT32        0.0534
    660  C6       -18.7640   26.6820  -16.7980 C.ar   32  DT32        0.0824
    661  C7       -18.1890   25.7830  -19.0350 C.3    32  DT32        0.0377
    662  P        -15.8770   25.1730  -12.1330 P.3    33  DT33        0.2141
    663  OP1      -15.5250   24.0720  -11.1880 O.3    33  DT33       -0.4373
    664  OP2      -15.5510   25.0510  -13.5830 O.2    33  DT33       -0.5172
    665  O5'      -17.4320   25.5070  -12.0100 O.3    33  DT33       -0.3114
    666  C5'      -17.9360   26.2960  -10.9330 C.3    33  DT33        0.1811
    667  C4'      -19.3570   25.8980  -10.6170 C.3    33  DT33        0.1746
    668  O4'      -20.2040   26.1980  -11.7550 O.3    33  DT33       -0.3327
    669  C3'      -19.5390   24.4110  -10.3780 C.3    33  DT33        0.1558
    670  O3'      -19.2210   24.0710   -9.0350 O.3    33  DT33       -0.3138
    671  C2'      -20.9910   24.1840  -10.7720 C.3    33  DT33        0.0866
    672  C1'      -21.1310   25.1420  -11.9590 C.3    33  DT33        0.2106
    673  N1       -20.8310   24.4540  -13.2020 N.ar   33  DT33       -0.2559
    674  C2       -21.8950   23.8890  -13.8780 C.ar   33  DT33        0.3545
    675  O2       -23.0450   23.9540  -13.4810 O.2    33  DT33       -0.2443
    676  N3       -21.5650   23.2410  -15.0440 N.ar   33  DT33       -0.1533
    677  C4       -20.3050   23.1050  -15.5880 C.ar   33  DT33        0.2804
    678  O4       -20.1660   22.4940  -16.6460 O.2    33  DT33       -0.2654
    679  C5       -19.2530   23.7170  -14.8270 C.ar   33  DT33        0.0534
    680  C6       -19.5470   24.3540  -13.6900 C.ar   33  DT33        0.0824
    681  C7       -17.8450   23.6230  -15.3370 C.3    33  DT33        0.0377
    682  P        -18.2590   22.7720   -8.7310 P.3    34  DA34        0.2141
    683  OP1      -17.2520   22.9760   -7.6640 O.3    34  DA34       -0.4373
    684  OP2      -18.0670   21.6970   -9.7310 O.2    34  DA34       -0.5172
    685  O5'      -19.6720   22.4480   -8.0590 O.3    34  DA34       -0.3114
    686  C5'      -20.0450   21.1010   -7.8370 C.3    34  DA34        0.1811
    687  C4'      -21.4120   20.8220   -8.4020 C.3    34  DA34        0.1746
    688  O4'      -21.5550   21.5050   -9.6700 O.3    34  DA34       -0.3327
    689  C3'      -21.6840   19.3750   -8.7620 C.3    34  DA34        0.1558
    690  O3'      -21.9860   18.5690   -7.6450 O.3    34  DA34       -0.3138
    691  C2'      -22.8110   19.5080   -9.7720 C.3    34  DA34        0.0865
    692  C1'      -22.2990   20.7040  -10.5640 C.3    34  DA34        0.2094
    693  N9       -21.5100   20.0890  -11.7230 N.ar   34  DA34       -0.2714
    694  C8       -20.5550   21.0020  -12.0850 C.ar   34  DA34        0.1815
    695  N7       -20.0920   20.8310  -13.3010 N.ar   34  DA34       -0.2193
    696  C5       -20.7910   19.7300  -13.7690 C.ar   34  DA34        0.1518
    697  C6       -20.7620   19.0420  -14.9950 C.ar   34  DA34        0.1919
    698  N6       -19.9680   19.3810  -16.0140 N.pl3  34  DA34       -0.1054
    699  N1       -21.5860   17.9820  -15.1390 N.ar   34  DA34       -0.2040
    700  C2       -22.3810   17.6440  -14.1180 C.ar   34  DA34        0.2016
    701  N3       -22.4990   18.2120  -12.9200 N.ar   34  DA34       -0.2048
    702  C4       -21.6670   19.2610  -12.8080 C.ar   34  DA34        0.1691
    703  P        -20.7810   17.5390   -7.1000 P.3    35  DT35        0.2141
    704  OP1      -21.3810   16.9510   -5.8790 O.3    35  DT35       -0.4373
    705  OP2      -19.3590   17.9850   -7.0820 O.2    35  DT35       -0.5172
    706  O5'      -21.0320   16.5350   -8.3110 O.3    35  DT35       -0.3114
    707  C5'      -22.2710   15.7960   -8.4060 C.3    35  DT35        0.1811
    708  C4'      -22.2720   14.9070   -9.6310 C.3    35  DT35        0.1746
    709  O4'      -22.3180   15.7300  -10.8270 O.3    35  DT35       -0.3327
    710  C3'      -21.0430   14.0250   -9.7940 C.3    35  DT35        0.1558
    711  O3'      -21.1760   12.7920   -9.0830 O.3    35  DT35       -0.3138
    712  C2'      -20.9700   13.8140  -11.3020 C.3    35  DT35        0.0866
    713  C1'      -21.5210   15.1390  -11.8400 C.3    35  DT35        0.2106
    714  N1       -20.4580   16.0950  -12.2330 N.ar   35  DT35       -0.2559
    715  C2       -19.8810   15.8810  -13.4700 C.ar   35  DT35        0.3545
    716  O2       -20.2590   15.0140  -14.2380 O.2    35  DT35       -0.2443
    717  N3       -18.8380   16.7210  -13.7780 N.ar   35  DT35       -0.1533
    718  C4       -18.3260   17.7320  -12.9910 C.ar   35  DT35        0.2804
    719  O4       -17.3860   18.4040  -13.4060 O.2    35  DT35       -0.2654
    720  C5       -18.9780   17.8910  -11.7220 C.ar   35  DT35        0.0534
    721  C6       -19.9940   17.0880  -11.3970 C.ar   35  DT35        0.0824
    722  C7       -18.4930   18.9640  -10.7930 C.3    35  DT35        0.0377
    723  P        -19.7700   11.7040   -8.8260 P.3    36  DT36        0.2141
    724  OP1      -19.9270   10.7180   -7.7340 O.3    36  DT36       -0.4373
    725  OP2      -18.7650   12.7850   -8.7180 O.2    36  DT36       -0.5172
    726  O5'      -19.3770   10.9350  -10.1730 O.3    36  DT36       -0.3114
    727  C5'      -20.1620    9.8370  -10.6050 C.3    36  DT36        0.1811
    728  C4'      -20.1470    9.6900  -12.1050 C.3    36  DT36        0.1746
    729  O4'      -20.2050   10.9940  -12.7360 O.3    36  DT36       -0.3327
    730  C3'      -18.9050    9.0550  -12.7040 C.3    36  DT36        0.1558
    731  O3'      -18.9200    7.6430  -12.6120 O.3    36  DT36       -0.3138
    732  C2'      -18.9460    9.5600  -14.1390 C.3    36  DT36        0.0866
    733  C1'      -19.4600   10.9850  -13.9390 C.3    36  DT36        0.2106
    734  N1       -18.3750   12.1160  -13.8880 N.ar   36  DT36       -0.2559
    735  C2       -17.7550   12.3760  -15.0960 C.ar   36  DT36        0.3545
    736  O2       -18.0150   11.7690  -16.1200 O.2    36  DT36       -0.2443
    737  N3       -16.8140   13.3760  -15.0620 N.ar   36  DT36       -0.1533
    738  C4       -16.4390   14.1260  -13.9670 C.ar   36  DT36        0.2804
    739  O4       -15.5770   14.9920  -14.0930 O.2    36  DT36       -0.2654
    740  C5       -17.1270   13.7960  -12.7510 C.ar   36  DT36        0.0534
    741  C6       -18.0470   12.8280  -12.7550 C.ar   36  DT36        0.0824
    742  C7       -16.7890   14.5560  -11.5030 C.3    36  DT36        0.0377
    743  P        -17.8180    6.9740  -12.1950 P.3    37  DT37        0.2141
    744  OP1      -18.0780    5.5290  -12.0730 O.2    37  DT37       -0.5172
    745  OP2      -16.5660    7.5210  -11.6280 O.3    37  DT37       -0.4373
    746  O5'      -17.9210    7.3770  -13.7240 O.3    37  DT37       -0.3114
    747  C5'      -18.2410    6.4650  -14.7030 C.3    37  DT37        0.1811
    748  C4'      -17.3460    6.7700  -15.8560 C.3    37  DT37        0.1746
    749  O4'      -17.2400    8.1950  -16.0420 O.3    37  DT37       -0.3327
    750  C3'      -15.9140    6.3970  -15.6250 C.3    37  DT37        0.1558
    751  O3'      -15.7520    4.9850  -15.6860 O.3    37  DT37       -0.3138
    752  C2'      -15.2420    7.1730  -16.7520 C.3    37  DT37        0.0866
    753  C1'      -16.0080    8.4760  -16.6800 C.3    37  DT37        0.2106
    754  N1       -15.3790    9.5270  -16.0260 N.ar   37  DT37       -0.2559
    755  C2       -14.5070   10.3540  -16.7090 C.ar   37  DT37        0.3545
    756  O2       -14.2960   10.2550  -17.9050 O.2    37  DT37       -0.2443
    757  N3       -13.8870   11.3070  -15.9380 N.ar   37  DT37       -0.1533
    758  C4       -14.0460   11.5110  -14.5840 C.ar   37  DT37        0.2804
    759  O4       -13.4200   12.4110  -14.0290 O.2    37  DT37       -0.2654
    760  C5       -14.9670   10.6120  -13.9460 C.ar   37  DT37        0.0534
    761  C6       -15.5840    9.6760  -14.6720 C.ar   37  DT37        0.0824
    762  C7       -15.2090   10.7530  -12.4720 C.3    37  DT37        0.0377
    763  P        -14.3780    4.2840  -15.0170 P.3    38  DT38        0.2141
    764  OP1      -14.6900    2.8420  -15.2280 O.2    38  DT38       -0.5172
    765  OP2      -14.1900    4.9090  -13.6740 O.3    38  DT38       -0.4373
    766  O5'      -13.1960    4.7150  -15.9700 O.3    38  DT38       -0.3114
    767  C5'      -13.3030    4.3240  -17.2790 C.3    38  DT38        0.1811
    768  C4'      -12.4590    5.2470  -18.1120 C.3    38  DT38        0.1746
    769  O4'      -12.8430    6.5690  -17.6790 O.3    38  DT38       -0.3327
    770  C3'      -10.9740    5.3350  -17.8370 C.3    38  DT38        0.1558
    771  O3'      -10.2330    4.2150  -18.2850 O.3    38  DT38       -0.3138
    772  C2'      -10.6440    6.6690  -18.5290 C.3    38  DT38        0.0866
    773  C1'      -11.8260    7.4800  -18.0640 C.3    38  DT38        0.2106
    774  N1       -11.4970    8.2840  -16.9960 N.ar   38  DT38       -0.2559
    775  C2       -10.6410    9.3690  -17.0010 C.ar   38  DT38        0.3545
    776  O2        -9.8810    9.6100  -17.9220 O.2    38  DT38       -0.2443
    777  N3       -10.7060   10.1660  -15.8840 N.ar   38  DT38       -0.1533
    778  C4       -11.5220    9.9910  -14.7860 C.ar   38  DT38        0.2804
    779  O4       -11.4670   10.7930  -13.8570 O.2    38  DT38       -0.2654
    780  C5       -12.3810    8.8420  -14.8550 C.ar   38  DT38        0.0534
    781  C6       -12.3380    8.0500  -15.9300 C.ar   38  DT38        0.0824
    782  C7       -13.3070    8.5650  -13.7080 C.3    38  DT38        0.0377
    783  P         -9.3800    3.6050  -17.2190 P.3    39  DT39        0.2141
    784  OP1       -9.2130    2.1510  -17.4660 O.2    39  DT39       -0.5172
    785  OP2       -9.7790    4.0760  -15.8690 O.3    39  DT39       -0.4373
    786  O5'       -8.0360    4.3520  -17.6420 O.3    39  DT39       -0.3114
    787  C5'       -7.6940    4.4910  -19.0210 C.3    39  DT39        0.1811
    788  C4'       -6.7290    5.6380  -19.2190 C.3    39  DT39        0.1746
    789  O4'       -7.3450    6.8890  -18.8140 O.3    39  DT39       -0.3327
    790  C3'       -5.4580    5.5790  -18.3930 C.3    39  DT39        0.1558
    791  O3'       -4.4990    4.7290  -19.0050 O.3    39  DT39       -0.3138
    792  C2'       -5.0080    7.0370  -18.3980 C.3    39  DT39        0.0866
    793  C1'       -6.3490    7.7740  -18.3250 C.3    39  DT39        0.2106
    794  N1        -6.6310    8.1850  -16.9820 N.ar   39  DT39       -0.2559
    795  C2        -5.9750    9.2970  -16.4910 C.ar   39  DT39        0.3545
    796  O2        -5.1450    9.9170  -17.1330 O.2    39  DT39       -0.2443
    797  N3        -6.3250    9.6610  -15.2130 N.ar   39  DT39       -0.1533
    798  C4        -7.2450    9.0380  -14.3960 C.ar   39  DT39        0.2804
    799  O4        -7.4540    9.4840  -13.2700 O.2    39  DT39       -0.2654
    800  C5        -7.8830    7.8910  -14.9770 C.ar   39  DT39        0.0534
    801  C6        -7.5610    7.5150  -16.2180 C.ar   39  DT39        0.0824
    802  C7        -8.9000    7.1440  -14.1660 C.3    39  DT39        0.0377
    803  P         -3.3630    4.0930  -18.1470 P.3    40  DG40        0.2141
    804  OP1       -2.9020    3.1590  -19.2040 O.2    40  DG40       -0.5172
    805  OP2       -3.8900    3.5590  -16.8660 O.3    40  DG40       -0.4373
    806  O5'       -2.1980    5.1260  -17.8350 O.3    40  DG40       -0.3114
    807  C5'       -1.7410    5.9820  -18.8630 C.3    40  DG40        0.1811
    808  C4'       -1.4190    7.3520  -18.3280 C.3    40  DG40        0.1746
    809  O4'       -2.5910    7.9930  -17.7520 O.3    40  DG40       -0.3327
    810  C3'       -0.4240    7.4610  -17.1990 C.3    40  DG40        0.1558
    811  O3'        0.8920    7.1990  -17.6040 O.3    40  DG40       -0.3138
    812  C2'       -0.6490    8.8860  -16.7400 C.3    40  DG40        0.0865
    813  C1'       -2.1690    8.9700  -16.8050 C.3    40  DG40        0.2094
    814  N9        -2.6530    8.6700  -15.4630 N.ar   40  DG40       -0.2713
    815  C8        -3.4980    7.6190  -15.2020 C.ar   40  DG40        0.1816
    816  N7        -4.0050    7.6520  -14.0000 N.ar   40  DG40       -0.2173
    817  C5        -3.4660    8.7910  -13.4320 C.ar   40  DG40        0.1748
    818  C6        -3.6440    9.3510  -12.1410 C.ar   40  DG40        0.3023
    819  O6        -4.3450    8.9290  -11.2120 O.2    40  DG40       -0.2633
    820  N1        -2.9070   10.5200  -11.9740 N.ar   40  DG40       -0.1709
    821  C2        -2.0980   11.0800  -12.9330 C.ar   40  DG40        0.2606
    822  N2        -1.4670   12.2110  -12.5880 N.pl3  40  DG40       -0.0859
    823  N3        -1.9220   10.5710  -14.1370 N.ar   40  DG40       -0.1918
    824  C4        -2.6270    9.4350  -14.3210 C.ar   40  DG40        0.1722
    825  P          1.3320    6.0920  -16.9580 P.3    41  DA41        0.2141
    826  OP1        2.4910    5.5280  -17.6850 O.2    41  DA41       -0.5172
    827  OP2        0.3630    5.2130  -16.2650 O.3    41  DA41       -0.4373
    828  O5'        1.9110    7.1610  -15.9250 O.3    41  DA41       -0.3114
    829  C5'        2.9970    7.9700  -16.3460 C.3    41  DA41        0.1811
    830  C4'        3.2510    9.0870  -15.3560 C.3    41  DA41        0.1747
    831  O4'        2.0150    9.6820  -14.8890 O.3    41  DA41       -0.3327
    832  C3'        3.9010    8.6130  -14.0740 C.3    41  DA41        0.1559
    833  O3'        5.2630    8.3690  -14.3420 O.3    41  DA41       -0.3138
    834  C2'        3.6440    9.8060  -13.1640 C.3    41  DA41        0.0843
    835  C1'        2.2180   10.1700  -13.5690 C.3    41  DA41        0.2095
    836  N9         1.2760    9.6920  -12.8840 N.ar   41  DA41       -0.2711
    837  C8         0.4400    8.7280  -13.3850 C.ar   41  DA41        0.1812
    838  N7        -0.4950    8.3500  -12.5460 N.ar   41  DA41       -0.2232
    839  C5        -0.2570    9.1180  -11.4170 C.ar   41  DA41        0.1366
    840  C6        -0.9020    9.1910  -10.1700 C.3    41  DA41        0.2487
    841  N6        -1.9640    8.4520   -9.8420 N.3    41  DA41       -0.0984
    842  N1        -0.4110   10.0610   -9.2610 N.2    41  DA41       -0.1656
    843  C2         0.6530   10.8020   -9.5910 C.1    41  DA41        0.2006
    844  N3         1.3430   10.8230  -10.7290 N.2    41  DA41       -0.1443
    845  C4         0.8310    9.9470  -11.6100 C.ar   41  DA41        0.1762
    846  P          5.8310    6.9880  -14.1030 P.3    42  DT42        0.2141
    847  OP1        6.8160    6.0440  -14.6980 O.2    42  DT42       -0.5172
    848  OP2        4.5710    6.4600  -13.5110 O.3    42  DT42       -0.4373
    849  O5'        6.5750    7.8760  -13.0010 O.3    42  DT42       -0.3114
    850  C5'        7.9420    8.2720  -13.1640 C.3    42  DT42        0.1811
    851  C4'        8.3810    9.1770  -12.0260 C.3    42  DT42        0.1746
    852  O4'        7.4860   10.3210  -11.9560 O.3    42  DT42       -0.3327
    853  C3'        8.3600    8.5880  -10.6200 C.3    42  DT42        0.1558
    854  O3'        9.5840    7.9080  -10.3360 O.3    42  DT42       -0.3138
    855  C2'        8.2240    9.8370   -9.7520 C.3    42  DT42        0.0866
    856  C1'        7.2920   10.6990  -10.6030 C.3    42  DT42        0.2106
    857  N1         5.8990   10.5860  -10.3220 N.ar   42  DT42       -0.2559
    858  C2         5.3900   11.3260   -9.2710 C.ar   42  DT42        0.3544
    859  O2         6.0820   12.0310   -8.5590 O.2    42  DT42       -0.2443
    860  N3         4.0340   11.2100   -9.0830 N.ar   42  DT42       -0.1561
    861  C4         3.1560   10.4460   -9.8220 C.ar   42  DT42        0.2435
    862  O4         1.9620   10.4450   -9.5320 O.3    42  DT42       -0.3720
    863  C5         3.7610    9.7060  -10.8940 C.ar   42  DT42        0.0499
    864  C6         5.0770    9.8010  -11.1000 C.ar   42  DT42        0.0823
    865  C7         2.8880    8.8430  -11.7570 C.3    42  DT42        0.0396
    866  P          9.6530    6.8210   -9.0660 P.3    43  DA43        0.2141
    867  OP1       10.8470    5.9940   -8.8200 O.3    43  DA43       -0.4373
    868  OP2        8.4660    6.2220   -9.7020 O.2    43  DA43       -0.5172
    869  O5'        9.1090    7.3890   -7.6760 O.3    43  DA43       -0.3114
    870  C5'       10.0140    7.6120   -6.6080 C.3    43  DA43        0.1811
    871  C4'        9.4110    8.5190   -5.5690 C.3    43  DA43        0.1746
    872  O4'        8.4710    9.4110   -6.2140 O.3    43  DA43       -0.3327
    873  C3'        8.5520    7.8590   -4.5060 C.3    43  DA43        0.1558
    874  O3'        9.2850    7.2040   -3.4940 O.3    43  DA43       -0.3138
    875  C2'        7.7140    9.0270   -4.0070 C.3    43  DA43        0.0865
    876  C1'        7.3960    9.6830   -5.3400 C.3    43  DA43        0.2094
    877  N9         6.1310    9.0910   -5.9110 N.ar   43  DA43       -0.2714
    878  C8         6.0860    8.4150   -7.1030 C.ar   43  DA43        0.1815
    879  N7         4.8710    8.2370   -7.5630 N.ar   43  DA43       -0.2193
    880  C5         4.0630    8.8350   -6.6090 C.ar   43  DA43        0.1518
    881  C6         2.6690    8.9870   -6.5110 C.ar   43  DA43        0.1919
    882  N6         1.8090    8.5290   -7.4240 N.pl3  43  DA43       -0.1054
    883  N1         2.1840    9.6340   -5.4300 N.ar   43  DA43       -0.2040
    884  C2         3.0460   10.0940   -4.5160 C.ar   43  DA43        0.2016
    885  N3         4.3750   10.0130   -4.4990 N.ar   43  DA43       -0.2048
    886  C4         4.8250    9.3640   -5.5850 C.ar   43  DA43        0.1691
    887  P          8.9250    5.6630   -3.2490 P.3    44  DC44        0.2141
    888  OP1       10.0630    5.0130   -2.5740 O.3    44  DC44       -0.4373
    889  OP2        8.2730    4.9980   -4.4050 O.2    44  DC44       -0.5172
    890  O5'        7.7630    5.9030   -2.1820 O.3    44  DC44       -0.3114
    891  C5'        8.0080    6.6090   -0.9670 C.3    44  DC44        0.1811
    892  C4'        6.7080    7.1040   -0.3690 C.3    44  DC44        0.1746
    893  O4'        6.0180    7.9080   -1.3610 O.3    44  DC44       -0.3327
    894  C3'        5.6630    6.0800    0.0710 C.3    44  DC44        0.1558
    895  O3'        5.9560    5.5620    1.3710 O.3    44  DC44       -0.3138
    896  C2'        4.3880    6.9190    0.0590 C.3    44  DC44        0.0866
    897  C1'        4.6210    7.8260   -1.1500 C.3    44  DC44        0.2106
    898  N1         3.9900    7.3200   -2.3070 N.ar   44  DC44       -0.2556
    899  C2         2.6410    7.6120   -2.5350 C.ar   44  DC44        0.3531
    900  O2         2.0510    8.3670   -1.7440 O.2    44  DC44       -0.2443
    901  N3         2.0190    7.0640   -3.6060 N.ar   44  DC44       -0.1739
    902  C4         2.6930    6.2580   -4.4280 C.ar   44  DC44        0.1759
    903  N4         2.0390    5.7420   -5.4710 N.pl3  44  DC44       -0.1070
    904  C5         4.0610    5.9500   -4.2150 C.ar   44  DC44        0.0566
    905  C6         4.6700    6.4930   -3.1550 C.ar   44  DC44        0.0849
    906  P          5.1630    4.2630    1.9780 P.3    45  DC45        0.2141
    907  OP1        5.7440    4.0190    3.3130 O.3    45  DC45       -0.4373
    908  OP2        5.1920    3.1710    0.9640 O.2    45  DC45       -0.5172
    909  O5'        3.6730    4.7290    2.2800 O.3    45  DC45       -0.3114
    910  C5'        3.4330    5.6280    3.3310 C.3    45  DC45        0.1811
    911  C4'        2.0330    6.1720    3.2540 C.3    45  DC45        0.1746
    912  O4'        1.8040    6.8060    1.9630 O.3    45  DC45       -0.3327
    913  C3'        0.8920    5.1820    3.3700 C.3    45  DC45        0.1558
    914  O3'        0.7090    4.8640    4.7470 O.3    45  DC45       -0.3138
    915  C2'       -0.2610    6.0220    2.8040 C.3    45  DC45        0.0866
    916  C1'        0.4310    6.6940    1.6260 C.3    45  DC45        0.2106
    917  N1         0.4190    5.8830    0.4060 N.ar   45  DC45       -0.2556
    918  C2        -0.7580    5.7880   -0.3440 C.ar   45  DC45        0.3531
    919  O2        -1.7310    6.4920   -0.0220 O.2    45  DC45       -0.2443
    920  N3        -0.8030    4.9350   -1.3950 N.ar   45  DC45       -0.1739
    921  C4         0.2650    4.1990   -1.7030 C.ar   45  DC45        0.1759
    922  N4         0.1740    3.3720   -2.7480 N.pl3  45  DC45       -0.1070
    923  C5         1.4670    4.2800   -0.9550 C.ar   45  DC45        0.0566
    924  C6         1.5080    5.1240    0.0820 C.ar   45  DC45        0.0849
    925  P          0.3000    3.2810    5.2180 P.3    46  DC46        0.2141
    926  OP1        0.6590    3.3590    6.6750 O.3    46  DC46       -0.4373
    927  OP2        0.7680    2.1160    4.4050 O.2    46  DC46       -0.5172
    928  O5'       -1.2870    3.2560    5.1590 O.3    46  DC46       -0.3114
    929  C5'       -2.0390    4.2100    5.8770 C.3    46  DC46        0.1811
    930  C4'       -3.3220    4.5050    5.1590 C.3    46  DC46        0.1746
    931  O4'       -3.0260    5.0110    3.8230 O.3    46  DC46       -0.3327
    932  C3'       -4.2320    3.3310    4.8690 C.3    46  DC46        0.1558
    933  O3'       -4.8890    2.8330    6.0230 O.3    46  DC46       -0.3138
    934  C2'       -5.1120    3.9030    3.7660 C.3    46  DC46        0.0866
    935  C1'       -4.0740    4.6430    2.9300 C.3    46  DC46        0.2106
    936  N1        -3.5540    3.7110    1.9270 N.ar   46  DC46       -0.2556
    937  C2        -4.3620    3.2680    0.8730 C.ar   46  DC46        0.3531
    938  O2        -5.5500    3.6320    0.8380 O.2    46  DC46       -0.2443
    939  N3        -3.8280    2.4590   -0.0730 N.ar   46  DC46       -0.1739
    940  C4        -2.5480    2.0940    0.0070 C.ar   46  DC46        0.1759
    941  N4        -2.0650    1.2960   -0.9480 N.pl3  46  DC46       -0.1070
    942  C5        -1.7130    2.5320    1.0670 C.ar   46  DC46        0.0566
    943  C6        -2.2440    3.3300    1.9990 C.ar   46  DC46        0.0849
    944  P         -4.9050    1.3750    6.2290 P.3    47  DC47        0.2141
    945  OP1       -5.5970    1.3460    7.5360 O.3    47  DC47       -0.4373
    946  OP2       -3.5730    0.7470    6.0530 O.2    47  DC47       -0.5172
    947  O5'       -5.8600    0.6530    5.1670 O.3    47  DC47       -0.3114
    948  C5'       -7.2470    0.9490    5.2080 C.3    47  DC47        0.1811
    949  C4'       -7.9650    0.4160    3.9950 C.3    47  DC47        0.1746
    950  O4'       -7.4020    1.0120    2.8030 O.3    47  DC47       -0.3327
    951  C3'       -7.8260   -1.0740    3.7530 C.3    47  DC47        0.1558
    952  O3'       -8.7030   -1.8460    4.5510 O.3    47  DC47       -0.3138
    953  C2'       -8.0580   -1.2070    2.2530 C.3    47  DC47        0.0866
    954  C1'       -7.4160    0.0800    1.7420 C.3    47  DC47        0.2106
    955  N1        -6.0320   -0.1220    1.2880 N.ar   47  DC47       -0.2556
    956  C2        -5.7910   -0.6620    0.0190 C.ar   47  DC47        0.3531
    957  O2        -6.7590   -1.0430   -0.6620 O.2    47  DC47       -0.2443
    958  N3        -4.5160   -0.7540   -0.4270 N.ar   47  DC47       -0.1739
    959  C4        -3.5090   -0.3330    0.3390 C.ar   47  DC47        0.1759
    960  N4        -2.2690   -0.4440   -0.1430 N.pl3  47  DC47       -0.1070
    961  C5        -3.7320    0.2170    1.6270 C.ar   47  DC47        0.0566
    962  C6        -4.9930    0.3060    2.0640 C.ar   47  DC47        0.0849
    963  P         -8.1180   -3.0560    5.2210 P.3    48  DT48        0.2141
    964  OP1       -9.1890   -3.5730    6.0840 O.3    48  DT48       -0.4373
    965  OP2       -6.7810   -2.8720    5.8470 O.2    48  DT48       -0.5172
    966  O5'       -8.0360   -4.0270    3.9450 O.3    48  DT48       -0.3114
    967  C5'       -9.2240   -4.5910    3.3540 C.3    48  DT48        0.1811
    968  C4'       -8.8790   -5.4320    2.1330 C.3    48  DT48        0.1746
    969  O4'       -8.1260   -4.6480    1.1830 O.3    48  DT48       -0.3327
    970  C3'       -7.9420   -6.5950    2.3890 C.3    48  DT48        0.1558
    971  O3'       -8.6690   -7.6720    2.8140 O.3    48  DT48       -0.3138
    972  C2'       -7.4040   -6.9050    1.0000 C.3    48  DT48        0.0866
    973  C1'       -7.1690   -5.4820    0.5350 C.3    48  DT48        0.2106
    974  N1        -5.7520   -4.9930    0.6080 N.ar   48  DT48       -0.2559
    975  C2        -4.8740   -5.3830   -0.3850 C.ar   48  DT48        0.3545
    976  O2        -5.2090   -6.0610   -1.3400 O.2    48  DT48       -0.2443
    977  N3        -3.5810   -4.9490   -0.2200 N.ar   48  DT48       -0.1533
    978  C4        -3.0890   -4.1820    0.8150 C.ar   48  DT48        0.2804
    979  O4        -1.9000   -3.8710    0.8260 O.2    48  DT48       -0.2654
    980  C5        -4.0620   -3.8190    1.8070 C.ar   48  DT48        0.0534
    981  C6        -5.3260   -4.2260    1.6700 C.ar   48  DT48        0.0824
    982  C7        -3.6240   -2.9850    2.9750 C.3    48  DT48        0.0377
    983  P         -7.9500   -8.7160    3.8150 P.3    49  DT49        0.2141
    984  OP1       -8.8650   -9.6390    4.5470 O.2    49  DT49       -0.5172
    985  OP2       -7.2100   -7.6570    4.5660 O.3    49  DT49       -0.4373
    986  O5'       -6.9120   -9.6320    3.0270 O.3    49  DT49       -0.3114
    987  C5'       -7.3220  -10.9030    2.5530 C.3    49  DT49        0.1811
    988  C4'       -6.2980  -11.4510    1.6010 C.3    49  DT49        0.1746
    989  O4'       -5.8000  -10.3350    0.8390 O.3    49  DT49       -0.3327
    990  C3'       -4.9870  -11.9880    2.1490 C.3    49  DT49        0.1558
    991  O3'       -5.1360  -13.3120    2.6810 O.3    49  DT49       -0.3138
    992  C2'       -4.1160  -11.9800    0.8910 C.3    49  DT49        0.0866
    993  C1'       -4.6400  -10.7450    0.1630 C.3    49  DT49        0.2106
    994  N1        -3.8490   -9.6740    0.1910 N.ar   49  DT49       -0.2559
    995  C2        -2.7150   -9.4860   -0.5760 C.ar   49  DT49        0.3545
    996  O2        -2.4340  -10.1910   -1.5290 O.2    49  DT49       -0.2443
    997  N3        -1.9170   -8.4380   -0.1860 N.ar   49  DT49       -0.1533
    998  C4        -2.1330   -7.5790    0.8710 C.ar   49  DT49        0.2804
    999  O4        -1.3240   -6.6830    1.0970 O.2    49  DT49       -0.2654
   1000  C5        -3.3300   -7.8400    1.6200 C.ar   49  DT49        0.0534
   1001  C6        -4.1250   -8.8520    1.2620 C.ar   49  DT49        0.0824
   1002  C7        -3.6540   -6.9600    2.7910 C.3    49  DT49        0.0377
   1003  P         -4.2990  -13.8410    4.1520 P.3    50  DT50        0.2141
   1004  OP1       -4.7920  -15.1350    4.6730 O.2    50  DT50       -0.5172
   1005  OP2       -4.1100  -12.6770    5.0470 O.3    50  DT50       -0.4373
   1006  O5'       -2.8630  -14.0650    3.4830 O.3    50  DT50       -0.3114
   1007  C5'       -2.6720  -15.2050    2.6570 C.3    50  DT50        0.1811
   1008  C4'       -1.3140  -15.2190    1.9980 C.3    50  DT50        0.1746
   1009  O4'       -1.1950  -14.1000    1.0780 O.3    50  DT50       -0.3327
   1010  C3'       -0.1090  -15.0550    2.9120 C.3    50  DT50        0.1558
   1011  O3'        0.2450  -16.2360    3.6060 O.3    50  DT50       -0.3138
   1012  C2'        0.9570  -14.5870    1.9350 C.3    50  DT50        0.0866
   1013  C1'        0.1390  -13.6350    1.0650 C.3    50  DT50        0.2106
   1014  N1         0.1860  -12.1990    1.6250 N.ar   50  DT50       -0.2559
   1015  C2         1.3370  -11.4600    1.4320 C.ar   50  DT50        0.3545
   1016  O2         2.3460  -11.9210    0.9280 O.2    50  DT50       -0.2443
   1017  N3         1.2660  -10.1540    1.8530 N.ar   50  DT50       -0.1533
   1018  C4         0.1840   -9.5270    2.4340 C.ar   50  DT50        0.2804
   1019  O4         0.2720   -8.3450    2.7580 O.2    50  DT50       -0.2654
   1020  C5        -0.9730  -10.3610    2.6020 C.ar   50  DT50        0.0534
   1021  C6        -0.9310  -11.6350    2.2010 C.ar   50  DT50        0.0824
   1022  C7        -2.2030   -9.7710    3.2270 C.3    50  DT50        0.0377
   1023  P          0.5660  -16.1440    5.2630 P.3    51  DG51        0.2141
   1024  OP1        0.6730  -17.5940    5.5740 O.2    51  DG51       -0.5172
   1025  OP2       -0.1080  -15.2390    6.2260 O.3    51  DG51       -0.4373
   1026  O5'        2.0170  -15.5710    4.9490 O.3    51  DG51       -0.3114
   1027  C5'        2.8660  -16.2280    4.0030 C.3    51  DG51        0.1811
   1028  C4'        4.2350  -15.5870    3.9770 C.3    51  DG51        0.1746
   1029  O4'        4.1860  -14.2690    3.3680 O.3    51  DG51       -0.3327
   1030  C3'        4.9170  -15.3320    5.3090 C.3    51  DG51        0.1558
   1031  O3'        5.4720  -16.5160    5.8520 O.3    51  DG51       -0.3138
   1032  C2'        5.9950  -14.3420    4.9040 C.3    51  DG51        0.0865
   1033  C1'        5.2370  -13.4740    3.8980 C.3    51  DG51        0.2094
   1034  N9         4.6800  -12.1710    4.3360 N.ar   51  DG51       -0.2713
   1035  C8         3.3840  -11.9680    4.7440 C.ar   51  DG51        0.1816
   1036  N7         3.1420  -10.7350    5.0980 N.ar   51  DG51       -0.2173
   1037  C5         4.3470  -10.0830    4.9130 C.ar   51  DG51        0.1748
   1038  C6         4.7060   -8.7270    5.1300 C.ar   51  DG51        0.3023
   1039  O6         3.9950   -7.8040    5.5450 O.2    51  DG51       -0.2633
   1040  N1         6.0400   -8.4850    4.8140 N.ar   51  DG51       -0.1709
   1041  C2         6.9200   -9.4320    4.3470 C.ar   51  DG51        0.2606
   1042  N2         8.1660   -9.0080    4.0970 N.pl3  51  DG51       -0.0859
   1043  N3         6.6010  -10.6940    4.1410 N.ar   51  DG51       -0.1918
   1044  C4         5.3110  -10.9530    4.4420 C.ar   51  DG51        0.1722
   1045  P          5.9850  -16.3950    7.3240 P.3    52  DG52        0.2141
   1046  OP1        5.3900  -17.7050    6.9680 O.2    52  DG52       -0.5172
   1047  OP2        5.2220  -15.4180    8.1380 O.3    52  DG52       -0.4373
   1048  O5'        7.4250  -16.6850    7.9680 O.3    52  DG52       -0.3114
   1049  C5'        8.2930  -17.5040    7.1920 C.3    52  DG52        0.1811
   1050  C4'        9.7100  -17.6230    7.7130 C.3    52  DG52        0.1746
   1051  O4'       10.5200  -16.5170    7.2380 O.3    52  DG52       -0.3327
   1052  C3'        9.8650  -17.5750    9.2150 C.3    52  DG52        0.1558
   1053  O3'        9.6850  -18.8480    9.7530 O.3    52  DG52       -0.3138
   1054  C2'       11.3050  -17.1100    9.3430 C.3    52  DG52        0.0865
   1055  C1'       11.3050  -16.0030    8.3040 C.3    52  DG52        0.2094
   1056  N9        10.8480  -14.7080    8.8200 N.ar   52  DG52       -0.2713
   1057  C8         9.6490  -14.0790    8.5860 C.ar   52  DG52        0.1816
   1058  N7         9.5200  -12.9570    9.2400 N.ar   52  DG52       -0.2173
   1059  C5        10.7020  -12.8340    9.9460 C.ar   52  DG52        0.1748
   1060  C6        11.1450  -11.8210   10.8350 C.ar   52  DG52        0.3023
   1061  O6        10.5500  -10.7930   11.1830 O.2    52  DG52       -0.2633
   1062  N1        12.4150  -12.0880   11.3380 N.ar   52  DG52       -0.1709
   1063  C2        13.1670  -13.1950   11.0220 C.ar   52  DG52        0.2606
   1064  N2        14.3700  -13.2780   11.6060 N.pl3  52  DG52       -0.0859
   1065  N3        12.7690  -14.1440   10.1990 N.ar   52  DG52       -0.1918
   1066  C4        11.5370  -13.9060    9.7000 C.ar   52  DG52        0.1722
   1067  P          8.9180  -18.9060   11.0720 P.3    53  DG53        0.2141
   1068  OP1        8.5800  -20.3450   10.9550 O.2    53  DG53       -0.5172
   1069  OP2        7.8410  -17.8920   10.9800 O.3    53  DG53       -0.4373
   1070  O5'        9.7000  -18.6690   12.4510 O.3    53  DG53       -0.3114
   1071  C5'       11.0930  -18.9780   12.5190 C.3    53  DG53        0.1811
   1072  C4'       11.8890  -17.9510   13.3100 C.3    53  DG53        0.1746
   1073  O4'       11.8940  -16.6350   12.6870 O.3    53  DG53       -0.3327
   1074  C3'       11.3780  -17.6690   14.7120 C.3    53  DG53        0.1558
   1075  O3'       11.6800  -18.7570   15.5680 O.3    53  DG53       -0.3138
   1076  C2'       12.2020  -16.4280   15.0260 C.3    53  DG53        0.0865
   1077  C1'       12.1100  -15.6610   13.7020 C.3    53  DG53        0.2094
   1078  N9        11.0680  -14.6440   13.6810 N.ar   53  DG53       -0.2713
   1079  C8         9.9780  -14.7240   12.8480 C.ar   53  DG53        0.1816
   1080  N7         9.2160  -13.6660   12.8940 N.ar   53  DG53       -0.2173
   1081  C5         9.8360  -12.8360   13.8090 C.ar   53  DG53        0.1748
   1082  C6         9.4750  -11.5470   14.2790 C.ar   53  DG53        0.3023
   1083  O6         8.4960  -10.8620   13.9590 O.2    53  DG53       -0.2633
   1084  N1        10.3860  -11.0590   15.2120 N.ar   53  DG53       -0.1709
   1085  C2        11.5060  -11.7300   15.6400 C.ar   53  DG53        0.2606
   1086  N2        12.2650  -11.0970   16.5440 N.pl3  53  DG53       -0.0859
   1087  N3        11.8530  -12.9290   15.2140 N.ar   53  DG53       -0.1918
   1088  C4        10.9830  -13.4230   14.3080 C.ar   53  DG53        0.1722
   1089  P         10.3650  -19.4660   16.6260 P.3    54  DG54        0.2141
   1090  OP1       10.7610  -20.6890   17.3470 O.3    54  DG54       -0.4373
   1091  OP2        8.9480  -19.1530   16.3270 O.2    54  DG54       -0.5172
   1092  O5'       10.9740  -18.2600   17.4690 O.3    54  DG54       -0.3114
   1093  C5'       12.2000  -18.3860   18.1520 C.3    54  DG54        0.1811
   1094  C4'       12.5490  -17.0600   18.7960 C.3    54  DG54        0.1746
   1095  O4'       12.3690  -15.9640   17.8660 O.3    54  DG54       -0.3327
   1096  C3'       11.6130  -16.6940   19.9260 C.3    54  DG54        0.1558
   1097  O3'       11.9550  -17.4250   21.0710 O.3    54  DG54       -0.3138
   1098  C2'       11.9150  -15.2100   20.0680 C.3    54  DG54        0.0865
   1099  C1'       12.0620  -14.7950   18.6050 C.3    54  DG54        0.2094
   1100  N9        10.8110  -14.2090   18.0890 N.ar   54  DG54       -0.2713
   1101  C8         9.8860  -14.7550   17.2310 C.ar   54  DG54        0.1816
   1102  N7         8.8850  -13.9570   16.9770 N.ar   54  DG54       -0.2173
   1103  C5         9.1620  -12.8160   17.7070 C.ar   54  DG54        0.1748
   1104  C6         8.4370  -11.6030   17.8340 C.ar   54  DG54        0.3023
   1105  O6         7.3650  -11.2920   17.3010 O.2    54  DG54       -0.2633
   1106  N1         9.0760  -10.7010   18.6810 N.ar   54  DG54       -0.1709
   1107  C2        10.2670  -10.9390   19.3250 C.ar   54  DG54        0.2606
   1108  N2        10.7280   -9.9480   20.1000 N.pl3  54  DG54       -0.0859
   1109  N3        10.9510  -12.0610   19.2180 N.ar   54  DG54       -0.1918
   1110  C4        10.3490  -12.9520   18.4010 C.ar   54  DG54        0.1722
   1111  P         10.7460  -18.2060   21.9020 P.3    55  DA55        0.2141
   1112  OP1       10.9650  -19.3300   22.8390 O.3    55  DA55       -0.4373
   1113  OP2        9.8850  -18.4060   20.7140 O.2    55  DA55       -0.5172
   1114  O5'       10.0980  -16.9470   22.6630 O.3    55  DA55       -0.3114
   1115  C5'       10.8900  -16.2220   23.5940 C.3    55  DA55        0.1811
   1116  C4'       10.2010  -15.0120   24.1810 C.3    55  DA55        0.1746
   1117  O4'       10.1380  -13.9220   23.2240 O.3    55  DA55       -0.3327
   1118  C3'        8.7540  -15.1720   24.6080 C.3    55  DA55        0.1558
   1119  O3'        8.5930  -15.9070   25.8060 O.3    55  DA55       -0.3138
   1120  C2'        8.3150  -13.7190   24.7240 C.3    55  DA55        0.0865
   1121  C1'        9.0220  -13.1010   23.5220 C.3    55  DA55        0.2094
   1122  N9         8.1810  -12.9140   22.3920 N.ar   55  DA55       -0.2714
   1123  C8         7.9470  -13.7250   21.3130 C.ar   55  DA55        0.1815
   1124  N7         6.9530  -13.3250   20.5560 N.ar   55  DA55       -0.2193
   1125  C5         6.5040  -12.1720   21.1810 C.ar   55  DA55        0.1518
   1126  C6         5.4690  -11.2710   20.8730 C.ar   55  DA55        0.1919
   1127  N6         4.6690  -11.3990   19.8110 N.pl3  55  DA55       -0.1054
   1128  N1         5.2840  -10.2230   21.7030 N.ar   55  DA55       -0.2040
   1129  C2         6.0870  -10.0950   22.7650 C.ar   55  DA55        0.2016
   1130  N3         7.0920  -10.8740   23.1580 N.ar   55  DA55       -0.2048
   1131  C4         7.2490  -11.9070   22.3130 C.ar   55  DA55        0.1691
   1132  P          7.6120  -16.7450   25.7820 P.3    56  DG56        0.2141
   1133  OP1        7.7380  -17.4430   27.0810 O.3    56  DG56       -0.4373
   1134  OP2        7.0840  -17.4830   24.6140 O.2    56  DG56       -0.5172
   1135  O5'        6.7280  -15.4400   25.9810 O.3    56  DG56       -0.3114
   1136  C5'        6.8220  -14.6540   27.1800 C.3    56  DG56        0.1811
   1137  C4'        5.6930  -13.6560   27.2330 C.3    56  DG56        0.1746
   1138  O4'        5.8330  -12.7160   26.1340 O.3    56  DG56       -0.3327
   1139  C3'        4.3120  -14.2520   27.0280 C.3    56  DG56        0.1558
   1140  O3'        3.7990  -14.8260   28.2160 O.3    56  DG56       -0.3138
   1141  C2'        3.5200  -13.0510   26.5370 C.3    56  DG56        0.0865
   1142  C1'        4.5480  -12.3820   25.6260 C.3    56  DG56        0.2093
   1143  N9         4.4680  -12.9380   24.2320 N.ar   56  DG56       -0.2728
   1144  C8         5.2220  -13.9970   23.7890 C.ar   56  DG56        0.1814
   1145  N7         4.9870  -14.3120   22.5440 N.ar   56  DG56       -0.2177
   1146  C5         4.0230  -13.4090   22.1380 C.ar   56  DG56        0.1711
   1147  C6         3.3700  -13.2550   20.8870 C.2    56  DG56        0.2985
   1148  O6         3.5280  -13.9180   19.8550 O.2    56  DG56       -0.2655
   1149  N1         2.4530  -12.2090   20.9040 N.am   56  DG56       -0.1054
   1150  C2         2.1960  -11.4080   21.9910 C.1    56  DG56        0.1300
   1151  N2         1.2780  -10.4480   21.8150 N.2    56  DG56       -0.0644
   1152  N3         2.7940  -11.5390   23.1590 N.pl3  56  DG56       -0.1270
   1153  C4         3.6880  -12.5500   23.1670 C.ar   56  DG56        0.1688
   1154  P          2.6650  -16.1910   28.1260 P.3    57  DA57        0.2141
   1155  OP1        2.7240  -17.1670   29.2520 O.3    57  DA57       -0.4373
   1156  OP2        2.9210  -16.6580   26.7310 O.2    57  DA57       -0.5172
   1157  O5'        1.2370  -15.4910   28.1620 O.3    57  DA57       -0.3114
   1158  C5'        0.0330  -16.2750   28.2990 C.3    57  DA57        0.1811
   1159  C4'       -1.1140  -15.3830   28.6820 C.3    57  DA57        0.1746
   1160  O4'       -0.8270  -14.7710   29.9610 O.3    57  DA57       -0.3327
   1161  C3'       -1.3360  -14.2040   27.7600 C.3    57  DA57        0.1558
   1162  O3'       -2.1220  -14.5470   26.6490 O.3    57  DA57       -0.3138
   1163  C2'       -2.0420  -13.2090   28.6620 C.3    57  DA57        0.0865
   1164  C1'       -1.3180  -13.4420   29.9850 C.3    57  DA57        0.2094
   1165  N9        -0.1090  -12.5870   30.1770 N.ar   57  DA57       -0.2714
   1166  C8         1.1540  -12.7540   29.6720 C.ar   57  DA57        0.1815
   1167  N7         1.9610  -11.7500   29.9240 N.ar   57  DA57       -0.2193
   1168  C5         1.1740  -10.8640   30.6420 C.ar   57  DA57        0.1518
   1169  C6         1.4420   -9.6040   31.2050 C.ar   57  DA57        0.1919
   1170  N6         2.6280   -8.9960   31.1280 N.pl3  57  DA57       -0.1054
   1171  N1         0.4360   -8.9830   31.8570 N.ar   57  DA57       -0.2040
   1172  C2        -0.7520   -9.5930   31.9350 C.ar   57  DA57        0.2016
   1173  N3        -1.1240  -10.7740   31.4480 N.ar   57  DA57       -0.2048
   1174  C4        -0.1030  -11.3650   30.8050 C.ar   57  DA57        0.1691
   1175  P         -1.8400  -13.8510   25.2190 P.3    58  DC58        0.2141
   1176  OP1       -2.4570  -14.6260   24.1160 O.2    58  DC58       -0.5172
   1177  OP2       -0.3860  -13.5630   25.2010 O.3    58  DC58       -0.4373
   1178  O5'       -2.5180  -12.4020   25.3430 O.3    58  DC58       -0.3114
   1179  C5'       -3.8850  -12.2510   25.6990 C.3    58  DC58        0.1811
   1180  C4'       -4.2680  -10.7970   25.8340 C.3    58  DC58        0.1746
   1181  O4'       -3.7840  -10.2770   27.0960 O.3    58  DC58       -0.3327
   1182  C3'       -3.6770   -9.8550   24.7960 C.3    58  DC58        0.1558
   1183  O3'       -4.4040   -9.8310   23.5850 O.3    58  DC58       -0.3138
   1184  C2'       -3.6830   -8.5140   25.5130 C.3    58  DC58        0.0866
   1185  C1'       -3.3570   -8.9440   26.9380 C.3    58  DC58        0.2106
   1186  N1        -1.8970   -8.8490   27.2010 N.ar   58  DC58       -0.2556
   1187  C2        -1.3770   -7.6350   27.6640 C.ar   58  DC58        0.3531
   1188  O2        -2.1480   -6.6710   27.8080 O.2    58  DC58       -0.2443
   1189  N3        -0.0540   -7.5460   27.9390 N.ar   58  DC58       -0.1739
   1190  C4         0.7350   -8.6070   27.7680 C.ar   58  DC58        0.1759
   1191  N4         2.0330   -8.4720   28.0520 N.pl3  58  DC58       -0.1070
   1192  C5         0.2280   -9.8460   27.3000 C.ar   58  DC58        0.0566
   1193  C6        -1.0790   -9.9300   27.0290 C.ar   58  DC58        0.0849
   1194  P         -3.5750   -9.5090   22.2380 P.3    59  DA59        0.2141
   1195  OP1       -4.1460  -10.1050   21.0060 O.2    59  DA59       -0.5172
   1196  OP2       -2.5560  -10.2510   23.0170 O.3    59  DA59       -0.4373
   1197  O5'       -2.9310   -8.0820   21.9030 O.3    59  DA59       -0.3114
   1198  C5'       -3.7340   -6.9360   21.6230 C.3    59  DA59        0.1811
   1199  C4'       -3.1750   -5.7270   22.3340 C.3    59  DA59        0.1746
   1200  O4'       -2.5630   -6.1770   23.5730 O.3    59  DA59       -0.3327
   1201  C3'       -2.0390   -4.9920   21.6600 C.3    59  DA59        0.1558
   1202  O3'       -2.5510   -4.0900   20.6890 O.3    59  DA59       -0.3138
   1203  C2'       -1.4160   -4.2470   22.8390 C.3    59  DA59        0.0865
   1204  C1'       -1.5230   -5.2870   23.9430 C.3    59  DA59        0.2094
   1205  N9        -0.3400   -6.0330   24.0820 N.ar   59  DA59       -0.2714
   1206  C8        -0.2130   -7.3590   23.7570 C.ar   59  DA59        0.1815
   1207  N7         0.9210   -7.8920   24.1450 N.ar   59  DA59       -0.2193
   1208  C5         1.5840   -6.8460   24.7670 C.ar   59  DA59        0.1518
   1209  C6         2.8390   -6.7620   25.3940 C.ar   59  DA59        0.1919
   1210  N6         3.6830   -7.7910   25.5010 N.pl3  59  DA59       -0.1054
   1211  N1         3.2010   -5.5690   25.9130 N.ar   59  DA59       -0.2040
   1212  C2         2.3550   -4.5390   25.8060 C.ar   59  DA59        0.2016
   1213  N3         1.1500   -4.4950   25.2420 N.ar   59  DA59       -0.2048
   1214  C4         0.8200   -5.6950   24.7350 C.ar   59  DA59        0.1691
   1215  P         -1.7110   -3.7540   19.7460 P.3    60  DT60        0.2141
   1216  OP1       -2.2210   -2.3690   19.6830 O.3    60  DT60       -0.4373
   1217  OP2       -1.5360   -4.5360   18.5080 O.2    60  DT60       -0.5172
   1218  O5'       -0.2530   -3.7870   20.4120 O.3    60  DT60       -0.3114
   1219  C5'        0.0830   -2.8300   21.4050 C.3    60  DT60        0.1811
   1220  C4'        1.4530   -3.0520   21.9960 C.3    60  DT60        0.1746
   1221  O4'        1.5260   -4.3610   22.6170 O.3    60  DT60       -0.3327
   1222  C3'        2.6250   -3.0430   21.0260 C.3    60  DT60        0.1558
   1223  O3'        3.0620   -1.7440   20.6910 O.3    60  DT60       -0.3138
   1224  C2'        3.6960   -3.8460   21.7540 C.3    60  DT60        0.0866
   1225  C1'        2.8530   -4.8410   22.5550 C.3    60  DT60        0.2106
   1226  N1         2.8760   -6.1730   21.9780 N.ar   60  DT60       -0.2558
   1227  C2         4.0070   -6.9440   22.1740 C.ar   60  DT60        0.3545
   1228  O2         4.9670   -6.5620   22.8180 O.2    60  DT60       -0.2443
   1229  N3         3.9740   -8.1840   21.5830 N.ar   60  DT60       -0.1548
   1230  C4         2.9470   -8.7190   20.8340 C.ar   60  DT60        0.2614
   1231  O4         3.0630   -9.8500   20.3680 O.3    60  DT60       -0.3330
   1232  C5         1.8090   -7.8580   20.6750 C.ar   60  DT60        0.0711
   1233  C6         1.8140   -6.6470   21.2390 C.ar   60  DT60        0.0840
   1234  C7         0.6390   -8.3500   19.8750 C.3    60  DT60        0.1255
   1235  P          3.5240   -1.4800   19.2200 P.3    61  DC61        0.2141
   1236  OP1        3.5030   -0.0400   18.8760 O.3    61  DC61       -0.4373
   1237  OP2        2.8860   -2.4770   18.3310 O.2    61  DC61       -0.5172
   1238  O5'        5.0500   -1.9590   19.3270 O.3    61  DC61       -0.3114
   1239  C5'        5.9330   -1.3510   20.2570 C.3    61  DC61        0.1811
   1240  C4'        6.9700   -2.3200   20.7810 C.3    61  DC61        0.1746
   1241  O4'        6.3440   -3.5690   21.1620 O.3    61  DC61       -0.3327
   1242  C3'        8.0690   -2.7510   19.8200 C.3    61  DC61        0.1558
   1243  O3'        9.0950   -1.7790   19.6930 O.3    61  DC61       -0.3138
   1244  C2'        8.5520   -4.0570   20.4390 C.3    61  DC61        0.0866
   1245  C1'        7.2550   -4.6330   20.9950 C.3    61  DC61        0.2106
   1246  N1         6.7710   -5.6010   20.0430 N.ar   61  DC61       -0.2556
   1247  C2         7.3600   -6.8660   19.9320 C.ar   61  DC61        0.3531
   1248  O2         8.3790   -7.1120   20.6000 O.2    61  DC61       -0.2443
   1249  N3         6.8040   -7.7820   19.1040 N.ar   61  DC61       -0.1739
   1250  C4         5.7100   -7.4730   18.4060 C.ar   61  DC61        0.1759
   1251  N4         5.1980   -8.4080   17.6020 N.pl3  61  DC61       -0.1070
   1252  C5         5.0980   -6.1970   18.5040 C.ar   61  DC61        0.0566
   1253  C6         5.6500   -5.2960   19.3240 C.ar   61  DC61        0.0849
   1254  P          9.8980   -1.6460   18.3810 P.3    62  DC62        0.2141
   1255  OP1       10.7380   -0.4340   18.4490 O.3    62  DC62       -0.4373
   1256  OP2        9.0690   -1.9630   17.1930 O.2    62  DC62       -0.5172
   1257  O5'       10.8580   -2.9100   18.5370 O.3    62  DC62       -0.3114
   1258  C5'       11.7760   -2.9580   19.6150 C.3    62  DC62        0.1811
   1259  C4'       12.5410   -4.2510   19.5680 C.3    62  DC62        0.1746
   1260  O4'       11.6260   -5.3700   19.6910 O.3    62  DC62       -0.3327
   1261  C3'       13.2250   -4.5280   18.2470 C.3    62  DC62        0.1558
   1262  O3'       14.4250   -3.8050   18.0760 O.3    62  DC62       -0.3138
   1263  C2'       13.4160   -6.0350   18.2860 C.3    62  DC62        0.0866
   1264  C1'       12.0960   -6.4590   18.9250 C.3    62  DC62        0.2106
   1265  N1        11.1540   -6.8790   17.9410 N.ar   62  DC62       -0.2556
   1266  C2        11.2870   -8.1040   17.2760 C.ar   62  DC62        0.3531
   1267  O2        12.2950   -8.7970   17.4950 O.2    62  DC62       -0.2443
   1268  N3        10.3160   -8.4960   16.4170 N.ar   62  DC62       -0.1739
   1269  C4         9.2520   -7.7190   16.2130 C.ar   62  DC62        0.1759
   1270  N4         8.3210   -8.1460   15.3560 N.pl3  62  DC62       -0.1070
   1271  C5         9.0990   -6.4750   16.8770 C.ar   62  DC62        0.0566
   1272  C6        10.0590   -6.0910   17.7250 C.ar   62  DC62        0.0849
   1273  P         14.9790   -3.7470   16.4660 P.3    63  DT63        0.2141
   1274  OP1       15.9880   -2.7180   16.8000 O.3    63  DT63       -0.4373
   1275  OP2       13.7270   -3.3760   15.7670 O.2    63  DT63       -0.5172
   1276  O5'       15.6520   -4.8410   15.5150 O.3    63  DT63       -0.3114
   1277  C5'       16.7940   -5.5190   16.0100 C.3    63  DT63        0.1811
   1278  C4'       16.5290   -6.9890   16.2090 C.3    63  DT63        0.1746
   1279  O4'       15.1220   -7.2250   16.4720 O.3    63  DT63       -0.3327
   1280  C3'       16.8190   -7.8800   15.0150 C.3    63  DT63        0.1558
   1281  O3'       18.1990   -8.1550   14.8850 O.3    63  DT63       -0.3138
   1282  C2'       15.9810   -9.1180   15.3040 C.3    63  DT63        0.0866
   1283  C1'       14.7720   -8.5180   16.0190 C.3    63  DT63        0.2106
   1284  N1        13.7460   -8.1920   14.7450 N.ar   63  DT63       -0.2559
   1285  C2        13.1730   -9.0750   13.8500 C.ar   63  DT63        0.3545
   1286  O2        13.5810  -10.2110   13.6850 O.2    63  DT63       -0.2443
   1287  N3        12.1010   -8.5790   13.1500 N.ar   63  DT63       -0.1533
   1288  C4        11.5560   -7.3160   13.2530 C.ar   63  DT63        0.2804
   1289  O4        10.5890   -7.0160   12.5560 O.2    63  DT63       -0.2654
   1290  C5        12.2060   -6.4580   14.2020 C.ar   63  DT63        0.0534
   1291  C6        13.2520   -6.9150   14.8970 C.ar   63  DT63        0.0824
   1292  C7        11.6870   -5.0630   14.3860 C.3    63  DT63        0.0377
   1293  P         18.5750   -8.5150   14.0690 P.3    64  DA64        0.2141
   1294  OP1       18.1940   -7.3130   13.2970 O.2    64  DA64       -0.5172
   1295  OP2       17.8970   -9.7950   13.7630 O.3    64  DA64       -0.4373
   1296  O5'       20.1380   -8.8540   13.9200 O.3    64  DA64       -0.3114
   1297  C5'       21.1210   -7.8290   13.9590 C.3    64  DA64        0.1811
   1298  C4'       22.1840   -8.0500   15.0130 C.3    64  DA64        0.1746
   1299  O4'       21.6010   -8.5660   16.2400 O.3    64  DA64       -0.3327
   1300  C3'       23.2650   -9.0730   14.7030 C.3    64  DA64        0.1558
   1301  O3'       24.2440   -8.6300   13.7840 O.3    64  DA64       -0.3138
   1302  C2'       23.8260   -9.3450   16.0900 C.3    64  DA64        0.0865
   1303  C1'       22.5350   -9.4050   16.8990 C.3    64  DA64        0.2094
   1304  N9        22.0750  -10.6950   17.1280 N.ar   64  DA64       -0.2714
   1305  C8        20.9310  -11.2660   16.6360 C.ar   64  DA64        0.1815
   1306  N7        20.7390  -12.5000   17.0400 N.ar   64  DA64       -0.2193
   1307  C5        21.8330  -12.7570   17.8510 C.ar   64  DA64        0.1518
   1308  C6        22.2210  -13.8920   18.5850 C.ar   64  DA64        0.1919
   1309  N6        21.5170  -15.0260   18.6200 N.pl3  64  DA64       -0.1054
   1310  N1        23.3700  -13.8190   19.2900 N.ar   64  DA64       -0.2040
   1311  C2        24.0740  -12.6820   19.2550 C.ar   64  DA64        0.2016
   1312  N3        23.8120  -11.5510   18.6050 N.ar   64  DA64       -0.2048
   1313  C4        22.6650  -11.6550   17.9140 C.ar   64  DA64        0.1691
   1314  P         24.9930   -9.8420   12.9230 P.3    65  DT65        0.2141
   1315  OP1       25.6840   -9.3700   11.7150 O.2    65  DT65       -0.5172
   1316  OP2       24.0040  -10.9370   12.8100 O.3    65  DT65       -0.4373
   1317  O5'       26.1270  -10.3130   13.9190 O.3    65  DT65       -0.3114
   1318  C5'       27.0860   -9.3920   14.3790 C.3    65  DT65        0.1811
   1319  C4'       27.8030   -9.9570   15.5610 C.3    65  DT65        0.1746
   1320  O4'       26.8490  -10.1190   16.6370 O.3    65  DT65       -0.3327
   1321  C3'       28.3760  -11.3420   15.3700 C.3    65  DT65        0.1558
   1322  O3'       29.6380  -11.3000   14.7150 O.3    65  DT65       -0.3138
   1323  C2'       28.4840  -11.8130   16.8110 C.3    65  DT65        0.0866
   1324  C1'       27.1780  -11.2670   17.3920 C.3    65  DT65        0.2106
   1325  N1        26.1090  -12.2020   17.2380 N.ar   65  DT65       -0.2559
   1326  C2        26.0060  -13.2180   18.1680 C.ar   65  DT65        0.3545
   1327  O2        26.7950  -13.3610   19.0860 O.2    65  DT65       -0.2443
   1328  N3        24.9420  -14.0680   17.9860 N.ar   65  DT65       -0.1533
   1329  C4        23.9910  -14.0050   16.9880 C.ar   65  DT65        0.2804
   1330  O4        23.0920  -14.8410   16.9560 O.2    65  DT65       -0.2654
   1331  C5        24.1670  -12.9230   16.0610 C.ar   65  DT65        0.0534
   1332  C6        25.1930  -12.0820   16.2150 C.ar   65  DT65        0.0824
   1333  C7        23.1840  -12.7700   14.9390 C.3    65  DT65        0.0377
   1334  P         30.1310  -12.5810   13.9200 P.3    66  DG66        0.2141
   1335  OP1       31.3530  -12.6390   13.0760 O.2    66  DG66       -0.5172
   1336  OP2       28.8210  -12.9620   13.3350 O.3    66  DG66       -0.4373
   1337  O5'       30.3950  -13.4810   15.2110 O.3    66  DG66       -0.3114
   1338  C5'       31.6670  -13.4880   15.8680 C.3    66  DG66        0.1811
   1339  C4'       31.7690  -14.6740   16.8010 C.3    66  DG66        0.1746
   1340  O4'       30.8130  -14.5270   17.8890 O.3    66  DG66       -0.3327
   1341  C3'       31.4410  -16.0190   16.1770 C.3    66  DG66        0.1558
   1342  O3'       32.5460  -16.6020   15.5110 O.3    66  DG66       -0.3138
   1343  C2'       30.9970  -16.8470   17.3770 C.3    66  DG66        0.0865
   1344  C1'       30.2910  -15.7990   18.2420 C.3    66  DG66        0.2094
   1345  N9        28.8550  -15.8220   17.9930 N.ar   66  DG66       -0.2713
   1346  C8        28.0900  -15.1160   17.0970 C.ar   66  DG66        0.1816
   1347  N7        26.8700  -15.5680   16.9930 N.ar   66  DG66       -0.2173
   1348  C5        26.8230  -16.6350   17.8710 C.ar   66  DG66        0.1748
   1349  C6        25.7630  -17.5210   18.1920 C.ar   66  DG66        0.3023
   1350  O6        24.6100  -17.5310   17.7410 O.2    66  DG66       -0.2633
   1351  N1        26.1440  -18.4680   19.1390 N.ar   66  DG66       -0.1709
   1352  C2        27.3930  -18.5510   19.7060 C.ar   66  DG66        0.2606
   1353  N2        27.5710  -19.5320   20.6020 N.pl3  66  DG66       -0.0859
   1354  N3        28.3880  -17.7360   19.4180 N.ar   66  DG66       -0.1918
   1355  C4        28.0410  -16.8080   18.5000 C.ar   66  DG66        0.1722
   1356  P         32.2800  -17.9160   14.4940 P.3    67  DC67        0.2141
   1357  OP1       33.4880  -17.6860   13.6700 O.2    67  DC67       -0.5172
   1358  OP2       30.9890  -18.2720   13.8560 O.3    67  DC67       -0.4373
   1359  O5'       32.5570  -19.1170   15.5140 O.3    67  DC67       -0.3114
   1360  C5'       31.9790  -20.3930   15.2800 C.3    67  DC67        0.1811
   1361  C4'       31.7450  -21.1700   16.5550 C.3    67  DC67        0.1746
   1362  O4'       30.9070  -20.4110   17.4670 O.3    67  DC67       -0.3327
   1363  C3'       30.9840  -22.4710   16.3670 C.3    67  DC67        0.1558
   1364  O3'       31.8110  -23.5350   15.9340 O.3    67  DC67       -0.3138
   1365  C2'       30.3090  -22.6680   17.7180 C.3    67  DC67        0.0866
   1366  C1'       29.8830  -21.2300   17.9910 C.3    67  DC67        0.2106
   1367  N1        28.4900  -20.9090   17.0940 N.ar   67  DC67       -0.2556
   1368  C2        27.2830  -21.5680   17.3550 C.ar   67  DC67        0.3531
   1369  O2        27.2640  -22.4610   18.2200 O.2    67  DC67       -0.2443
   1370  N3        26.1750  -21.2160   16.6590 N.ar   67  DC67       -0.1739
   1371  C4        26.2430  -20.2530   15.7390 C.ar   67  DC67        0.1759
   1372  N4        25.1260  -19.9410   15.0780 N.pl3  67  DC67       -0.1070
   1373  C5        27.4560  -19.5730   15.4600 C.ar   67  DC67        0.0566
   1374  C6        28.5480  -19.9230   16.1500 C.ar   67  DC67        0.0849
   1375  P         31.7300  -24.0010   14.3540 P.3    68  DG68        0.2141
   1376  OP1       32.9430  -24.8300   14.0840 O.3    68  DG68       -0.4373
   1377  OP2       31.1470  -22.9540   13.4430 O.2    68  DG68       -0.5172
   1378  O5'       30.5010  -24.9360   14.8090 O.3    68  DG68       -0.3114
   1379  C5'       30.8540  -26.1330   15.5070 C.3    68  DG68        0.1811
   1380  C4'       29.6700  -26.8700   16.0780 C.3    68  DG68        0.1746
   1381  O4'       28.8230  -25.9190   16.7370 O.3    68  DG68       -0.3327
   1382  C3'       28.6860  -27.4610   15.1110 C.3    68  DG68        0.1558
   1383  O3'       29.1250  -28.6970   14.7140 O.3    68  DG68       -0.3138
   1384  C2'       27.4600  -27.6640   15.9550 C.3    68  DG68        0.0865
   1385  C1'       27.4600  -26.2970   16.6110 C.3    68  DG68        0.2094
   1386  N9        26.6720  -25.4000   15.7890 N.ar   68  DG68       -0.2713
   1387  C8        27.2000  -24.2960   15.1640 C.ar   68  DG68        0.1816
   1388  N7        26.2990  -23.5550   14.5780 N.ar   68  DG68       -0.2173
   1389  C5        25.1040  -24.2030   14.8320 C.ar   68  DG68        0.1748
   1390  C6        23.7770  -23.8760   14.4500 C.ar   68  DG68        0.3023
   1391  O6        23.3880  -22.9070   13.7860 O.2    68  DG68       -0.2633
   1392  N1        22.8560  -24.8090   14.9180 N.ar   68  DG68       -0.1709
   1393  C2        23.1740  -25.9200   15.6620 C.ar   68  DG68        0.2606
   1394  N2        22.1480  -26.7030   16.0220 N.pl3  68  DG68       -0.0859
   1395  N3        24.4020  -26.2380   16.0230 N.ar   68  DG68       -0.1918
   1396  C4        25.3130  -25.3460   15.5790 C.ar   68  DG68        0.1722
   1397  P         29.0840  -28.8450   13.1740 P.3    69  DT69        0.2141
   1398  OP1       30.1340  -29.8190   12.7900 O.3    69  DT69       -0.4373
   1399  OP2       28.9520  -27.5750   12.4130 O.2    69  DT69       -0.5172
   1400  O5'       27.6780  -29.5900   13.1480 O.3    69  DT69       -0.3114
   1401  C5'       27.3770  -30.6180   14.0890 C.3    69  DT69        0.1811
   1402  C4'       25.9230  -31.0160   13.9750 C.3    69  DT69        0.1746
   1403  O4'       25.0600  -29.9700   14.4960 O.3    69  DT69       -0.3327
   1404  C3'       25.4550  -31.2300   12.5460 C.3    69  DT69        0.1558
   1405  O3'       25.7850  -32.5480   12.1360 O.3    69  DT69       -0.3138
   1406  C2'       23.9530  -30.9810   12.6440 C.3    69  DT69        0.0866
   1407  C1'       23.8940  -29.8670   13.6930 C.3    69  DT69        0.2106
   1408  N1        23.8580  -28.4660   13.1570 N.ar   69  DT69       -0.2559
   1409  C2        22.6300  -27.9640   12.7680 C.ar   69  DT69        0.3545
   1410  O2        21.5820  -28.5560   12.9550 O.2    69  DT69       -0.2443
   1411  N3        22.6730  -26.7380   12.1500 N.ar   69  DT69       -0.1533
   1412  C4        23.7950  -25.9800   11.8860 C.ar   69  DT69        0.2804
   1413  O4        23.6740  -24.8950   11.3220 O.2    69  DT69       -0.2654
   1414  C5        25.0310  -26.5690   12.3190 C.ar   69  DT69        0.0534
   1415  C6        25.0180  -27.7600   12.9230 C.ar   69  DT69        0.0824
   1416  C7        26.3090  -25.8210   12.0770 C.3    69  DT69        0.0377
   1417  P         25.7160  -32.9890   10.4880 P.3    70  DG70        0.2141
   1418  OP1       26.2200  -34.3470   10.1610 O.2    70  DG70       -0.5172
   1419  OP2       26.5630  -31.7990   10.2040 O.3    70  DG70       -0.4373
   1420  O5'       24.3290  -32.8030    9.7420 O.3    70  DG70       -0.3114
   1421  C5'       23.2260  -33.6000   10.1230 C.3    70  DG70        0.1811
   1422  C4'       21.9600  -33.0350    9.5620 C.3    70  DG70        0.1746
   1423  O4'       21.7070  -31.7170   10.1090 O.3    70  DG70       -0.3327
   1424  C3'       21.9880  -32.7590    8.0800 C.3    70  DG70        0.1558
   1425  O3'       21.8450  -33.9520    7.3380 O.3    70  DG70       -0.3138
   1426  C2'       20.7920  -31.8320    7.9210 C.3    70  DG70        0.0865
   1427  C1'       20.8900  -30.9990    9.2000 C.3    70  DG70        0.2094
   1428  N9        21.4480  -29.7350    8.9930 N.ar   70  DG70       -0.2713
   1429  C8        22.7650  -29.3860    9.1690 C.ar   70  DG70        0.1816
   1430  N7        23.0410  -28.1840    8.7410 N.ar   70  DG70       -0.2173
   1431  C5        21.8380  -27.7080    8.2550 C.ar   70  DG70        0.1748
   1432  C6        21.5100  -26.4620    7.6610 C.ar   70  DG70        0.3023
   1433  O6        22.2550  -25.4980    7.4420 O.2    70  DG70       -0.2633
   1434  N1        20.1660  -26.3920    7.3070 N.ar   70  DG70       -0.1709
   1435  C2        19.2500  -27.3980    7.5010 C.ar   70  DG70        0.2606
   1436  N2        17.9980  -27.1440    7.0950 N.pl3  70  DG70       -0.0859
   1437  N3        19.5390  -28.5610    8.0510 N.ar   70  DG70       -0.1918
   1438  C4        20.8400  -28.6520    8.4020 C.ar   70  DG70        0.1722
   1439  P         22.1580  -34.0320    5.7900 P.3    71  DC71        0.2141
   1440  OP1       21.7410  -35.2560    5.0720 O.2    71  DC71       -0.5172
   1441  OP2       23.5760  -33.6090    5.8310 O.3    71  DC71       -0.4373
   1442  O5'       21.3750  -32.8030    5.1340 O.3    71  DC71       -0.3114
   1443  C5'       20.0440  -33.0220    4.6970 C.3    71  DC71        0.1811
   1444  C4'       19.3600  -31.7460    4.2790 C.3    71  DC71        0.1746
   1445  O4'       19.6750  -30.6910    5.2140 O.3    71  DC71       -0.3327
   1446  C3'       19.7740  -31.1580    2.9410 C.3    71  DC71        0.1558
   1447  O3'       19.1930  -31.8070    1.8250 O.3    71  DC71       -0.3138
   1448  C2'       19.3480  -29.7040    3.0750 C.3    71  DC71        0.0866
   1449  C1'       19.6400  -29.4480    4.5470 C.3    71  DC71        0.2106
   1450  N1        20.9050  -28.7340    4.6010 N.ar   71  DC71       -0.2556
   1451  C2        21.0860  -27.4410    4.0950 C.ar   71  DC71        0.3531
   1452  O2        20.1650  -26.9220    3.4410 O.2    71  DC71       -0.2443
   1453  N3        22.2530  -26.7970    4.3320 N.ar   71  DC71       -0.1739
   1454  C4        23.2140  -27.3950    5.0380 C.ar   71  DC71        0.1759
   1455  N4        24.3470  -26.7220    5.2460 N.pl3  71  DC71       -0.1070
   1456  C5        23.0510  -28.7040    5.5590 C.ar   71  DC71        0.0566
   1457  C6        21.8960  -29.3370    5.3230 C.ar   71  DC71        0.0849
   1458  P         20.1390  -31.8310    0.5310 P.3    72  DT72        0.2141
   1459  OP1       19.5500  -33.0340   -0.1010 O.2    72  DT72       -0.5172
   1460  OP2       21.5980  -31.7840    0.8020 O.3    72  DT72       -0.4373
   1461  O5'       19.7950  -30.5390   -0.3410 O.3    72  DT72       -0.3114
   1462  C5'       18.4710  -29.9820   -0.3580 C.3    72  DT72        0.1811
   1463  C4'       18.4930  -28.5420   -0.8350 C.3    72  DT72        0.1746
   1464  O4'       19.3810  -27.7550   -0.0040 O.3    72  DT72       -0.3327
   1465  C3'       19.0050  -28.2610   -2.2390 C.3    72  DT72        0.1558
   1466  O3'       17.9940  -28.5480   -3.2090 O.3    72  DT72       -0.3138
   1467  C2'       19.3050  -26.7640   -2.1700 C.3    72  DT72        0.0866
   1468  C1'       19.8170  -26.6180   -0.7340 C.3    72  DT72        0.2106
   1469  N1        21.3280  -26.6320   -0.5630 N.ar   72  DT72       -0.2559
   1470  C2        21.9570  -25.4150   -0.7420 C.ar   72  DT72        0.3545
   1471  O2        21.3590  -24.3950   -1.0380 O.2    72  DT72       -0.2443
   1472  N3        23.3190  -25.4320   -0.5640 N.ar   72  DT72       -0.1533
   1473  C4        24.0980  -26.5210   -0.2310 C.ar   72  DT72        0.2804
   1474  O4        25.3120  -26.3800   -0.1050 O.2    72  DT72       -0.2654
   1475  C5        23.3720  -27.7480   -0.0630 C.ar   72  DT72        0.0534
   1476  C6        22.0470  -27.7590   -0.2310 C.ar   72  DT72        0.0824
   1477  C7        24.1310  -28.9900    0.2990 C.3    72  DT72        0.0377
   1478  P         18.6300  -28.1150   -4.3540 P.3    73  DA73        0.2141
   1479  OP1       17.2650  -28.1800   -4.9400 O.3    73  DA73       -0.4373
   1480  OP2       19.7700  -28.7200   -5.0860 O.2    73  DA73       -0.5172
   1481  O5'       19.0030  -26.5870   -4.0760 O.3    73  DA73       -0.3114
   1482  C5'       19.5620  -25.7690   -5.1110 C.3    73  DA73        0.1812
   1483  C4'       18.7410  -24.5110   -5.2960 C.3    73  DA73        0.1775
   1484  O4'       17.3500  -24.9040   -5.4270 O.3    73  DA73       -0.3326
   1485  C3'       18.7650  -23.5250   -4.1360 C.3    73  DA73        0.1864
   1486  O3'       19.8300  -22.5870   -4.2720 O.3    73  DA73       -0.2133
   1487  C2'       17.4070  -22.8390   -4.2410 C.3    73  DA73        0.0894
   1488  C1'       16.5170  -23.9830   -4.7430 C.3    73  DA73        0.2095
   1489  N9        15.7050  -24.3990   -3.9200 N.ar   73  DA73       -0.2714
   1490  C8        15.8600  -25.6500   -3.3810 C.ar   73  DA73        0.1815
   1491  N7        14.8070  -26.0790   -2.7270 N.ar   73  DA73       -0.2193
   1492  C5        13.8980  -25.0390   -2.8440 C.ar   73  DA73        0.1518
   1493  C6        12.5850  -24.8720   -2.3690 C.ar   73  DA73        0.1919
   1494  N6        11.9360  -25.7920   -1.6520 N.pl3  73  DA73       -0.1054
   1495  N1        11.9560  -23.7130   -2.6610 N.ar   73  DA73       -0.2040
   1496  C2        12.6070  -22.7930   -3.3800 C.ar   73  DA73        0.2016
   1497  N3        13.8390  -22.8340   -3.8830 N.ar   73  DA73       -0.2048
   1498  C4        14.4370  -23.9970   -3.5750 C.ar   73  DA73        0.1691
   1499  P         20.7560  -21.5900   -3.0440 P.3    74  DC74        0.3939
   1500  OP1       20.7090  -21.4760   -4.5250 O.3    74  DC74       -0.1496
   1501  OP2       22.0220  -21.2850   -2.3230 O.3    74  DC74       -0.1425
   1502  O5'       19.5970  -20.6900   -2.4270 O.3    74  DC74       -0.2926
   1503  C5'       19.6660  -20.2320   -1.0720 C.3    74  DC74        0.1828
   1504  C4'       18.6740  -20.9770   -0.2140 C.3    74  DC74        0.1747
   1505  O4'       18.9840  -22.3950   -0.2470 O.3    74  DC74       -0.3327
   1506  C3'       18.7400  -20.6240    1.2600 C.3    74  DC74        0.1558
   1507  O3'       18.0200  -19.4330    1.5570 O.3    74  DC74       -0.3138
   1508  C2'       18.1760  -21.8720    1.9270 C.3    74  DC74        0.0866
   1509  C1'       18.7570  -22.9650    1.0350 C.3    74  DC74        0.2106
   1510  N1        20.0910  -23.6100    1.5630 N.ar   74  DC74       -0.2556
   1511  C2        20.0330  -24.5180    2.6270 C.ar   74  DC74        0.3531
   1512  O2        18.9860  -24.5910    3.2930 O.2    74  DC74       -0.2443
   1513  N3        21.1150  -25.2850    2.9000 N.ar   74  DC74       -0.1739
   1514  C4        22.2180  -25.1710    2.1590 C.ar   74  DC74        0.1759
   1515  N4        23.2590  -25.9480    2.4650 N.pl3  74  DC74       -0.1070
   1516  C5        22.2970  -24.2570    1.0760 C.ar   74  DC74        0.0566
   1517  C6        21.2260  -23.5010    0.8110 C.ar   74  DC74        0.0849
   1518  P         18.5100  -18.6190    2.5050 P.3    75  DC75        0.2141
   1519  OP1       18.7390  -17.4570    1.6160 O.2    75  DC75       -0.5172
   1520  OP2       19.4610  -18.8940    3.6080 O.3    75  DC75       -0.4373
   1521  O5'       17.0350  -18.5190    3.1240 O.3    75  DC75       -0.3114
   1522  C5'       16.8030  -18.8420    4.4960 C.3    75  DC75        0.1811
   1523  C4'       16.0520  -20.1500    4.6790 C.3    75  DC75        0.1746
   1524  O4'       16.7690  -21.2320    4.0340 O.3    75  DC75       -0.3327
   1525  C3'       15.9300  -20.6150    6.1230 C.3    75  DC75        0.1558
   1526  O3'       14.8570  -19.9670    6.7870 O.3    75  DC75       -0.3138
   1527  C2'       15.6570  -22.0980    5.9180 C.3    75  DC75        0.0866
   1528  C1'       16.6880  -22.3950    4.8370 C.3    75  DC75        0.2106
   1529  N1        18.2030  -22.5970    5.1800 N.ar   75  DC75       -0.2556
   1530  C2        18.6070  -23.7740    5.8200 C.ar   75  DC75        0.3531
   1531  O2        17.7440  -24.6150    6.1260 O.2    75  DC75       -0.2443
   1532  N3        19.9210  -23.9620    6.0870 N.ar   75  DC75       -0.1739
   1533  C4        20.8120  -23.0320    5.7420 C.ar   75  DC75        0.1759
   1534  N4        22.0960  -23.2610    6.0250 N.pl3  75  DC75       -0.1070
   1535  C5        20.4230  -21.8320    5.0930 C.ar   75  DC75        0.0566
   1536  C6        19.1240  -21.6510    4.8310 C.ar   75  DC75        0.0849
   1537  P         15.1260  -19.1700    8.2230 P.3    76  DG76        0.2141
   1538  OP1       14.3850  -17.9550    8.6460 O.2    76  DG76       -0.5172
   1539  OP2       16.5440  -19.3660    8.6690 O.3    76  DG76       -0.4373
   1540  O5'       14.2930  -20.4600    8.6870 O.3    76  DG76       -0.3114
   1541  C5'       14.0850  -21.5880    7.8320 C.3    76  DG76        0.1811
   1542  C4'       14.2810  -22.8890    8.5860 C.3    76  DG76        0.1746
   1543  O4'       15.4310  -23.5960    8.0650 O.3    76  DG76       -0.3327
   1544  C3'       14.5240  -22.7820   10.0790 C.3    76  DG76        0.1558
   1545  O3'       13.2910  -22.7250   10.7770 O.3    76  DG76       -0.3138
   1546  C2'       15.3040  -24.0490   10.3970 C.3    76  DG76        0.0865
   1547  C1'       16.1050  -24.2560    9.1170 C.3    76  DG76        0.2094
   1548  N9        17.4390  -23.7760    9.1960 N.ar   76  DG76       -0.2713
   1549  C8        17.9050  -22.5400    8.8180 C.ar   76  DG76        0.1816
   1550  N7        19.1600  -22.3480    9.1230 N.ar   76  DG76       -0.2173
   1551  C5        19.5480  -23.5250    9.7360 C.ar   76  DG76        0.1748
   1552  C6        20.7980  -23.9110   10.2850 C.ar   76  DG76        0.3023
   1553  O6        21.8480  -23.2570   10.3340 O.2    76  DG76       -0.2633
   1554  N1        20.7590  -25.1980   10.8140 N.ar   76  DG76       -0.1709
   1555  C2        19.6520  -26.0120   10.8150 C.ar   76  DG76        0.2606
   1556  N2        19.8080  -27.2210   11.3710 N.pl3  76  DG76       -0.0859
   1557  N3        18.4840  -25.6670   10.3100 N.ar   76  DG76       -0.1918
   1558  C4        18.4980  -24.4210    9.7910 C.ar   76  DG76        0.1722
   1559  P         13.3330  -22.3270   12.5490 P.3    77  DT77        0.2141
   1560  OP1       11.9280  -22.3120   13.0460 O.3    77  DT77       -0.4373
   1561  OP2       14.0780  -21.0400   12.4260 O.2    77  DT77       -0.5172
   1562  O5'       14.1950  -23.2970   13.4900 O.3    77  DT77       -0.3114
   1563  C5'       13.7480  -24.6230   13.8070 C.3    77  DT77        0.1811
   1564  C4'       14.8350  -25.3960   14.5350 C.3    77  DT77        0.1746
   1565  O4'       16.0200  -25.5030   13.6860 O.3    77  DT77       -0.3327
   1566  C3'       15.3740  -24.7660   15.8200 C.3    77  DT77        0.1558
   1567  O3'       14.5300  -24.9840   16.9630 O.3    77  DT77       -0.3138
   1568  C2'       16.7380  -25.4450   15.9720 C.3    77  DT77        0.0866
   1569  C1'       17.1870  -25.5690   14.5080 C.3    77  DT77        0.2106
   1570  N1        18.1170  -24.5610   14.1080 N.ar   77  DT77       -0.2559
   1571  C2        19.4360  -24.6860   14.5030 C.ar   77  DT77        0.3545
   1572  O2        19.8620  -25.6600   15.0970 O.2    77  DT77       -0.2443
   1573  N3        20.2430  -23.6230   14.1770 N.ar   77  DT77       -0.1533
   1574  C4        19.8720  -22.4740   13.5100 C.ar   77  DT77        0.2804
   1575  O4        20.7120  -21.6050   13.2880 O.2    77  DT77       -0.2654
   1576  C5        18.4870  -22.4190   13.1340 C.ar   77  DT77        0.0534
   1577  C6        17.6800  -23.4390   13.4390 C.ar   77  DT77        0.0824
   1578  C7        17.9850  -21.2080   12.4040 C.3    77  DT77        0.0377
   1579  P         14.6010  -23.9950   18.2260 P.3    78  DG78        0.2141
   1580  OP1       13.6060  -24.7050   19.0610 O.3    78  DG78       -0.4373
   1581  OP2       14.4890  -22.5190   18.1090 O.2    78  DG78       -0.5172
   1582  O5'       16.0550  -24.4100   18.7600 O.3    78  DG78       -0.3114
   1583  C5'       16.0700  -25.7110   19.3550 C.3    78  DG78        0.1811
   1584  C4'       17.4410  -26.2310   19.6220 C.3    78  DG78        0.1746
   1585  O4'       18.2230  -26.0550   18.4380 O.3    78  DG78       -0.3327
   1586  C3'       18.2060  -25.4650   20.6730 C.3    78  DG78        0.1558
   1587  O3'       17.8070  -25.6780   22.0510 O.3    78  DG78       -0.3138
   1588  C2'       19.6440  -25.7390   20.3110 C.3    78  DG78        0.0865
   1589  C1'       19.5720  -25.7500   18.8250 C.3    78  DG78        0.2094
   1590  N9        20.0170  -24.4980   18.2710 N.ar   78  DG78       -0.2713
   1591  C8        19.2070  -23.5740   17.6570 C.ar   78  DG78        0.1816
   1592  N7        19.8640  -22.5630   17.1570 N.ar   78  DG78       -0.2173
   1593  C5        21.1870  -22.8340   17.4540 C.ar   78  DG78        0.1748
   1594  C6        22.3660  -22.0980   17.1690 C.ar   78  DG78        0.3023
   1595  O6        22.4700  -21.0200   16.5710 O.2    78  DG78       -0.2633
   1596  N1        23.5060  -22.7330   17.6540 N.ar   78  DG78       -0.1709
   1597  C2        23.5090  -23.9300   18.3300 C.ar   78  DG78        0.2606
   1598  N2        24.7080  -24.3850   18.7190 N.pl3  78  DG78       -0.0859
   1599  N3        22.4220  -24.6240   18.6030 N.ar   78  DG78       -0.1918
   1600  C4        21.3030  -24.0260   18.1430 C.ar   78  DG78        0.1722
   1601  P         17.5030  -24.3930   23.1490 P.3    79  DA79        0.2141
   1602  OP1       17.0650  -24.9160   24.4590 O.3    79  DA79       -0.4373
   1603  OP2       16.9580  -23.1090   22.6400 O.2    79  DA79       -0.5172
   1604  O5'       19.0850  -24.2760   23.1850 O.3    79  DA79       -0.3114
   1605  C5'       19.8730  -25.3270   23.7350 C.3    79  DA79        0.1811
   1606  C4'       21.3260  -25.0110   23.5510 C.3    79  DA79        0.1746
   1607  O4'       21.5890  -24.8880   22.1320 O.3    79  DA79       -0.3327
   1608  C3'       21.7850  -23.6760   24.1120 C.3    79  DA79        0.1558
   1609  O3'       22.0680  -23.7770   25.5030 O.3    79  DA79       -0.3138
   1610  C2'       23.0400  -23.4200   23.2950 C.3    79  DA79        0.0865
   1611  C1'       22.6060  -23.9250   21.9180 C.3    79  DA79        0.2094
   1612  N9        22.0490  -22.9160   21.0560 N.ar   79  DA79       -0.2714
   1613  C8        20.7460  -22.5750   20.8010 C.ar   79  DA79        0.1815
   1614  N7        20.6160  -21.5240   20.0260 N.ar   79  DA79       -0.2193
   1615  C5        21.9220  -21.1490   19.7540 C.ar   79  DA79        0.1518
   1616  C6        22.4660  -20.1050   18.9850 C.ar   79  DA79        0.1919
   1617  N6        21.7270  -19.2120   18.3230 N.pl3  79  DA79       -0.1054
   1618  N1        23.8110  -20.0090   18.9210 N.ar   79  DA79       -0.2040
   1619  C2        24.5510  -20.9050   19.5850 C.ar   79  DA79        0.2016
   1620  N3        24.1570  -21.9290   20.3380 N.ar   79  DA79       -0.2048
   1621  C4        22.8160  -21.9960   20.3820 C.ar   79  DA79        0.1691
   1622  P         22.1400  -22.9360   25.7460 P.3    80  DA80        0.2141
   1623  OP1       22.3170  -23.5090   27.1080 O.3    80  DA80       -0.4373
   1624  OP2       21.1390  -21.8560   25.5260 O.2    80  DA80       -0.5172
   1625  O5'       23.5450  -22.4120   25.2050 O.3    80  DA80       -0.3114
   1626  C5'       24.2940  -21.4740   25.9620 C.3    80  DA80        0.1811
   1627  C4'       25.7340  -21.4430   25.5080 C.3    80  DA80        0.1753
   1628  O4'       25.8500  -20.6390   24.3000 O.3    80  DA80       -0.3510
   1629  C3'       26.6320  -20.7430   26.5140 C.3    80  DA80        0.1839
   1630  O3'       27.0580  -21.6370   27.5300 O.3    80  DA80       -0.2204
   1631  C2'       27.7530  -20.1880   25.6460 C.3    80  DA80        0.0676
   1632  C1'       26.9800  -19.7820   24.3910 C.3    80  DA80        0.1450
   1633  N9        24.6640  -19.3490   23.1300 N.2    80  DA80       -0.0102
   1634  C8        23.3700  -19.3170   23.5830 C.2    80  DA80        0.3354
   1635  N7        22.6200  -18.4270   22.9780 N.2    80  DA80       -0.2028
   1636  C5        23.4790  -17.8330   22.0670 C.3    80  DA80        0.3315
   1637  C6        23.2930  -16.8110   21.1200 C.2    80  DA80        0.4301
   1638  N6        22.1310  -16.1830   20.9280 N.pl3  80  DA80        0.2140
   1639  N1        24.3560  -16.4530   20.3680 N.2    80  DA80        0.0200
   1640  C2        25.5210  -17.0830   20.5610 C.2    80  DA80        0.4720
   1641  N3        25.8170  -18.0570   21.4180 N.2    80  DA80        0.0177
   1642  C4        24.7410  -18.3900   22.1500 C.2    80  DA80        0.3923
@<TRIPOS>BOND
     1   555   554    1
     2   581   580    2
     3   563   564    1
     4   563   562    1
     5   563   565    1
     6   566   565    1
     7   566   580    1
     8   583   580    1
     9   583   584    1
    10   567   568    1
    11   567   565    1
    12   564   568    1
    13   568   569    1
    14   562   561    1
    15   585   586    1
    16   585   584    1
    17   585   587    1
    18   580   582    1
    19   586   590    1
    20   554   556   ar
    21   554   553   ar
    22   602   601    2
    23   556   557   ar
    24   588   587    1
    25   588   601    1
    26   578   576   ar
    27   578   579   ar
    28   545   546    1
    29   545   543    1
    30   577   576    1
    31   590   589    1
    32   590   591    1
    33   587   589    1
    34   569   579   ar
    35   569   570   ar
    36   546   547    1
    37   546   542    1
    38   394   393    2
    39   553   551   ar
    40   561   558    1
    41   601   603    1
    42   601   604    1
    43   576   575   ar
    44   544   543    1
    45   544   558    1
    46   579   572   ar
    47   557   547   ar
    48   557   550   ar
    49   559   558    2
    50   543   541    1
    51   547   548   ar
    52   542   541    1
    53   558   560    1
    54   605   604    1
    55   605   606    1
    56   570   571   ar
    57   591   592   ar
    58   591   600   ar
    59   541   540    1
    60   397   396    1
    61   397   398    1
    62   551   550   ar
    63   551   552    2
    64   393   381    1
    65   393   396    1
    66   393   395    1
    67   592   593   ar
    68   550   549   ar
    69   575   573   ar
    70   572   571   ar
    71   572   573   ar
    72   381   380    1
    73   416   415    2
    74   606   607    1
    75   606   608    1
    76   600   599   ar
    77   600   594   ar
    78   599   598   ar
    79   607   611    1
    80   548   549   ar
    81   374   373    2
    82   401   415    1
    83   401   400    1
    84   573   574    2
    85   398   400    1
    86   398   399    1
    87   540   539    1
    88   415   417    1
    89   415   418    1
    90   593   594   ar
    91   529   528    2
    92   377   378    1
    93   377   376    1
    94   378   380    1
    95   378   379    1
    96   380   382    1
    97   530   528   ar
    98   530   531   ar
    99   532   531    2
   100   594   595   ar
   101   400   402    1
   102   609   608    1
   103   609   621    1
   104   608   610    1
   105   598   597   ar
   106   611   610    1
   107   611   612    1
   108   539   536    1
   109   399   403    1
   110   528   527   ar
   111   360   373    1
   112   360   359    1
   113   373   376    1
   114   373   375    1
   115   531   533   ar
   116   620   618    1
   117   419   418    1
   118   419   420    1
   119   382   383    1
   120   619   612   ar
   121   619   618   ar
   122   436   434    2
   123   622   621    2
   124   379   383    1
   125   525   526    1
   126   525   523    1
   127   435   434    1
   128   402   403    1
   129   621   623    1
   130   621   624    1
   131   612   613   ar
   132   618   616   ar
   133   595   597   ar
   134   595   596    1
   135   361   359    1
   136   361   362    1
   137   357   359    1
   138   357   356    1
   139   357   358    1
   140   403   404    1
   141   383   384    1
   142   434   423    1
   143   434   437    1
   144   527   526    1
   145   527   534   ar
   146   537   536    2
   147   524   536    1
   148   524   523    1
   149   536   538    1
   150   526   522    1
   151   533   534   ar
   152   533   535    1
   153   420   422    1
   154   420   421    1
   155   356   355    1
   156   624   625    1
   157   423   422    1
   158   523   521    1
   159   405   404   ar
   160   405   406   ar
   161   358   362    1
   162   613   614    2
   163   613   615   ar
   164   362   363    1
   165   422   424    1
   166   616   615   ar
   167   616   617    2
   168   404   414   ar
   169   634   633   ar
   170   634   635   ar
   171   633   632   ar
   172   384   391   ar
   173   384   385   ar
   174   437   438    1
   175   421   425    1
   176   513   512    1
   177   522   521    1
   178   391   390   ar
   179   406   407   ar
   180   353   352    2
   181   637   636    1
   182   355   352    1
   183   458   456    2
   184   493   492    2
   185   521   520    1
   186   625   626    1
   187   433   432   ar
   188   433   426   ar
   189   627   626    1
   190   627   631    1
   191   386   385    2
   192   635   636   ar
   193   635   641   ar
   194   363   372   ar
   195   363   364   ar
   196   438   439    1
   197   414   407   ar
   198   414   413   ar
   199   432   430   ar
   200   371   372   ar
   201   371   370   ar
   202   385   387   ar
   203   424   425    1
   204   496   494    1
   205   632   631    1
   206   632   641   ar
   207   512   511   ar
   208   512   514   ar
   209   636   638   ar
   210   352   338    1
   211   352   354    1
   212   425   426    1
   213   511   509   ar
   214   626   628    1
   215   407   408   ar
   216   372   366   ar
   217   492   494   ar
   218   492   491   ar
   219   413   411   ar
   220   472   471    1
   221   390   392    1
   222   390   388   ar
   223   631   630    1
   224   426   427   ar
   225   788   787    1
   226   788   789    1
   227   788   790    1
   228   804   803    2
   229   641   640   ar
   230   456   457    1
   231   456   459    1
   232   456   442    1
   233   364   365   ar
   234   370   369   ar
   235   338   337    1
   236   520   519    1
   237   661   659    1
   238   787   786    1
   239   791   790    1
   240   791   803    1
   241   494   495   ar
   242   807   808    1
   243   807   806    1
   244   658   657    2
   245   514   515   ar
   246   349   348    1
   247   789   793    1
   248   519   516    1
   249   387   388   ar
   250   430   431    1
   251   430   429   ar
   252   339   337    1
   253   339   340    1
   254   479   477    2
   255   469   470   ar
   256   469   468   ar
   257   491   489   ar
   258   439   440    1
   259   439   441    1
   260   772   773    1
   261   772   770    1
   262   509   510    2
   263   509   508   ar
   264   447   446   ar
   265   447   448   ar
   266   446   445   ar
   267   638   639   ar
   268   792   790    1
   269   792   793    1
   270   628   630    1
   271   628   629    1
   272   808   809    1
   273   808   810    1
   274   793   794    1
   275   388   389    2
   276   771   770    1
   277   771   783    1
   278   644   642    2
   279   471   470   ar
   280   471   473   ar
   281   408   409    2
   282   408   410   ar
   283   440   444    1
   284   803   806    1
   285   803   805    1
   286   366   365   ar
   287   366   367   ar
   288   768   770    1
   289   768   769    1
   290   768   767    1
   291   411   410   ar
   292   411   412    1
   293   773   769    1
   294   773   774    1
   295   517   516    2
   296   441   442    1
   297   441   443    1
   298   337   335    1
   299   427   429   ar
   300   427   428    2
   301   459   460    1
   302   640   639   ar
   303   776   775    2
   304   657   659   ar
   305   657   656   ar
   306   518   516    1
   307   470   476   ar
   308   350   348   ar
   309   350   351   ar
   310   756   755    2
   311   495   488   ar
   312   659   660   ar
   313   348   347   ar
   314   468   467   ar
   315   515   508   ar
   316   516   505    1
   317   369   367   ar
   318   809   813    1
   319   826   825    2
   320   340   336    1
   321   340   341    1
   322   499   497    2
   323   508   507    1
   324   786   783    1
   325   811   810    1
   326   811   825    1
   327   784   783    2
   328   489   488   ar
   329   489   490    2
   330   335   336    1
   331   335   334    1
   332   629   642    1
   333   445   444    1
   334   445   455   ar
   335   367   368    1
   336   767   766    1
   337   448   449   ar
   338   448   455   ar
   339   473   474   ar
   340   477   478    1
   341   477   480    1
   342   477   464    1
   343   642   643    1
   344   642   645    1
   345   783   785    1
   346   450   449    2
   347   810   812    1
   348   796   795    2
   349   488   487    1
   350   444   443    1
   351   775   774   ar
   352   775   777   ar
   353   774   781   ar
   354   794   795   ar
   355   794   801   ar
   356   825   827    1
   357   825   828    1
   358   506   504    1
   359   506   507    1
   360   351   341   ar
   361   351   344   ar
   362   656   654   ar
   363   813   812    1
   364   813   814    1
   365   660   653   ar
   366   347   345   ar
   367   752   753    1
   368   752   750    1
   369   505   504    1
   370   504   502    1
   371   755   754   ar
   372   755   757   ar
   373   449   451   ar
   374   476   467   ar
   375   476   475   ar
   376   753   749    1
   377   753   754    1
   378   480   481    1
   379   467   466    1
   380   678   677    2
   381   460   461    1
   382   341   342   ar
   383   463   464    1
   384   463   465    1
   385   463   461    1
   386   455   454   ar
   387   795   797   ar
   388   507   503    1
   389   500   497    1
   390   500   501    1
   391   497   498    1
   392   497   485    1
   393   829   828    1
   394   829   830    1
   395   334   333    1
   396   801   800   ar
   397   474   475   ar
   398   736   735    2
   399   749   748    1
   400   754   761   ar
   401   698   697    1
   402   766   763    1
   403   484   486    1
   404   484   485    1
   405   484   482    1
   406   757   758   ar
   407   781   780   ar
   408   486   487    1
   409   465   466    1
   410   777   778   ar
   411   645   646    1
   412   748   750    1
   413   748   747    1
   414   461   462    1
   415   487   483    1
   416   344   345   ar
   417   344   343   ar
   418   653   654   ar
   419   653   652    1
   420   654   655    2
   421   751   750    1
   422   751   763    1
   423   345   346    2
   424   466   462    1
   425   677   676   ar
   426   677   679   ar
   427   503   502    1
   428   814   815   ar
   429   814   824   ar
   430   502   501    1
   431   451   452   ar
   432   342   343   ar
   433   830   831    1
   434   830   832    1
   435   681   679    1
   436   481   482    1
   437   454   452   ar
   438   764   763    2
   439   797   798   ar
   440   483   482    1
   441   815   816   ar
   442   333   330    1
   443   699   697   ar
   444   699   700   ar
   445   735   737   ar
   446   735   734   ar
   447   737   738   ar
   448   676   674   ar
   449   763   765    1
   450   697   696   ar
   451   646   647    1
   452   800   798   ar
   453   800   802    1
   454   327   328   ar
   455   327   326   ar
   456   648   652    1
   457   648   647    1
   458   831   835    1
   459   780   778   ar
   460   780   782    1
   461   679   680   ar
   462   778   779    2
   463   452   453    1
   464   747   746    1
   465   847   846    2
   466   761   760   ar
   467   328   329   ar
   468   758   759    2
   469   758   760   ar
   470   652   651    1
   471   798   799    2
   472   833   846    1
   473   833   832    1
   474   824   823   ar
   475   824   817   ar
   476   716   715    2
   477   331   330    2
   478   326   324   ar
   479   647   649    1
   480   318   319    1
   481   318   316    1
   482   732   733    1
   483   732   730    1
   484   823   821   ar
   485   700   701   ar
   486   846   848    1
   487   846   849    1
   488   739   738    2
   489   832   834    1
   490   816   817   ar
   491   738   740   ar
   492   760   762    1
   493   733   734    1
   494   733   729    1
   495   734   741   ar
   496   674   675    2
   497   674   673   ar
   498   330   317    1
   499   330   332    1
   500   717   715   ar
   501   717   718   ar
   502   649   651    1
   503   649   650    1
   504   696   695   ar
   505   696   702   ar
   506   317   316    1
   507   746   743    1
   508   680   673   ar
   509   664   662    2
   510   835   834    1
   511   835   836    1
   512   715   714   ar
   513   817   818   ar
   514   719   718    2
   515   837   836   ar
   516   837   838   ar
   517   329   320   ar
   518   329   323   ar
   519   695   694   ar
   520   319   320    1
   521   319   315    1
   522   673   672    1
   523   850   849    1
   524   850   851    1
   525   834   865    1
   526   316   314    1
   527   718   720   ar
   528   821   822    1
   529   821   820   ar
   530   324   323   ar
   531   324   325    1
   532   701   702   ar
   533   836   845   ar
   534   702   693   ar
   535   741   740   ar
   536   740   742    1
   537   729   728    1
   538   730   731    1
   539   730   728    1
   540   320   321   ar
   541   650   662    1
   542   731   743    1
   543   838   839   ar
   544   323   322   ar
   545   314   315    1
   546   314   313    1
   547   714   713    1
   548   714   721   ar
   549   743   744    2
   550   743   745    1
   551   818   820   ar
   552   818   819    2
   553   662   665    1
   554   662   663    1
   555   728   727    1
   556   694   693   ar
   557   851   852    1
   558   851   853    1
   559   665   666    1
   560   672   668    1
   561   672   671    1
   562   852   856    1
   563   206   205    2
   564   713   712    1
   565   713   709    1
   566   865   863    1
   567   668   667    1
   568   693   692    1
   569   720   721   ar
   570   720   722    1
   571   184   183    2
   572   845   839   ar
   573   845   844    1
   574   321   322   ar
   575   839   840    1
   576   712   710    1
   577   864   863   ar
   578   864   857   ar
   579   666   667    1
   580   313   312    1
   581   863   861   ar
   582   709   708    1
   583   671   669    1
   584   844   843    2
   585   853   854    1
   586   853   855    1
   587   667   669    1
   588   727   726    1
   589   856   857    1
   590   856   855    1
   591   205   191    1
   592   205   207    1
   593   205   208    1
   594   692   691    1
   595   692   688    1
   596   187   186    1
   597   187   188    1
   598   669   670    1
   599   191   190    1
   600   854   866    1
   601   857   858   ar
   602   312   309    1
   603   227   226    2
   604   726   723    1
   605   840   841    1
   606   840   842    1
   607   183   186    1
   608   183   170    1
   609   183   185    1
   610   303   302    2
   611   209   208    1
   612   209   210    1
   613   861   862    1
   614   861   860   ar
   615   710   708    1
   616   710   711    1
   617   691   689    1
   618   684   682    2
   619   868   866    2
   620   688   687    1
   621   708   707    1
   622   188   190    1
   623   188   189    1
   624   843   862    1
   625   843   842    2
   626   170   169    1
   627   228   226    1
   628   304   302   ar
   629   304   305   ar
   630   213   226    1
   631   213   212    1
   632   226   229    1
   633   858   860   ar
   634   858   859    2
   635   190   192    1
   636   302   301   ar
   637   163   162    2
   638   711   723    1
   639   866   867    1
   640   866   869    1
   641   670   682    1
   642   306   305    1
   643   723   725    2
   644   723   724    1
   645   210   212    1
   646   210   211    1
   647   689   687    1
   648   689   690    1
   649   682   685    1
   650   682   683    1
   651   305   307   ar
   652   309   310    2
   653   309   311    1
   654   309   298    1
   655   299   300    1
   656   299   297    1
   657   212   214    1
   658   707   706    1
   659   687   686    1
   660   706   703    1
   661   166   167    1
   662   166   165    1
   663   189   193    1
   664   169   167    1
   665   169   171    1
   666   301   300    1
   667   301   308   ar
   668   167   168    1
   669   192   193    1
   670   685   686    1
   671   298   297    1
   672   300   296    1
   673   229   230    1
   674   162   165    1
   675   162   164    1
   676   162   151    1
   677   869   870    1
   678   690   703    1
   679   250   248    2
   680   297   295    1
   681   211   215    1
   682   879   878   ar
   683   879   880   ar
   684   307   308   ar
   685   882   881    1
   686   171   172    1
   687   193   194    1
   688   230   231    1
   689   878   877   ar
   690   703   705    2
   691   703   704    1
   692   214   215    1
   693   286   285    2
   694   249   248    1
   695   289   287    1
   696   151   150    1
   697   168   172    1
   698   248   234    1
   699   248   251    1
   700   880   881   ar
   701   880   886   ar
   702   870   871    1
   703   881   883   ar
   704   215   216    1
   705   195   194   ar
   706   195   196   ar
   707   296   295    1
   708   194   204   ar
   709   217   216   ar
   710   217   218   ar
   711   295   294    1
   712   172   173    1
   713   872   871    1
   714   872   876    1
   715   285   287   ar
   716   285   284   ar
   717   272   270    2
   718   877   886   ar
   719   877   876    1
   720   234   233    1
   721   216   225   ar
   722   231   233    1
   723   231   232    1
   724   287   288   ar
   725   233   235    1
   726   886   885   ar
   727   871   873    1
   728   238   239   ar
   729   238   237   ar
   730   218   219   ar
   731   239   240   ar
   732   144   143    1
   733   903   902    1
   734   883   884   ar
   735  1484  1483    1
   736  1484  1488    1
   737   293   294    1
   738   293   290    1
   739   196   197   ar
   740   876   875    1
   741   150   152    1
   742   150   148    1
   743  1483  1482    1
   744  1483  1485    1
   745   264   263    2
   746   261   260   ar
   747   261   262   ar
   748   251   252    1
   749   204   203   ar
   750   204   197   ar
   751   292   290    2
   752  1482  1481    1
   753  1480  1478    2
   754   173   174   ar
   755   173   182   ar
   756   284   282   ar
   757   232   236    1
   758  1479  1478    1
   759   174   175   ar
   760   152   153    1
   761  1488  1487    1
   762  1488  1489    1
   763   203   201   ar
   764   271   270    1
   765   288   281   ar
   766   147   148    1
   767   147   146    1
   768   270   256    1
   769   270   273    1
   770   260   259   ar
   771   148   149    1
   772   225   219   ar
   773   225   224   ar
   774   197   198   ar
   775  1500  1486    1
   776  1500  1499    1
   777   884   885   ar
   778   873   875    1
   779   873   874    1
   780   290   291    1
   781   290   278    1
   782   902   904   ar
   783   902   901   ar
   784   889   887    2
   785   219   220   ar
   786   237   236    1
   787   237   247   ar
   788   263   262   ar
   789   263   265   ar
   790  1478  1481    1
   791  1478  1466    1
   792   262   269   ar
   793   240   241   ar
   794   240   247   ar
   795  1486  1485    1
   796  1487  1485    1
   797   904   905   ar
   798   242   241    2
   799   235   236    1
   800   182   181   ar
   801   182   176   ar
   802   279   277    1
   803   279   280    1
   804   143   145    2
   805   252   253    1
   806   255   256    1
   807   255   257    1
   808   255   253    1
   809  1489  1498   ar
   810  1489  1490   ar
   811   282   281   ar
   812   282   283    2
   813   181   180   ar
   814  1497  1498   ar
   815  1497  1496   ar
   816   175   176   ar
   817   281   280    1
   818   224   223   ar
   819   241   243   ar
   820   273   274    1
   821   146   130    1
   822   901   899   ar
   823   247   246   ar
   824  1498  1492   ar
   825   201   202    1
   826   201   200   ar
   827   277   278    1
   828   277   275    1
   829   874   887    1
   830   259   269   ar
   831   259   258    1
   832  1490  1491   ar
   833  1496  1495   ar
   834   257   258    1
   835   198   200   ar
   836   198   199    2
   837   176   177   ar
   838   153   149    1
   839   153   154    1
   840   887   888    1
   841   887   890    1
   842   265   266   ar
   843  1466  1465    1
   844   253   254    1
   845   269   268   ar
   846   220   221    1
   847   220   222   ar
   848   905   898   ar
   849  1499  1502    1
   850  1499  1501    1
   851   280   276    1
   852   130   129    1
   853  1492  1491   ar
   854  1492  1493   ar
   855   180   179   ar
   856   258   254    1
   857   922   921    1
   858  1495  1493   ar
   859   223   222   ar
   860   899   898   ar
   861   899   900    2
   862   243   244   ar
   863   154   161   ar
   864   154   155   ar
   865  1502  1503    1
   866   274   275    1
   867   246   244   ar
   868  1493  1494    1
   869   275   276    1
   870   898   897    1
   871   161   160   ar
   872  1465  1467    1
   873  1465  1463    1
   874   156   155    2
   875   177   179   ar
   876   177   178    1
   877   890   891    1
   878  1467  1468    1
   879   266   268   ar
   880   266   267    1
   881   155   157   ar
   882   244   245    1
   883   921   920   ar
   884   921   923   ar
   885   129   131    1
   886   129   127    1
   887   996   995    2
   888   160   158   ar
   889   920   918   ar
   890   893   897    1
   891   893   892    1
   892   976   975    2
   893   123   122    2
   894   157   158   ar
   895   897   896    1
   896   131   132    1
   897  1503  1504    1
   898  1471  1470    2
   899   158   159    1
   900   891   892    1
   901   923   924   ar
   902   941   940    1
   903  1463  1462    1
   904  1463  1464    1
   905  1470  1472   ar
   906  1470  1469   ar
   907  1468  1469    1
   908  1468  1464    1
   909   957   956    2
   910   127   126    1
   911   127   128    1
   912   995   997   ar
   913   995   994   ar
   914  1472  1473   ar
   915  1469  1476   ar
   916   126   125    1
   917   125   122    1
   918   958   956   ar
   919   958   959   ar
   920   975   977   ar
   921   975   974   ar
   922   892   894    1
   923  1462  1461    1
   924   918   919    2
   925   918   917   ar
   926  1461  1458    1
   927  1505  1504    1
   928  1505  1509    1
   929  1473  1474    2
   930  1473  1475   ar
   931  1476  1475   ar
   932   977   978   ar
   933  1504  1506    1
   934   997   998   ar
   935   122   124    1
   936   122   111    1
   937   960   959    1
   938  1459  1458    2
   939   939   940   ar
   940   939   937   ar
   941  1475  1477    1
   942   940   942   ar
   943   956   955   ar
   944   896   894    1
   945   894   895    1
   946   924   917   ar
   947   993   994    1
   948   993   989    1
   949   993   992    1
   950   994  1001   ar
   951   959   961   ar
   952   132   128    1
   953   132   133    1
   954   917   916    1
   955  1458  1460    1
   956  1458  1447    1
   957   973   974    1
   958   973   972    1
   959   973   969    1
   960   974   981   ar
   961  1517  1516   ar
   962  1517  1510   ar
   963   978   979    2
   964   978   980   ar
   965   938   937    2
   966   989   988    1
   967   998   999    2
   968   998  1000   ar
   969   937   936   ar
   970   133   142   ar
   971   133   134   ar
   972   992   990    1
   973  1016  1015    2
   974   908   906    2
   975   972   970    1
   976   141   142   ar
   977   141   140   ar
   978  1509  1510    1
   979  1509  1508    1
   980   111   110    1
   981  1013  1009    1
   982  1013  1014    1
   983  1013  1012    1
   984   942   943   ar
   985  1516  1514   ar
   986  1009  1008    1
   987   142   136   ar
   988   134   135   ar
   989   969   968    1
   990  1506  1507    1
   991  1506  1508    1
   992  1001  1000   ar
   993   955   954    1
   994   955   962   ar
   995   895   906    1
   996   140   139   ar
   997  1015  1014   ar
   998  1015  1017   ar
   999  1507  1518    1
  1000  1510  1511   ar
  1001   988   990    1
  1002   988   987    1
  1003  1519  1518    2
  1004  1000  1002    1
  1005  1014  1021   ar
  1006   916   912    1
  1007   916   915    1
  1008   961   962   ar
  1009   136   135   ar
  1010   136   137   ar
  1011   981   980   ar
  1012   954   953    1
  1013   954   950    1
  1014   980   982    1
  1015  1447  1446    1
  1016  1017  1018   ar
  1017   139   137   ar
  1018   936   943   ar
  1019   936   935    1
  1020  1012  1010    1
  1021   912   911    1
  1022   906   909    1
  1023   906   907    1
  1024  1008  1007    1
  1025  1008  1010    1
  1026   137   138    1
  1027   968   970    1
  1028   968   967    1
  1029   990   991    1
  1030  1514  1515    1
  1031  1514  1513   ar
  1032  1021  1020   ar
  1033   110   112    1
  1034   110   108    1
  1035   953   951    1
  1036   909   910    1
  1037   970   971    1
  1038   112   113    1
  1039  1018  1020   ar
  1040  1018  1019    2
  1041  1518  1521    1
  1042  1518  1520    1
  1043   987   986    1
  1044  1020  1022    1
  1045  1511  1513   ar
  1046  1511  1512    2
  1047  1007  1006    1
  1048   991  1003    1
  1049   950   949    1
  1050   915   913    1
  1051   971   983    1
  1052  1010  1011    1
  1053   935   934    1
  1054   935   931    1
  1055  1446  1448    1
  1056  1446  1444    1
  1057   986   983    1
  1058  1448  1449    1
  1059  1521  1522    1
  1060   911   910    1
  1061   911   913    1
  1062   967   966    1
  1063  1029  1033    1
  1064  1029  1028    1
  1065   913   914    1
  1066   108   107    1
  1067   108   109    1
  1068  1452  1451    2
  1069  1006  1003    1
  1070  1011  1023    1
  1071   951   949    1
  1072   951   952    1
  1073   934   932    1
  1074   983   984    2
  1075   983   985    1
  1076   931   930    1
  1077   107   106    1
  1078   113   114    1
  1079   113   109    1
  1080  1033  1034    1
  1081  1033  1032    1
  1082   104   103    2
  1083   966   963    1
  1084  1028  1027    1
  1085  1028  1030    1
  1086   949   948    1
  1087   116   115    2
  1088  1027  1026    1
  1089  1524  1523    1
  1090  1524  1528    1
  1091  1451  1453   ar
  1092  1451  1450   ar
  1093  1042  1041    1
  1094  1043  1041   ar
  1095  1043  1044   ar
  1096  1003  1004    2
  1097  1003  1005    1
  1098   106   103    1
  1099  1444  1443    1
  1100  1444  1445    1
  1101  1453  1454   ar
  1102  1034  1044   ar
  1103  1034  1035   ar
  1104  1041  1040   ar
  1105   114   115   ar
  1106   114   121   ar
  1107   115   117   ar
  1108   927   925    2
  1109  1044  1037   ar
  1110  1522  1523    1
  1111  1449  1450    1
  1112  1449  1445    1
  1113   952   963    1
  1114  1450  1457   ar
  1115  1523  1525    1
  1116  1443  1442    1
  1117  1035  1036   ar
  1118   914   925    1
  1119   121   120   ar
  1120   103   105    1
  1121   103    89    1
  1122   117   118   ar
  1123  1040  1038   ar
  1124  1536  1535   ar
  1125  1536  1529   ar
  1126  1528  1529    1
  1127  1528  1527    1
  1128   932   930    1
  1129   932   933    1
  1130  1032  1030    1
  1131  1037  1036   ar
  1132  1037  1038   ar
  1133  1026  1023    1
  1134  1454  1455    1
  1135  1454  1456   ar
  1136  1440  1439    2
  1137  1535  1533   ar
  1138  1038  1039    2
  1139  1442  1439    1
  1140   930   929    1
  1141   928   925    1
  1142   928   929    1
  1143   947   948    1
  1144   947   944    1
  1145  1529  1530   ar
  1146   120   118   ar
  1147   118   119    1
  1148   925   926    1
  1149   963   965    2
  1150   963   964    1
  1151  1023  1024    2
  1152  1023  1025    1
  1153  1030  1031    1
  1154  1457  1456   ar
  1155  1533  1534    1
  1156  1533  1532   ar
  1157  1439  1441    1
  1158  1439  1425    1
  1159  1530  1532   ar
  1160  1530  1531    2
  1161  1031  1045    1
  1162  1527  1525    1
  1163   933   944    1
  1164   946   944    2
  1165    89    88    1
  1166  1525  1526    1
  1167   944   945    1
  1168  1526  1537    1
  1169  1046  1045    2
  1170  1436  1435    1
  1171  1049  1050    1
  1172  1049  1048    1
  1173  1051  1050    1
  1174  1051  1055    1
  1175    88    90    1
  1176    88    86    1
  1177  1434  1435   ar
  1178  1434  1432   ar
  1179  1045  1048    1
  1180  1045  1047    1
  1181  1425  1424    1
  1182  1433  1432    2
  1183  1435  1437   ar
  1184  1432  1431   ar
  1185  1050  1052    1
  1186    90    91    1
  1187  1541  1542    1
  1188  1541  1540    1
  1189  1426  1424    1
  1190  1426  1427    1
  1191  1437  1438   ar
  1192  1543  1542    1
  1193  1543  1547    1
  1194  1424  1422    1
  1195  1537  1538    2
  1196  1537  1539    1
  1197  1537  1540    1
  1198  1431  1438   ar
  1199  1431  1430   ar
  1200  1055  1056    1
  1201  1055  1054    1
  1202    84    85    1
  1203    84    81    1
  1204   100    99    1
  1205  1438  1428   ar
  1206    86    85    1
  1207    86    87    1
  1208  1542  1544    1
  1209  1057  1056   ar
  1210  1057  1058   ar
  1211    83    81    2
  1212    99    98   ar
  1213    99   101   ar
  1214  1430  1429   ar
  1215  1549  1550   ar
  1216  1549  1548   ar
  1217  1056  1066   ar
  1218    98    96   ar
  1219   101   102   ar
  1220    82    81    1
  1221  1428  1429   ar
  1222  1428  1427    1
  1223    81    68    1
  1224  1547  1548    1
  1225  1547  1546    1
  1226  1550  1551   ar
  1227  1548  1558   ar
  1228  1427  1423    1
  1229    91    92    1
  1230    91    87    1
  1231  1052  1054    1
  1232  1052  1053    1
  1233  1058  1059   ar
  1234   102    95   ar
  1235   102    92   ar
  1236    96    97    2
  1237    96    95   ar
  1238    95    94   ar
  1239    92    93   ar
  1240  1422  1423    1
  1241  1422  1421    1
  1242  1066  1059   ar
  1243  1066  1065   ar
  1244  1551  1558   ar
  1245  1551  1552   ar
  1246  1420  1421    1
  1247  1420  1417    1
  1248    61    60    2
  1249  1053  1067    1
  1250  1558  1557   ar
  1251    94    93   ar
  1252  1059  1060   ar
  1253  1544  1546    1
  1254  1544  1545    1
  1255  1418  1417    2
  1256    68    67    1
  1257  1065  1063   ar
  1258  1419  1417    1
  1259  1552  1553    2
  1260  1552  1554   ar
  1261  1557  1555   ar
  1262    62    60    1
  1263  1417  1405    1
  1264    42    41    2
  1265    60    63    1
  1266    60    49    1
  1267  1545  1559    1
  1268    43    41    1
  1269  1554  1555   ar
  1270  1555  1556    1
  1271  1060  1061    2
  1272  1060  1062   ar
  1273  1068  1067    2
  1274    63    64    1
  1275  1069  1067    1
  1276  1063  1062   ar
  1277  1063  1064    1
  1278  1067  1070    1
  1279    67    69    1
  1280    67    65    1
  1281    20    19    2
  1282  1413  1412    2
  1283    41    44    1
  1284    41    27    1
  1285    64    65    1
  1286  1315  1314    2
  1287  1412  1411   ar
  1288  1412  1414   ar
  1289    49    48    1
  1290    44    45    1
  1291    69    70    1
  1292  1416  1414    1
  1293    21    19    1
  1294    65    66    1
  1295  1405  1404    1
  1296  1411  1409   ar
  1297    73    72   ar
  1298    73    74   ar
  1299  1414  1415   ar
  1300    76    75    1
  1301    72    71   ar
  1302    19    22    1
  1303    19     6    1
  1304  1578  1576    1
  1305  1399  1397    2
  1306  1561  1559    2
  1307  1070  1071    1
  1308  1071  1072    1
  1309  1404  1406    1
  1310  1404  1402    1
  1311  1559  1560    1
  1312  1559  1562    1
  1313  1289  1288    2
  1314    74    75   ar
  1315    74    80   ar
  1316    75    77   ar
  1317  1406  1407    1
  1318  1073  1072    1
  1319  1073  1077    1
  1320  1409  1410    2
  1321  1409  1408   ar
  1322    71    80   ar
  1323    71    70    1
  1324  1398  1397    1
  1325  1316  1314    1
  1326    27    26    1
  1327    48    46    1
  1328    48    50    1
  1329  1079  1080   ar
  1330  1079  1078   ar
  1331  1080  1081   ar
  1332    80    79   ar
  1333  1314  1301    1
  1334  1314  1317    1
  1335  1415  1408   ar
  1336    45    46    1
  1337    77    78   ar
  1338    70    66    1
  1339  1335  1334    2
  1340  1576  1577   ar
  1341  1576  1574   ar
  1342  1400  1397    1
  1343  1400  1401    1
  1344  1287  1288   ar
  1345  1287  1285   ar
  1346  1408  1407    1
  1347  1397  1383    1
  1348  1288  1290   ar
  1349    22    23    1
  1350  1575  1574    2
  1351    79    78   ar
  1352  1294  1293    2
  1353  1072  1074    1
  1354  1336  1334    1
  1355  1577  1570   ar
  1356  1377  1375    2
  1357  1562  1563    1
  1358  1574  1573   ar
  1359    23    24    1
  1360  1357  1356    2
  1361  1078  1077    1
  1362  1078  1088   ar
  1363  1286  1285    2
  1364    58    59   ar
  1365    58    56   ar
  1366  1565  1569    1
  1367  1565  1564    1
  1368    46    47    1
  1369    26    24    1
  1370    26    28    1
  1371  1407  1403    1
  1372  1077  1076    1
  1373  1295  1293    1
  1374  1301  1300    1
  1375  1391  1390    2
  1376  1563  1564    1
  1377  1081  1082   ar
  1378  1081  1088   ar
  1379  1285  1284   ar
  1380  1358  1356    1
  1381    50    51    1
  1382  1317  1318    1
  1383  1296  1297    1
  1384  1296  1293    1
  1385  1334  1322    1
  1386  1334  1337    1
  1387    59    52   ar
  1388  1297  1298    1
  1389  1083  1082    2
  1390  1402  1401    1
  1391  1402  1403    1
  1392    57    56    1
  1393  1293  1281    1
  1394  1376  1375    1
  1395  1570  1571   ar
  1396  1570  1569    1
  1397     6     5    1
  1398  1573  1571   ar
  1399  1290  1292    1
  1400  1290  1291   ar
  1401    56    55   ar
  1402  1082  1084   ar
  1403  1088  1087   ar
  1404  1375  1378    1
  1405  1375  1364    1
  1406  1318  1319    1
  1407    24    25    1
  1408  1390  1389   ar
  1409  1390  1392   ar
  1410  1356  1342    1
  1411  1356  1359    1
  1412  1571  1572    2
  1413  1569  1568    1
  1414  1564  1566    1
  1415  1388  1389   ar
  1416  1388  1387   ar
  1417    52    51    1
  1418    52    53   ar
  1419  1300  1298    1
  1420  1300  1302    1
  1421  1074  1076    1
  1422  1074  1075    1
  1423  1383  1382    1
  1424  1322  1321    1
  1425  1284  1291   ar
  1426  1284  1283    1
  1427    47    51    1
  1428  1378  1379    1
  1429  1389  1396   ar
  1430    28    29    1
  1431     1     2    1
  1432  1281  1280    1
  1433     5     3    1
  1434     5     7    1
  1435  1392  1393   ar
  1436  1333  1331    1
  1437    55    53   ar
  1438  1298  1299    1
  1439  1280  1282    1
  1440  1280  1278    1
  1441  1372  1371    1
  1442  1382  1384    1
  1443  1382  1380    1
  1444  1387  1386   ar
  1445  1337  1338    1
  1446  1084  1085   ar
  1447  1087  1085   ar
  1448    53    54    2
  1449  1360  1359    1
  1450  1360  1361    1
  1451  1282  1283    1
  1452  1270  1269    1
  1453  1321  1319    1
  1454  1321  1323    1
  1455     2     3    1
  1456  1373  1371   ar
  1457  1373  1374   ar
  1458  1379  1380    1
  1459  1342  1341    1
  1460  1276  1277    1
  1461  1276  1273    1
  1462  1319  1320    1
  1463  1075  1089    1
  1464  1396  1386   ar
  1465  1396  1395   ar
  1466    31    32   ar
  1467    31    30   ar
  1468    25    29    1
  1469  1085  1086    1
  1470  1393  1394    1
  1471  1393  1395   ar
  1472    32    33   ar
  1473  1371  1370   ar
  1474  1275  1273    2
  1475     3     4    1
  1476  1386  1385    1
  1477  1566  1568    1
  1478  1566  1567    1
  1479  1338  1339    1
  1480     7     8    1
  1481  1364  1363    1
  1482  1384  1385    1
  1483    29    30    1
  1484  1277  1278    1
  1485  1283  1279    1
  1486  1331  1332   ar
  1487  1331  1329   ar
  1488  1380  1381    1
  1489  1302  1303    1
  1490  1374  1367   ar
  1491    30    40   ar
  1492  1341  1339    1
  1493  1341  1343    1
  1494  1278  1279    1
  1495  1269  1268   ar
  1496  1269  1271   ar
  1497  1332  1325   ar
  1498  1299  1303    1
  1499  1091  1089    2
  1500  1363  1361    1
  1501  1363  1365    1
  1502    33    40   ar
  1503    33    34   ar
  1504  1268  1266   ar
  1505  1273  1274    1
  1506  1273  1262    1
  1507  1361  1362    1
  1508  1595  1594    2
  1509  1385  1381    1
  1510  1089  1090    1
  1511  1089  1092    1
  1512  1305  1306   ar
  1513  1305  1304   ar
  1514    35    34    2
  1515  1320  1324    1
  1516  1370  1368   ar
  1517    40    39   ar
  1518    34    36   ar
  1519  1339  1340    1
  1520  1323  1324    1
  1521  1271  1272   ar
  1522  1303  1304    1
  1523  1330  1329    2
  1524  1567  1579    1
  1525  1102  1101   ar
  1526  1102  1103   ar
  1527  1329  1328   ar
  1528  1347  1346   ar
  1529  1347  1348   ar
  1530  1306  1307   ar
  1531  1367  1368   ar
  1532  1367  1366    1
  1533  1346  1345   ar
  1534  1304  1313   ar
  1535     4     8    1
  1536  1592  1593   ar
  1537  1592  1591   ar
  1538  1594  1593   ar
  1539  1594  1596   ar
  1540  1256  1254    2
  1541  1101  1100   ar
  1542  1325  1324    1
  1543  1325  1326   ar
  1544     8     9    1
  1545  1266  1267    2
  1546  1266  1265   ar
  1547  1105  1104    2
  1548    39    37   ar
  1549  1368  1369    2
  1550  1343  1344    1
  1551  1593  1600   ar
  1552    36    37   ar
  1553    17    18   ar
  1554    17    16   ar
  1555  1362  1366    1
  1556  1092  1093    1
  1557     9    18    1
  1558     9    10    1
  1559  1251  1250    1
  1560  1596  1597   ar
  1561  1591  1590   ar
  1562    37    38    1
  1563  1103  1104   ar
  1564  1103  1110   ar
  1565  1365  1366    1
  1566  1272  1265   ar
  1567  1350  1349    2
  1568  1104  1106   ar
  1569  1307  1313   ar
  1570  1307  1308   ar
  1571  1095  1099    1
  1572  1095  1094    1
  1573  1348  1349   ar
  1574  1348  1355   ar
  1575  1340  1344    1
  1576  1313  1312   ar
  1577  1265  1264    1
  1578    18    12   ar
  1579  1328  1326   ar
  1580  1345  1344    1
  1581  1345  1355   ar
  1582  1262  1261    1
  1583  1100  1110   ar
  1584  1100  1099    1
  1585  1581  1579    2
  1586    16    15   ar
  1587  1600  1590   ar
  1588  1600  1599   ar
  1589  1093  1094    1
  1590  1326  1327    2
  1591  1349  1351   ar
  1592  1579  1582    1
  1593  1579  1580    1
  1594  1261  1263    1
  1595  1261  1259    1
  1596  1590  1589    1
  1597  1263  1264    1
  1598  1617  1616    1
  1599  1597  1599   ar
  1600  1597  1598    1
  1601  1237  1235    2
  1602    10    11    1
  1603  1254  1255    1
  1604  1254  1257    1
  1605  1254  1243    1
  1606  1110  1109   ar
  1607  1250  1252   ar
  1608  1250  1249   ar
  1609  1585  1589    1
  1610  1585  1584    1
  1611  1355  1354   ar
  1612  1252  1253   ar
  1613  1217  1215    2
  1614  1257  1258    1
  1615  1308  1309    1
  1616  1308  1310   ar
  1617  1312  1311   ar
  1618  1099  1098    1
  1619  1106  1107   ar
  1620  1582  1583    1
  1621  1094  1096    1
  1622  1589  1588    1
  1623  1236  1235    1
  1624  1618  1616   ar
  1625  1618  1619   ar
  1626  1264  1260    1
  1627  1616  1615   ar
  1628    12    11    1
  1629    12    13   ar
  1630  1249  1247   ar
  1631    15    13   ar
  1632  1351  1352   ar
  1633  1109  1107   ar
  1634  1235  1238    1
  1635  1235  1223    1
  1636  1311  1310   ar
  1637    11  1234    1
  1638  1253  1246   ar
  1639  1107  1108    1
  1640  1238  1239    1
  1641  1583  1584    1
  1642  1354  1352   ar
  1643  1259  1258    1
  1644  1259  1260    1
  1645  1619  1620   ar
  1646  1584  1586    1
  1647    13    14    1
  1648  1216  1215    1
  1649  1243  1242    1
  1650  1352  1353    1
  1651  1215  1218    1
  1652  1215  1202    1
  1653  1615  1614   ar
  1654  1615  1621   ar
  1655  1127  1126    1
  1656  1242  1244    1
  1657  1242  1240    1
  1658  1148  1147    2
  1659  1234  1232    1
  1660  1096  1098    1
  1661  1096  1097    1
  1662  1247  1246   ar
  1663  1247  1248    2
  1664  1614  1613   ar
  1665  1246  1245    1
  1666  1239  1240    1
  1667  1588  1586    1
  1668  1620  1621   ar
  1669  1639  1640    1
  1670  1639  1637    2
  1671  1231    14    1
  1672  1231  1230    1
  1673  1621  1612   ar
  1674  1218  1219    1
  1675  1244  1245    1
  1676  1124  1125   ar
  1677  1124  1123   ar
  1678  1640  1641    2
  1679    14  1151    1
  1680  1586  1587    1
  1681  1232  1230   ar
  1682  1232  1233   ar
  1683  1202  1201    1
  1684  1223  1222    1
  1685  1113  1111    2
  1686  1240  1241    1
  1687  1613  1612   ar
  1688  1230  1229   ar
  1689  1126  1125   ar
  1690  1126  1128   ar
  1691  1147  1149    1
  1692  1147  1146    1
  1693  1149  1150    2
  1694  1638  1637    1
  1695  1245  1241    1
  1696  1195  1194    2
  1697  1222  1224    1
  1698  1222  1220    1
  1699  1612  1611    1
  1700  1097  1111    1
  1701  1637  1636    1
  1702  1125  1131   ar
  1703  1233  1226   ar
  1704  1123  1122   ar
  1705  1219  1220    1
  1706  1641  1642    1
  1707  1229  1227   ar
  1708  1198  1197    1
  1709  1198  1199    1
  1710  1201  1199    1
  1711  1201  1203    1
  1712  1128  1129   ar
  1713  1224  1225    1
  1714  1151  1150    2
  1715  1111  1114    1
  1716  1111  1112    1
  1717  1197  1194    1
  1718  1611  1607    1
  1719  1611  1610    1
  1720  1226  1227   ar
  1721  1226  1225    1
  1722  1150  1152    1
  1723  1220  1221    1
  1724  1587  1601    1
  1725  1636  1642    1
  1726  1636  1635    1
  1727  1607  1606    1
  1728  1146  1145   ar
  1729  1146  1153   ar
  1730  1642  1633    2
  1731  1227  1228    2
  1732  1194  1196    1
  1733  1194  1183    1
  1734  1131  1122   ar
  1735  1131  1130   ar
  1736  1199  1200    1
  1737  1122  1121    1
  1738  1145  1144   ar
  1739  1225  1221    1
  1740  1603  1601    2
  1741  1114  1115    1
  1742  1129  1130   ar
  1743  1203  1204    1
  1744  1635  1634    2
  1745  1633  1634    1
  1746  1601  1604    1
  1747  1601  1602    1
  1748  1152  1153    1
  1749  1153  1143   ar
  1750  1604  1605    1
  1751  1117  1121    1
  1752  1117  1116    1
  1753  1610  1608    1
  1754  1121  1120    1
  1755  1606  1605    1
  1756  1606  1608    1
  1757  1200  1204    1
  1758  1183  1182    1
  1759  1115  1116    1
  1760  1206  1205   ar
  1761  1206  1207   ar
  1762  1144  1143   ar
  1763  1204  1205    1
  1764  1205  1214   ar
  1765  1608  1609    1
  1766  1176  1175    2
  1767  1207  1208   ar
  1768  1116  1118    1
  1769  1143  1142    1
  1770  1628  1632    1
  1771  1628  1627    1
  1772  1632  1631    1
  1773  1118  1120    1
  1774  1118  1119    1
  1775  1134  1132    2
  1776  1214  1208   ar
  1777  1214  1213   ar
  1778  1208  1209   ar
  1779  1182  1184    1
  1780  1182  1180    1
  1781  1177  1175    1
  1782  1625  1622    1
  1783  1625  1626    1
  1784  1175  1178    1
  1785  1175  1162    1
  1786  1213  1212   ar
  1787  1178  1179    1
  1788  1209  1210    1
  1789  1209  1211   ar
  1790  1609  1622    1
  1791  1627  1626    1
  1792  1627  1629    1
  1793  1184  1185    1
  1794  1624  1622    2
  1795  1142  1138    1
  1796  1142  1141    1
  1797  1631  1629    1
  1798  1179  1180    1
  1799  1622  1623    1
  1800  1132  1119    1
  1801  1132  1135    1
  1802  1132  1133    1
  1803  1212  1211   ar
  1804  1180  1181    1
  1805  1135  1136    1
  1806  1138  1137    1
  1807  1629  1630    1
  1808  1141  1139    1
  1809  1162  1161    1
  1810  1156  1154    2
  1811  1185  1181    1
  1812  1185  1186    1
  1813  1139  1137    1
  1814  1139  1140    1
  1815  1193  1186   ar
  1816  1193  1192   ar
  1817  1136  1137    1
  1818  1186  1187   ar
  1819  1192  1190   ar
  1820  1187  1188    2
  1821  1187  1189   ar
  1822  1161  1163    1
  1823  1161  1159    1
  1824  1190  1189   ar
  1825  1190  1191    1
  1826  1154  1157    1
  1827  1154  1140    1
  1828  1154  1155    1
  1829  1157  1158    1
  1830  1158  1159    1
  1831  1163  1164    1
  1832  1159  1160    1
  1833  1166  1167   ar
  1834  1166  1165   ar
  1835  1167  1168   ar
  1836  1160  1164    1
  1837  1164  1165    1
  1838  1165  1174   ar
  1839  1168  1174   ar
  1840  1168  1169   ar
  1841  1174  1173   ar
  1842  1170  1169    1
  1843  1169  1171   ar
  1844  1173  1172   ar
  1845  1171  1172   ar
