@<TRIPOS>MOLECULE
dna.pdb
 1463 1640 0 0 0
SMALL
GASTEIGER

@<TRIPOS>ATOM
      1  O5'      -10.5230  -15.0610    7.3750 O.3     1  DA1        -0.2176
      2  C5'      -11.0200  -14.2390    8.4180 C.3     1  DA1         0.2140
      3  C4'      -11.2990  -12.8470    7.9160 C.3     1  DA1         0.1776
      4  O4'      -10.0570  -12.1880    7.5490 O.3     1  DA1        -0.3326
      5  C3'      -12.1130  -12.7520    6.6360 C.3     1  DA1         0.1559
      6  O3'      -13.4930  -13.0250    6.7950 O.3     1  DA1        -0.3138
      7  C2'      -11.8000  -11.3320    6.1830 C.3     1  DA1         0.0865
      8  C1'      -10.3010  -11.2900    6.4810 C.3     1  DA1         0.2094
      9  N9        -9.5530  -11.7020    5.3270 N.ar    1  DA1        -0.2714
     10  C8        -8.8720  -12.8870    5.2290 C.ar    1  DA1         0.1815
     11  N7        -8.1330  -12.9840    4.1490 N.ar    1  DA1        -0.2193
     12  C5        -8.3430  -11.7810    3.4940 C.ar    1  DA1         0.1518
     13  C6        -7.8440  -11.2620    2.2870 C.ar    1  DA1         0.1919
     14  N6        -6.9930  -11.9200    1.4950 N.pl3   1  DA1        -0.1054
     15  N1        -8.2540  -10.0300    1.9170 N.ar    1  DA1        -0.2040
     16  C2        -9.1050   -9.3720    2.7120 C.ar    1  DA1         0.2016
     17  N3        -9.6430   -9.7540    3.8680 N.ar    1  DA1        -0.2048
     18  C4        -9.2170  -10.9820    4.2070 C.ar    1  DA1         0.1691
     19  P        -14.0760  -14.0050    5.8450 P.3     2  DT2         0.2141
     20  OP1      -15.3910  -14.4920    6.2970 O.3     2  DT2        -0.4373
     21  OP2      -13.1240  -14.9400    5.2220 O.2     2  DT2        -0.5172
     22  O5'      -14.2860  -12.8660    4.7430 O.3     2  DT2        -0.3114
     23  C5'      -15.4530  -12.0630    4.7800 C.3     2  DT2         0.1811
     24  C4'      -15.2740  -10.8130    3.9600 C.3     2  DT2         0.1746
     25  O4'      -13.8730  -10.4470    3.9620 O.3     2  DT2        -0.3327
     26  C3'      -15.5760  -10.9230    2.4770 C.3     2  DT2         0.1558
     27  O3'      -16.9530  -10.9190    2.1650 O.3     2  DT2        -0.3138
     28  C2'      -14.8080   -9.7390    1.9080 C.3     2  DT2         0.0866
     29  C1'      -13.5310   -9.8680    2.7210 C.3     2  DT2         0.2106
     30  N1       -12.4950  -10.6200    2.1070 N.ar    2  DT2        -0.2559
     31  C2       -11.7400  -10.0270    1.1130 C.ar    2  DT2         0.3545
     32  O2       -11.9290   -8.8870    0.7270 O.2     2  DT2        -0.2443
     33  N3       -10.7520  -10.8200    0.5820 N.ar    2  DT2        -0.1533
     34  C4       -10.4490  -12.1180    0.9380 C.ar    2  DT2         0.2804
     35  O4        -9.5290  -12.7020    0.3700 O.2     2  DT2        -0.2654
     36  C5       -11.2780  -12.6640    1.9760 C.ar    2  DT2         0.0534
     37  C6       -12.2460  -11.9140    2.5090 C.ar    2  DT2         0.0824
     38  C7       -11.0280  -14.0710    2.4330 C.3     2  DT2         0.0377
     39  P        -17.4700  -12.0630    1.3140 P.3     3  DC3         0.2141
     40  OP1      -18.9400  -11.8510    1.3770 O.3     3  DC3        -0.4373
     41  OP2      -16.9460  -13.4210    1.0620 O.2     3  DC3        -0.5172
     42  O5'      -16.8280  -11.1340    0.1830 O.3     3  DC3        -0.3114
     43  C5'      -17.3210   -9.8180   -0.0450 C.3     3  DC3         0.1811
     44  C4'      -16.7130   -9.2430   -1.2940 C.3     3  DC3         0.1746
     45  O4'      -15.2760   -9.1040   -1.1120 O.3     3  DC3        -0.3327
     46  C3'      -16.8270  -10.0950   -2.5470 C.3     3  DC3         0.1558
     47  O3'      -18.0740  -10.0250   -3.2140 O.3     3  DC3        -0.3138
     48  C2'      -15.6880   -9.5740   -3.4080 C.3     3  DC3         0.0866
     49  C1'      -14.6190   -9.2780   -2.3590 C.3     3  DC3         0.2106
     50  N1       -13.6310  -10.3980   -2.2550 N.ar    3  DC3        -0.2556
     51  C2       -12.5390  -10.4000   -3.1300 C.ar    3  DC3         0.3531
     52  O2       -12.3880   -9.4340   -3.8990 O.2     3  DC3        -0.2443
     53  N3       -11.6830  -11.4490   -3.1150 N.ar    3  DC3        -0.1739
     54  C4       -11.8860  -12.4640   -2.2740 C.ar    3  DC3         0.1759
     55  N4       -11.0160  -13.4760   -2.2950 N.pl3   3  DC3        -0.1070
     56  C5       -12.9860  -12.4810   -1.3790 C.ar    3  DC3         0.0566
     57  C6       -13.8290  -11.4430   -1.3970 C.ar    3  DC3         0.0849
     58  P        -18.6010  -11.3590   -4.1070 P.3     4  DC4         0.2141
     59  OP1      -20.0280  -11.1950   -4.5060 O.2     4  DC4        -0.5172
     60  OP2      -18.1300  -12.6640   -3.5630 O.3     4  DC4        -0.4373
     61  O5'      -17.6550  -10.9500   -5.3150 O.3     4  DC4        -0.3114
     62  C5'      -17.7260   -9.6460   -5.8450 C.3     4  DC4         0.1811
     63  C4'      -16.4850   -9.3360   -6.6210 C.3     4  DC4         0.1746
     64  O4'      -15.3240   -9.3430   -5.7460 O.3     4  DC4        -0.3327
     65  C3'      -16.1020  -10.3240   -7.7080 C.3     4  DC4         0.1558
     66  O3'      -16.8400  -10.1900   -8.9090 O.3     4  DC4        -0.3138
     67  C2'      -14.6540   -9.9630   -7.9340 C.3     4  DC4         0.0866
     68  C1'      -14.1780   -9.6900   -6.5040 C.3     4  DC4         0.2106
     69  N1       -13.5720  -10.8920   -5.9830 N.ar    4  DC4        -0.2556
     70  C2       -12.2040  -11.1380   -6.1450 C.ar    4  DC4         0.3531
     71  O2       -11.5490  -10.3980   -6.8990 O.2     4  DC4        -0.2443
     72  N3       -11.6360  -12.1710   -5.4790 N.ar    4  DC4        -0.1739
     73  C4       -12.3790  -12.9400   -4.6820 C.ar    4  DC4         0.1759
     74  N4       -11.7750  -13.9470   -4.0460 N.pl3   4  DC4        -0.1070
     75  C5       -13.7670  -12.7080   -4.5040 C.ar    4  DC4         0.0566
     76  C6       -14.3240  -11.6860   -5.1640 C.ar    4  DC4         0.0849
     77  P        -17.5080  -11.5190   -9.5990 P.3     5  DG5         0.2141
     78  OP1      -18.0850  -10.8690  -10.8080 O.2     5  DG5        -0.5172
     79  OP2      -18.2270  -12.6560   -8.9640 O.3     5  DG5        -0.4373
     80  O5'      -16.0130  -11.9870   -9.9140 O.3     5  DG5        -0.3114
     81  C5'      -15.2380  -11.2860  -10.8870 C.3     5  DG5         0.1811
     82  C4'      -13.7950  -11.7590  -10.9030 C.3     5  DG5         0.1746
     83  O4'      -13.2190  -11.7120   -9.5680 O.3     5  DG5        -0.3327
     84  C3'      -13.4710  -13.1790  -11.3250 C.3     5  DG5         0.1558
     85  O3'      -13.5660  -13.3730  -12.7310 O.3     5  DG5        -0.3138
     86  C2'      -12.0140  -13.2670  -10.8880 C.3     5  DG5         0.0865
     87  C1'      -12.0560  -12.5250   -9.5470 C.3     5  DG5         0.2093
     88  N9       -12.1330  -13.4450   -8.4810 N.ar    5  DG5        -0.2736
     89  C8       -13.2360  -13.6980   -7.7020 C.ar    5  DG5         0.1811
     90  N7       -13.0290  -14.6190   -6.8010 N.ar    5  DG5        -0.2223
     91  C5       -11.7130  -14.9980   -6.9920 C.ar    5  DG5         0.1470
     92  C6       -10.9220  -15.9610   -6.3160 C.3     5  DG5         0.3138
     93  O6       -11.2480  -16.6960   -5.3750 O.3     5  DG5        -0.1419
     94  N1        -9.6310  -16.0300   -6.8320 N.ar    5  DG5        -0.1831
     95  C2        -9.1600  -15.2650   -7.8720 C.ar    5  DG5         0.2590
     96  N2        -7.8860  -15.4730   -8.2290 N.ar    5  DG5        -0.1250
     97  N3        -9.8840  -14.3660   -8.5110 N.pl3   5  DG5        -0.1580
     98  C4       -11.1410  -14.2830   -8.0270 C.ar    5  DG5         0.1570
     99  P        -13.8030  -14.4870  -13.0660 P.3     6  DT6         0.2141
    100  OP1      -14.3660  -14.6010  -14.4270 O.2     6  DT6        -0.5172
    101  OP2      -14.5950  -14.9310  -11.9030 O.3     6  DT6        -0.4373
    102  O5'      -12.4830  -15.3820  -12.9650 O.3     6  DT6        -0.3114
    103  C5'      -11.4950  -15.3380  -13.9800 C.3     6  DT6         0.1811
    104  C4'      -10.2950  -16.1510  -13.5820 C.3     6  DT6         0.1746
    105  O4'       -9.8410  -15.7280  -12.2730 O.3     6  DT6        -0.3327
    106  C3'      -10.5380  -17.6430  -13.4300 C.3     6  DT6         0.1558
    107  O3'      -10.4750  -18.2990  -14.6860 O.3     6  DT6        -0.3138
    108  C2'       -9.4550  -18.0650  -12.4410 C.3     6  DT6         0.0866
    109  C1'       -9.3600  -16.8320  -11.5360 C.3     6  DT6         0.2106
    110  N1       -10.1570  -16.7750  -10.2190 N.ar    6  DT6        -0.2559
    111  C2        -9.4760  -17.3630   -9.1690 C.ar    6  DT6         0.3545
    112  O2        -8.3120  -17.7120   -9.2450 O.2     6  DT6        -0.2443
    113  N3       -10.2120  -17.5300   -8.0210 N.ar    6  DT6        -0.1542
    114  C4       -11.5300  -17.1770   -7.8210 C.ar    6  DT6         0.2673
    115  O4       -12.0550  -17.3900   -6.7310 O.3     6  DT6        -0.3117
    116  C5       -12.1680  -16.5730   -8.9580 C.ar    6  DT6         0.0523
    117  C6       -11.4760  -16.3990  -10.0870 C.ar    6  DT6         0.0824
    118  C7       -13.6030  -16.1540   -8.8410 C.3     6  DT6         0.0376
    119  P        -10.2800  -20.0150  -14.7790 P.3     7  DC7         0.2141
    120  OP1      -10.2770  -20.4280  -16.2010 O.2     7  DC7        -0.5172
    121  OP2      -11.5500  -19.9950  -14.0190 O.3     7  DC7        -0.4373
    122  O5'       -9.2410  -20.9310  -13.9710 O.3     7  DC7        -0.3114
    123  C5'       -7.8870  -21.0320  -14.4030 C.3     7  DC7         0.1811
    124  C4'       -7.0050  -21.6830  -13.3470 C.3     7  DC7         0.1746
    125  O4'       -6.9760  -20.8670  -12.1460 O.3     7  DC7        -0.3327
    126  C3'       -7.4580  -23.0440  -12.8390 C.3     7  DC7         0.1558
    127  O3'       -7.0680  -24.0870  -13.7100 O.3     7  DC7        -0.3138
    128  C2'       -6.6760  -23.1240  -11.5370 C.3     7  DC7         0.0866
    129  C1'       -6.8960  -21.7120  -11.0110 C.3     7  DC7         0.2106
    130  N1        -8.1320  -21.6590  -10.1720 N.ar    7  DC7        -0.2556
    131  C2        -8.0700  -22.0370   -8.8260 C.ar    7  DC7         0.3531
    132  O2        -6.9960  -22.4720   -8.3760 O.2     7  DC7        -0.2443
    133  N3        -9.1780  -21.9200   -8.0560 N.ar    7  DC7        -0.1739
    134  C4       -10.3100  -21.4490   -8.5820 C.ar    7  DC7         0.1759
    135  N4       -11.3760  -21.3510   -7.7850 N.pl3   7  DC7        -0.1070
    136  C5       -10.3930  -21.0600   -9.9440 C.ar    7  DC7         0.0566
    137  C6        -9.2970  -21.1780  -10.7000 C.ar    7  DC7         0.0849
    138  P         -8.0880  -25.1810  -13.9360 P.3     8  DA8         0.2141
    139  OP1       -7.5190  -26.1590  -14.8950 O.2     8  DA8        -0.5172
    140  OP2       -9.4420  -24.6350  -14.1410 O.3     8  DA8        -0.4373
    141  O5'       -7.9350  -25.8650  -12.5160 O.3     8  DA8        -0.3114
    142  C5'       -6.7290  -26.5140  -12.1670 C.3     8  DA8         0.1811
    143  C4'       -6.9460  -27.1020  -10.7920 C.3     8  DA8         0.1746
    144  O4'       -7.2790  -26.0130   -9.8770 O.3     8  DA8        -0.3327
    145  C3'       -8.1460  -28.0330  -10.6630 C.3     8  DA8         0.1558
    146  O3'       -7.8640  -29.3760  -11.0970 O.3     8  DA8        -0.3138
    147  C2'       -8.3810  -27.9880   -9.1580 C.3     8  DA8         0.0865
    148  C1'       -8.0410  -26.5320   -8.7890 C.3     8  DA8         0.2094
    149  N9        -9.1390  -25.7060   -8.5990 N.ar    8  DA8        -0.2714
    150  C8        -9.6120  -24.8530   -9.5620 C.ar    8  DA8         0.1815
    151  N7       -10.5610  -24.0520   -9.1400 N.ar    8  DA8        -0.2193
    152  C5       -10.7240  -24.4040   -7.8090 C.ar    8  DA8         0.1518
    153  C6       -11.5810  -23.9240   -6.8020 C.ar    8  DA8         0.1919
    154  N6       -12.4690  -22.9460   -6.9910 N.pl3   8  DA8        -0.1054
    155  N1       -11.4910  -24.4920   -5.5810 N.ar    8  DA8        -0.2040
    156  C2       -10.5990  -25.4720   -5.3920 C.ar    8  DA8         0.2016
    157  N3        -9.7410  -26.0060   -6.2580 N.ar    8  DA8        -0.2048
    158  C4        -9.8570  -25.4210   -7.4620 C.ar    8  DA8         0.1691
    159  P         -8.9990  -30.3210  -11.8480 P.3     9  DC9         0.2141
    160  OP1       -8.1270  -31.4670  -12.1950 O.3     9  DC9        -0.4373
    161  OP2      -10.2260  -30.0600  -12.6440 O.2     9  DC9        -0.5172
    162  O5'       -9.4960  -30.4580  -10.2770 O.3     9  DC9        -0.3114
    163  C5'       -8.8880  -31.3460   -9.3260 C.3     9  DC9         0.1811
    164  C4'       -9.5520  -31.3910   -7.9330 C.3     9  DC9         0.1746
    165  O4'       -9.7020  -30.0750   -7.4080 O.3     9  DC9        -0.3327
    166  C3'      -10.9750  -31.9020   -7.9620 C.3     9  DC9         0.1558
    167  O3'      -11.0820  -33.3300   -8.0650 O.3     9  DC9        -0.3138
    168  C2'      -11.5950  -31.3150   -6.6980 C.3     9  DC9         0.0866
    169  C1'      -10.9250  -29.9550   -6.6500 C.3     9  DC9         0.2106
    170  N1       -11.8820  -29.0710   -7.2330 N.ar    9  DC9        -0.2556
    171  C2       -12.8400  -28.4450   -6.4250 C.ar    9  DC9         0.3531
    172  O2       -12.9300  -28.7850   -5.2330 O.2     9  DC9        -0.2443
    173  N3       -13.6370  -27.4930   -6.9650 N.ar    9  DC9        -0.1739
    174  C4       -13.5050  -27.1620   -8.2500 C.ar    9  DC9         0.1759
    175  N4       -14.3130  -26.2180   -8.7390 N.pl3   9  DC9        -0.1070
    176  C5       -12.5410  -27.7840   -9.0850 C.ar    9  DC9         0.0566
    177  C6       -11.7550  -28.7240   -8.5480 C.ar    9  DC9         0.0849
    178  P        -12.1760  -34.1380   -8.8310 P.3    10  DA10        0.2141
    179  OP1      -11.8420  -35.5840   -8.7430 O.3    10  DA10       -0.4373
    180  OP2      -12.4360  -33.5210  -10.1590 O.2    10  DA10       -0.5172
    181  O5'      -13.4350  -33.8670   -7.8980 O.3    10  DA10       -0.3114
    182  C5'      -13.4670  -34.3670   -6.5530 C.3    10  DA10        0.1811
    183  C4'      -14.6850  -33.8470   -5.8400 C.3    10  DA10        0.1746
    184  O4'      -14.5770  -32.4070   -5.6890 O.3    10  DA10       -0.3327
    185  C3'      -15.9960  -34.0280   -6.5870 C.3    10  DA10        0.1558
    186  O3'      -16.5210  -35.3450   -6.4680 O.3    10  DA10       -0.3138
    187  C2'      -16.8720  -32.9690   -5.9340 C.3    10  DA10        0.0865
    188  C1'      -15.8690  -31.8220   -5.7840 C.3    10  DA10        0.2094
    189  N9       -15.8770  -30.9500   -6.9290 N.ar   10  DA10       -0.2714
    190  C8       -15.0360  -31.0100   -8.0100 C.ar   10  DA10        0.1815
    191  N7       -15.2890  -30.1060   -8.9270 N.ar   10  DA10       -0.2193
    192  C5       -16.3700  -29.4060   -8.4140 C.ar   10  DA10        0.1518
    193  C6       -17.1130  -28.3200   -8.9080 C.ar   10  DA10        0.1919
    194  N6       -16.8670  -27.7260  -10.0780 N.pl3  10  DA10       -0.1054
    195  N1       -18.1300  -27.8600   -8.1490 N.ar   10  DA10       -0.2040
    196  C2       -18.3760  -28.4560   -6.9760 C.ar   10  DA10        0.2016
    197  N3       -17.7480  -29.4810   -6.4060 N.ar   10  DA10       -0.2048
    198  C4       -16.7440  -29.9150   -7.1850 C.ar   10  DA10        0.1691
    199  P        -17.6130  -35.9070   -7.6050 P.3    11  DC11        0.2141
    200  OP1      -18.0610  -37.3130   -7.4250 O.3    11  DC11       -0.4373
    201  OP2      -16.8850  -35.5160   -8.8420 O.2    11  DC11       -0.5172
    202  O5'      -18.8940  -34.9700   -7.4480 O.3    11  DC11       -0.3114
    203  C5'      -19.7920  -35.1430   -6.3340 C.3    11  DC11        0.1811
    204  C4'      -20.8690  -34.0790   -6.3390 C.3    11  DC11        0.1746
    205  O4'      -20.2540  -32.7640   -6.3330 O.3    11  DC11       -0.3327
    206  C3'      -21.8040  -34.0130   -7.5380 C.3    11  DC11        0.1558
    207  O3'      -22.8480  -34.9750   -7.4770 O.3    11  DC11       -0.3138
    208  C2'      -22.3660  -32.6060   -7.4080 C.3    11  DC11        0.0866
    209  C1'      -21.1250  -31.8360   -6.9610 C.3    11  DC11        0.2106
    210  N1       -20.5000  -31.3150   -8.1340 N.ar   11  DC11       -0.2556
    211  C2       -20.8960  -30.0860   -8.6740 C.ar   11  DC11        0.3531
    212  O2       -21.8240  -29.4640   -8.1280 O.2    11  DC11       -0.2443
    213  N3       -20.2600  -29.6110   -9.7710 N.ar   11  DC11       -0.1739
    214  C4       -19.2700  -30.3130  -10.3240 C.ar   11  DC11        0.1759
    215  N4       -18.6720  -29.8060  -11.4040 N.pl3  11  DC11       -0.1070
    216  C5       -18.8540  -31.5610   -9.7930 C.ar   11  DC11        0.0566
    217  C6       -19.4850  -32.0260   -8.7090 C.ar   11  DC11        0.0849
    218  P        -23.7590  -35.2660   -8.8140 P.3    12  DC12        0.2141
    219  OP1      -24.5400  -36.5210   -8.7140 O.3    12  DC12       -0.4373
    220  OP2      -22.4980  -35.2400   -9.5980 O.2    12  DC12       -0.5172
    221  O5'      -24.6790  -34.0870   -9.3650 O.3    12  DC12       -0.3114
    222  C5'      -25.9810  -33.8620   -8.8270 C.3    12  DC12        0.1811
    223  C4'      -26.5540  -32.5510   -9.3310 C.3    12  DC12        0.1746
    224  O4'      -25.6120  -31.4920   -9.0290 O.3    12  DC12       -0.3327
    225  C3'      -26.8350  -32.3930  -10.8220 C.3    12  DC12        0.1558
    226  O3'      -28.0970  -32.9120  -11.2470 O.3    12  DC12       -0.3138
    227  C2'      -26.7830  -30.8820  -11.0050 C.3    12  DC12        0.0866
    228  C1'      -25.6880  -30.4840  -10.0200 C.3    12  DC12        0.2106
    229  N1       -24.3860  -30.4070  -10.6770 N.ar   12  DC12       -0.2556
    230  C2       -24.1260  -29.3840  -11.5960 C.ar   12  DC12        0.3531
    231  O2       -25.0160  -28.5490  -11.8290 O.2    12  DC12       -0.2443
    232  N3       -22.9160  -29.3360  -12.2040 N.ar   12  DC12       -0.1739
    233  C4       -21.9910  -30.2550  -11.9230 C.ar   12  DC12        0.1759
    234  N4       -20.8140  -30.1670  -12.5470 N.pl3  12  DC12       -0.1070
    235  C5       -22.2350  -31.2990  -10.9950 C.ar   12  DC12        0.0566
    236  C6       -23.4310  -31.3430  -10.3970 C.ar   12  DC12        0.0849
    237  P        -28.2600  -33.5840  -12.7780 P.3    13  DT13        0.2141
    238  OP1      -29.6360  -34.1130  -12.6400 O.3    13  DT13       -0.4373
    239  OP2      -27.1260  -34.4450  -13.1820 O.2    13  DT13       -0.5172
    240  O5'      -28.2940  -32.4300  -13.8830 O.3    13  DT13       -0.3114
    241  C5'      -29.4850  -31.6870  -14.0840 C.3    13  DT13        0.1811
    242  C4'      -29.2480  -30.5580  -15.0520 C.3    13  DT13        0.1746
    243  O4'      -28.0680  -29.8240  -14.6340 O.3    13  DT13       -0.3327
    244  C3'      -28.9400  -30.9600  -16.4890 C.3    13  DT13        0.1558
    245  O3'      -30.0930  -31.2610  -17.2570 O.3    13  DT13       -0.3138
    246  C2'      -28.1650  -29.7580  -17.0120 C.3    13  DT13        0.0866
    247  C1'      -27.3870  -29.3290  -15.7670 C.3    13  DT13        0.2106
    248  N1       -26.0170  -29.7620  -15.7840 N.ar   13  DT13       -0.2559
    249  C2       -25.1510  -28.9800  -16.5240 C.ar   13  DT13        0.3545
    250  O2       -25.4930  -27.9480  -17.0750 O.2    13  DT13       -0.2443
    251  N3       -23.8620  -29.4500  -16.5990 N.ar   13  DT13       -0.1533
    252  C4       -23.3630  -30.5990  -16.0210 C.ar   13  DT13        0.2804
    253  O4       -22.1800  -30.8900  -16.1770 O.2    13  DT13       -0.2654
    254  C5       -24.3240  -31.3570  -15.2700 C.ar   13  DT13        0.0534
    255  C6       -25.5840  -30.9230  -15.1810 C.ar   13  DT13        0.0824
    256  C7       -23.8780  -32.6240  -14.6030 C.3    13  DT13        0.0377
    257  P        -29.9480  -31.9160  -18.7450 P.3    14  DG14        0.2141
    258  OP1      -31.3790  -32.2330  -18.9580 O.2    14  DG14       -0.5172
    259  OP2      -29.0170  -32.9880  -18.3090 O.3    14  DG14       -0.4373
    260  O5'      -29.3490  -31.2610  -20.0700 O.3    14  DG14       -0.3114
    261  C5'      -29.9380  -30.1000  -20.6380 C.3    14  DG14        0.1811
    262  C4'      -28.8850  -29.2500  -21.3090 C.3    14  DG14        0.1746
    263  O4'      -27.7830  -29.0500  -20.3820 O.3    14  DG14       -0.3327
    264  C3'      -28.1750  -29.8450  -22.5130 C.3    14  DG14        0.1558
    265  O3'      -28.9300  -29.7450  -23.7110 O.3    14  DG14       -0.3138
    266  C2'      -26.9190  -28.9860  -22.5930 C.3    14  DG14        0.0865
    267  C1'      -26.5900  -28.8030  -21.1130 C.3    14  DG14        0.2094
    268  N9       -25.5600  -29.7160  -20.7230 N.ar   14  DG14       -0.2713
    269  C8       -25.7400  -30.6820  -19.7630 C.ar   14  DG14        0.1816
    270  N7       -24.6280  -31.2650  -19.4050 N.ar   14  DG14       -0.2173
    271  C5       -23.6560  -30.6490  -20.1710 C.ar   14  DG14        0.1748
    272  C6       -22.2540  -30.8590  -20.2260 C.ar   14  DG14        0.3023
    273  O6       -21.5740  -31.6650  -19.5780 O.2    14  DG14       -0.2633
    274  N1       -21.6370  -30.0160  -21.1460 N.ar   14  DG14       -0.1709
    275  C2       -22.2900  -29.0860  -21.9180 C.ar   14  DG14        0.2606
    276  N2       -21.5250  -28.3640  -22.7480 N.pl3  14  DG14       -0.0859
    277  N3       -23.5920  -28.8800  -21.8790 N.ar   14  DG14       -0.1918
    278  C4       -24.2120  -29.6880  -20.9930 C.ar   14  DG14        0.1722
    279  P        -28.6070  -30.6420  -24.8510 P.3    15  DC15        0.2141
    280  OP1      -29.9540  -30.1220  -25.1570 O.2    15  DC15       -0.5172
    281  OP2      -28.4690  -32.0370  -24.3650 O.3    15  DC15       -0.4373
    282  O5'      -27.7370  -30.4810  -26.1700 O.3    15  DC15       -0.3114
    283  C5'      -27.3260  -29.1730  -26.5720 C.3    15  DC15        0.1811
    284  C4'      -25.8230  -29.0910  -26.7680 C.3    15  DC15        0.1746
    285  O4'      -25.0880  -28.9920  -25.5200 O.3    15  DC15       -0.3327
    286  C3'      -25.1350  -30.2460  -27.4590 C.3    15  DC15        0.1558
    287  O3'      -25.4070  -30.2400  -28.8430 O.3    15  DC15       -0.3138
    288  C2'      -23.6730  -29.9220  -27.1870 C.3    15  DC15        0.0866
    289  C1'      -23.7460  -29.4110  -25.7490 C.3    15  DC15        0.2106
    290  N1       -23.4030  -30.4350  -24.8890 N.ar   15  DC15       -0.2556
    291  C2       -22.0750  -30.7890  -24.6280 C.ar   15  DC15        0.3531
    292  O2       -21.1670  -30.1960  -25.2350 O.2    15  DC15       -0.2443
    293  N3       -21.8180  -31.7640  -23.7240 N.ar   15  DC15       -0.1739
    294  C4       -22.8240  -32.3740  -23.0960 C.ar   15  DC15        0.1759
    295  N4       -22.5220  -33.3290  -22.2140 N.pl3  15  DC15       -0.1070
    296  C5       -24.1770  -32.0300  -23.3470 C.ar   15  DC15        0.0566
    297  C6       -24.4260  -31.0660  -24.2400 C.ar   15  DC15        0.0849
    298  P        -25.4190  -31.5650  -29.5210 P.3    16  DT16        0.2141
    299  OP1      -25.7080  -31.2330  -30.9420 O.2    16  DT16       -0.5172
    300  OP2      -26.0020  -32.7890  -28.9030 O.3    16  DT16       -0.4373
    301  O5'      -23.8430  -31.6590  -29.3250 O.3    16  DT16       -0.3114
    302  C5'      -22.9620  -30.7630  -29.9910 C.3    16  DT16        0.1811
    303  C4'      -21.5420  -31.1940  -29.7550 C.3    16  DT16        0.1746
    304  O4'      -21.2530  -31.1140  -28.3360 O.3    16  DT16       -0.3327
    305  C3'      -21.2970  -32.6540  -30.0780 C.3    16  DT16        0.1558
    306  O3'      -21.0420  -32.8170  -31.4610 O.3    16  DT16       -0.3138
    307  C2'      -20.0810  -32.9830  -29.2190 C.3    16  DT16        0.0866
    308  C1'      -20.3750  -32.1650  -27.9650 C.3    16  DT16        0.2106
    309  N1       -20.9920  -32.9280  -26.8940 N.ar   16  DT16       -0.2559
    310  C2       -20.1920  -33.6620  -26.0390 C.ar   16  DT16        0.3545
    311  O2       -18.9750  -33.6460  -26.0900 O.2    16  DT16       -0.2443
    312  N3       -20.8710  -34.4200  -25.1160 N.ar   16  DT16       -0.1533
    313  C4       -22.2390  -34.5170  -24.9670 C.ar   16  DT16        0.2804
    314  O4       -22.7020  -35.2410  -24.0890 O.2    16  DT16       -0.2654
    315  C5       -23.0000  -33.7260  -25.8920 C.ar   16  DT16        0.0534
    316  C6       -22.3660  -32.9800  -26.8000 C.ar   16  DT16        0.0824
    317  C7       -24.4970  -33.7640  -25.8100 C.3    16  DT16        0.0377
    318  P        -21.4710  -34.2250  -32.2890 P.3    17  DC17        0.2141
    319  OP1      -21.4180  -34.1630  -33.7740 O.2    17  DC17       -0.5172
    320  OP2      -22.7630  -34.4890  -31.6150 O.3    17  DC17       -0.4373
    321  O5'      -20.4410  -35.3190  -31.7550 O.3    17  DC17       -0.3114
    322  C5'      -19.0340  -35.1950  -32.0120 C.3    17  DC17        0.1811
    323  C4'      -18.2410  -36.1160  -31.1090 C.3    17  DC17        0.1746
    324  O4'      -18.5680  -35.8390  -29.7230 O.3    17  DC17       -0.3327
    325  C3'      -18.4750  -37.6150  -31.2310 C.3    17  DC17        0.1558
    326  O3'      -17.7490  -38.1470  -32.3390 O.3    17  DC17       -0.3138
    327  C2'      -17.9040  -38.1150  -29.9110 C.3    17  DC17        0.0866
    328  C1'      -18.3340  -37.0040  -28.9480 C.3    17  DC17        0.2106
    329  N1       -19.5420  -37.2680  -28.1500 N.ar   17  DC17       -0.2556
    330  C2       -19.4900  -38.1160  -27.0380 C.ar   17  DC17        0.3531
    331  O2       -18.4140  -38.6750  -26.7620 O.2    17  DC17       -0.2443
    332  N3       -20.6080  -38.3040  -26.2980 N.ar   17  DC17       -0.1739
    333  C4       -21.7410  -37.6840  -26.6310 C.ar   17  DC17        0.1759
    334  N4       -22.8180  -37.8990  -25.8730 N.pl3  17  DC17       -0.1070
    335  C5       -21.8150  -36.8200  -27.7540 C.ar   17  DC17        0.0566
    336  C6       -20.7080  -36.6380  -28.4820 C.ar   17  DC17        0.0849
    337  P        -18.0210  -39.6860  -32.9660 P.3    18  DT18        0.2141
    338  OP1      -17.0540  -38.9760  -33.8420 O.2    18  DT18       -0.5172
    339  OP2      -18.8440  -40.7890  -33.5200 O.3    18  DT18       -0.4373
    340  O5'      -17.2090  -40.3860  -31.7740 O.3    18  DT18       -0.3114
    341  C5'      -16.7570  -41.7040  -32.0750 C.3    18  DT18        0.1811
    342  C4'      -15.6670  -42.2790  -31.1910 C.3    18  DT18        0.1746
    343  O4'      -14.3590  -41.9370  -31.7300 O.3    18  DT18       -0.3327
    344  C3'      -15.6600  -41.8650  -29.7220 C.3    18  DT18        0.1558
    345  O3'      -16.0750  -42.8900  -28.8270 O.3    18  DT18       -0.3138
    346  C2'      -14.2060  -41.5530  -29.3940 C.3    18  DT18        0.0866
    347  C1'      -13.4320  -41.6770  -30.6960 C.3    18  DT18        0.2106
    348  N1       -13.0840  -40.4330  -30.6070 N.ar   18  DT18       -0.2559
    349  C2       -12.2580  -39.8530  -29.6630 C.ar   18  DT18        0.3545
    350  O2       -11.8410  -40.4520  -28.6870 O.2    18  DT18       -0.2443
    351  N3       -11.9370  -38.5380  -29.9010 N.ar   18  DT18       -0.1533
    352  C4       -12.3490  -37.7630  -30.9650 C.ar   18  DT18        0.2804
    353  O4       -11.9760  -36.5950  -31.0430 O.2    18  DT18       -0.2654
    354  C5       -13.2050  -38.4370  -31.9010 C.ar   18  DT18        0.0534
    355  C6       -13.5330  -39.7150  -31.6940 C.ar   18  DT18        0.0824
    356  C7       -13.7080  -37.6780  -33.0930 C.3    18  DT18        0.0377
    357  P        -16.7380  -42.2030  -27.4470 P.3    19  DA19        0.2141
    358  OP1      -17.1350  -43.6290  -27.4050 O.2    19  DA19       -0.5172
    359  OP2      -17.7750  -41.1450  -27.3990 O.3    19  DA19       -0.4373
    360  O5'      -15.6740  -41.9480  -26.2950 O.3    19  DA19       -0.3114
    361  C5'      -14.3420  -42.4620  -26.4580 C.3    19  DA19        0.1811
    362  C4'      -13.3300  -41.3430  -26.6030 C.3    19  DA19        0.1746
    363  O4'      -13.6960  -40.3960  -27.6450 O.3    19  DA19       -0.3327
    364  C3'      -13.1540  -40.4460  -25.4020 C.3    19  DA19        0.1558
    365  O3'      -12.4330  -41.1170  -24.3900 O.3    19  DA19       -0.3138
    366  C2'      -12.3870  -39.2750  -26.0070 C.3    19  DA19        0.0865
    367  C1'      -13.0920  -39.1350  -27.3580 C.3    19  DA19        0.2094
    368  N9       -13.9010  -38.1200  -27.2180 N.ar   19  DA19       -0.2714
    369  C8       -15.2560  -38.3240  -27.2150 C.ar   19  DA19        0.1815
    370  N7       -15.9580  -37.2150  -27.2230 N.ar   19  DA19       -0.2193
    371  C5       -14.9980  -36.2150  -27.2300 C.ar   19  DA19        0.1518
    372  C6       -15.0930  -34.8130  -27.2410 C.ar   19  DA19        0.1919
    373  N6       -16.2520  -34.1500  -27.2470 N.pl3  19  DA19       -0.1054
    374  N1       -13.9420  -34.1070  -27.2450 N.ar   19  DA19       -0.2040
    375  C2       -12.7810  -34.7720  -27.2400 C.ar   19  DA19        0.2016
    376  N3       -12.5640  -36.0850  -27.2310 N.ar   19  DA19       -0.2048
    377  C4       -13.7270  -36.7580  -27.2260 C.ar   19  DA19        0.1691
    378  P        -12.6440  -40.7720  -22.8460 P.3    20  DT20        0.2141
    379  OP1      -11.8090  -41.3690  -21.7760 O.3    20  DT20       -0.4373
    380  OP2      -14.0760  -41.1090  -22.9260 O.2    20  DT20       -0.5172
    381  O5'      -12.5670  -39.1790  -22.7980 O.3    20  DT20       -0.3115
    382  C5'      -11.3110  -38.5020  -22.7020 C.3    20  DT20        0.1785
    383  C4'      -11.4020  -37.1180  -23.3190 C.3    20  DT20        0.1473
    384  O4'      -12.3520  -37.1220  -24.4160 O.3    20  DT20       -0.3353
    385  C3'      -11.8720  -35.9670  -22.4460 C.3    20  DT20        0.0368
    386  O3'      -10.8190  -35.4520  -21.6500 O.3    20  DT20       -0.1066
    387  C2'      -12.3240  -34.9440  -23.4830 C.3    20  DT20        0.0566
    388  C1'      -12.9480  -35.8420  -24.5380 C.3    20  DT20        0.2081
    389  N1       -14.3490  -36.0140  -24.3270 N.ar   20  DT20       -0.2559
    390  C2       -15.1940  -34.9910  -24.7170 C.ar   20  DT20        0.3545
    391  O2       -14.7930  -33.9480  -25.2010 O.2    20  DT20       -0.2443
    392  N3       -16.5310  -35.2350  -24.5180 N.ar   20  DT20       -0.1533
    393  C4       -17.0960  -36.3720  -23.9800 C.ar   20  DT20        0.2804
    394  O4       -18.3170  -36.4450  -23.8640 O.2    20  DT20       -0.2654
    395  C5       -16.1540  -37.3870  -23.5990 C.ar   20  DT20        0.0534
    396  C6       -14.8480  -37.1760  -23.7820 C.ar   20  DT20        0.0824
    397  C7       -16.6710  -38.6630  -23.0030 C.3    20  DT20        0.0377
    398  P        -11.2140  -35.2050  -20.9310 P.3    21  DT21        0.4736
    399  OP1       -9.7360  -35.2640  -20.7980 O.3    21  DT21       -0.0263
    400  OP2      -12.0620  -35.9480  -19.9670 O.2    21  DT21       -0.2429
    401  O5'      -11.6680  -33.6790  -20.9140 O.3    21  DT21       -0.2822
    402  C5'      -11.0090  -32.7310  -21.7470 C.3    21  DT21        0.1839
    403  C4'      -12.0090  -31.8830  -22.4950 C.3    21  DT21        0.1747
    404  O4'      -13.1250  -32.7060  -22.9140 O.3    21  DT21       -0.3327
    405  C3'      -12.6570  -30.7180  -21.7580 C.3    21  DT21        0.1558
    406  O3'      -11.8160  -29.5670  -21.7820 O.3    21  DT21       -0.3138
    407  C2'      -13.9210  -30.4910  -22.5790 C.3    21  DT21        0.0866
    408  C1'      -14.3040  -31.9210  -22.9580 C.3    21  DT21        0.2106
    409  N1       -15.3270  -32.4520  -22.1170 N.ar   21  DT21       -0.2559
    410  C2       -16.6290  -32.0410  -22.3290 C.ar   21  DT21        0.3545
    411  O2       -16.9210  -31.1040  -23.0510 O.2    21  DT21       -0.2443
    412  N3       -17.5840  -32.7700  -21.6610 N.ar   21  DT21       -0.1533
    413  C4       -17.3710  -33.8430  -20.8220 C.ar   21  DT21        0.2804
    414  O4       -18.3320  -34.3980  -20.2940 O.2    21  DT21       -0.2654
    415  C5       -15.9930  -34.2080  -20.6520 C.ar   21  DT21        0.0534
    416  C6       -15.0440  -33.5170  -21.2900 C.ar   21  DT21        0.0824
    417  C7       -15.6580  -35.3640  -19.7570 C.3    21  DT21        0.0377
    418  P        -11.7930  -28.7490  -20.5310 P.3    22  DC22        0.2141
    419  OP1      -10.5150  -28.0800  -20.9010 O.2    22  DC22       -0.5172
    420  OP2      -12.3140  -28.6500  -19.1420 O.3    22  DC22       -0.4373
    421  O5'      -12.9550  -28.2150  -21.4790 O.3    22  DC22       -0.3114
    422  C5'      -12.6590  -27.3790  -22.6060 C.3    22  DC22        0.1811
    423  C4'      -13.9380  -26.8960  -23.2470 C.3    22  DC22        0.1746
    424  O4'      -14.7370  -28.0380  -23.6530 O.3    22  DC22       -0.3327
    425  C3'      -14.8510  -26.0860  -22.3490 C.3    22  DC22        0.1558
    426  O3'      -14.4140  -24.7270  -22.3740 O.3    22  DC22       -0.3138
    427  C2'      -16.2110  -26.2910  -23.0120 C.3    22  DC22        0.0866
    428  C1'      -16.1070  -27.7480  -23.4760 C.3    22  DC22        0.2106
    429  N1       -16.6430  -28.7230  -22.5040 N.ar   22  DC22       -0.2556
    430  C2       -18.0320  -28.8760  -22.4220 C.ar   22  DC22        0.3531
    431  O2       -18.7530  -28.2060  -23.1810 O.2    22  DC22       -0.2443
    432  N3       -18.5480  -29.7450  -21.5200 N.ar   22  DC22       -0.1739
    433  C4       -17.7360  -30.4420  -20.7240 C.ar   22  DC22        0.1759
    434  N4       -18.2900  -31.2860  -19.8510 N.pl3  22  DC22       -0.1070
    435  C5       -16.3260  -30.3020  -20.7920 C.ar   22  DC22        0.0566
    436  C6       -15.8200  -29.4420  -21.6840 C.ar   22  DC22        0.0849
    437  P        -14.3630  -23.7790  -20.9250 P.3    23  DC23        0.2141
    438  OP1      -13.1160  -23.1960  -20.3850 O.2    23  DC23       -0.5172
    439  OP2      -15.0960  -24.7640  -20.0950 O.3    23  DC23       -0.4373
    440  O5'      -15.4510  -22.6310  -21.2740 O.3    23  DC23       -0.3114
    441  C5'      -16.3250  -22.6380  -22.4180 C.3    23  DC23        0.1811
    442  C4'      -17.8190  -22.7990  -22.1210 C.3    23  DC23        0.1746
    443  O4'      -18.3740  -24.0990  -22.4870 O.3    23  DC23       -0.3327
    444  C3'      -18.2880  -22.5710  -20.6860 C.3    23  DC23        0.1558
    445  O3'      -18.2380  -21.1900  -20.4390 O.3    23  DC23       -0.3138
    446  C2'      -19.7240  -23.0920  -20.7680 C.3    23  DC23        0.0866
    447  C1'      -19.5980  -24.2540  -21.7650 C.3    23  DC23        0.2106
    448  N1       -19.6350  -25.4240  -20.9900 N.ar   23  DC23       -0.2556
    449  C2       -20.8120  -26.0450  -20.5540 C.ar   23  DC23        0.3531
    450  O2       -21.9040  -25.5520  -20.8810 O.2    23  DC23       -0.2443
    451  N3       -20.7250  -27.1600  -19.7900 N.ar   23  DC23       -0.1739
    452  C4       -19.5300  -27.6530  -19.4620 C.ar   23  DC23        0.1759
    453  N4       -19.4940  -28.7530  -18.7070 N.pl3  23  DC23       -0.1070
    454  C5       -18.3260  -27.0390  -19.8940 C.ar   23  DC23        0.0566
    455  C6       -18.4160  -25.9380  -20.6480 C.ar   23  DC23        0.0849
    456  P        -18.4810  -20.5130  -19.1310 P.3    24  DT24        0.2141
    457  OP1      -18.6830  -19.0490  -19.0650 O.2    24  DT24       -0.5172
    458  OP2      -17.4260  -21.1750  -18.3310 O.3    24  DT24       -0.4373
    459  O5'      -19.8310  -21.2430  -18.6830 O.3    24  DT24       -0.3114
    460  C5'      -21.0470  -20.8190  -19.2780 C.3    24  DT24        0.1811
    461  C4'      -22.2040  -21.7220  -18.9310 C.3    24  DT24        0.1746
    462  O4'      -21.9850  -23.0670  -19.4370 O.3    24  DT24       -0.3327
    463  C3'      -22.4640  -21.9490  -17.4510 C.3    24  DT24        0.1558
    464  O3'      -23.0740  -20.8410  -16.8080 O.3    24  DT24       -0.3138
    465  C2'      -23.3370  -23.1920  -17.4940 C.3    24  DT24        0.0866
    466  C1'      -22.6570  -23.9900  -18.6090 C.3    24  DT24        0.2106
    467  N1       -21.7070  -24.9130  -17.9390 N.ar   24  DT24       -0.2559
    468  C2       -22.1860  -26.1310  -17.4960 C.ar   24  DT24        0.3545
    469  O2       -23.3560  -26.4580  -17.5880 O.2    24  DT24       -0.2443
    470  N3       -21.2420  -26.9590  -16.9390 N.ar   24  DT24       -0.1533
    471  C4       -19.8970  -26.6960  -16.7820 C.ar   24  DT24        0.2804
    472  O4       -19.1720  -27.5410  -16.2630 O.2    24  DT24       -0.2654
    473  C5       -19.4770  -25.4110  -17.2650 C.ar   24  DT24        0.0534
    474  C6       -20.3750  -24.5860  -17.8120 C.ar   24  DT24        0.0824
    475  C7       -18.0310  -25.0310  -17.1390 C.3    24  DT24        0.0377
    476  P        -22.3420  -20.2420  -15.5440 P.3    25  DC25        0.2141
    477  OP1      -23.0900  -18.9560  -15.7490 O.2    25  DC25       -0.5172
    478  OP2      -20.8680  -20.2590  -15.3460 O.3    25  DC25       -0.4373
    479  O5'      -23.0160  -21.1260  -14.3840 O.3    25  DC25       -0.3114
    480  C5'      -24.4310  -21.3430  -14.3320 C.3    25  DC25        0.1811
    481  C4'      -24.8140  -22.3850  -13.2830 C.3    25  DC25        0.1746
    482  O4'      -24.4330  -23.7080  -13.7660 O.3    25  DC25       -0.3327
    483  C3'      -24.1190  -22.2790  -11.9110 C.3    25  DC25        0.1558
    484  O3'      -24.7140  -21.2870  -11.0180 O.3    25  DC25       -0.3138
    485  C2'      -24.2530  -23.7080  -11.3950 C.3    25  DC25        0.0866
    486  C1'      -23.9650  -24.5060  -12.6790 C.3    25  DC25        0.2106
    487  N1       -22.4520  -24.7940  -12.7680 N.ar   25  DC25       -0.2556
    488  C2       -21.8410  -25.6650  -11.8590 C.ar   25  DC25        0.3531
    489  O2       -22.5180  -26.1220  -10.9220 O.2    25  DC25       -0.2443
    490  N3       -20.5350  -25.9820  -12.0250 N.ar   25  DC25       -0.1739
    491  C4       -19.8470  -25.4660  -13.0450 C.ar   25  DC25        0.1759
    492  N4       -18.5630  -25.8080  -13.1690 N.pl3  25  DC25       -0.1070
    493  C5       -20.4480  -24.5820  -13.9770 C.ar   25  DC25        0.0566
    494  C6       -21.7380  -24.2710  -13.8090 C.ar   25  DC25        0.0849
    495  P        -23.6470  -20.0670   -9.9870 P.3    26  DT26        0.2141
    496  OP1      -24.5540  -18.9130   -9.9070 O.3    26  DT26       -0.4373
    497  OP2      -22.2860  -19.7180  -10.4670 O.2    26  DT26       -0.5172
    498  O5'      -23.5160  -20.9080   -8.6450 O.3    26  DT26       -0.3114
    499  C5'      -24.6960  -21.4240   -8.0350 C.3    26  DT26        0.1811
    500  C4'      -24.3710  -22.6420   -7.2170 C.3    26  DT26        0.1746
    501  O4'      -23.8480  -23.6820   -8.0860 O.3    26  DT26       -0.3327
    502  C3'      -23.2880  -22.5140   -6.1370 C.3    26  DT26        0.1558
    503  O3'      -23.8010  -21.9300   -4.9620 O.3    26  DT26       -0.3138
    504  C2'      -23.0720  -24.0130   -5.8680 C.3    26  DT26        0.0866
    505  C1'      -23.0560  -24.5640   -7.2990 C.3    26  DT26        0.2106
    506  N1       -21.6610  -24.4970   -7.9700 N.ar   26  DT26       -0.2559
    507  C2       -20.7860  -25.5400   -7.7340 C.ar   26  DT26        0.3545
    508  O2       -21.0300  -26.4500   -6.9620 O.2    26  DT26       -0.2443
    509  N3       -19.6070  -25.4790   -8.4370 N.ar   26  DT26       -0.1533
    510  C4       -19.2250  -24.5020   -9.3320 C.ar   26  DT26        0.2804
    511  O4       -18.1320  -24.5850   -9.8880 O.2    26  DT26       -0.2654
    512  C5       -20.1870  -23.4530   -9.5220 C.ar   26  DT26        0.0534
    513  C6       -21.3410  -23.4880   -8.8510 C.ar   26  DT26        0.0824
    514  C7       -19.8630  -22.3420  -10.4760 C.3    26  DT26        0.0377
    515  P        -22.9940  -21.0900   -3.8150 P.3    27  DG27        0.2141
    516  OP1      -23.7420  -20.4940   -2.6810 O.3    27  DG27       -0.4373
    517  OP2      -22.0600  -20.2500   -4.5960 O.2    27  DG27       -0.5172
    518  O5'      -22.2120  -22.3910   -3.3260 O.3    27  DG27       -0.3114
    519  C5'      -22.8730  -23.3670   -2.5030 C.3    27  DG27        0.1811
    520  C4'      -21.9290  -24.4860   -2.1100 C.3    27  DG27        0.1746
    521  O4'      -21.5260  -25.2380   -3.2820 O.3    27  DG27       -0.3327
    522  C3'      -20.6170  -24.1150   -1.4340 C.3    27  DG27        0.1558
    523  O3'      -20.7600  -23.8510   -0.0410 O.3    27  DG27       -0.3138
    524  C2'      -19.7580  -25.3500   -1.6870 C.3    27  DG27        0.0865
    525  C1'      -20.2290  -25.7790   -3.0790 C.3    27  DG27        0.2094
    526  N9       -19.3940  -25.2740   -4.1450 N.ar   27  DG27       -0.2713
    527  C8       -19.6330  -24.1470   -4.8930 C.ar   27  DG27        0.1816
    528  N7       -18.7460  -23.9530   -5.8300 N.ar   27  DG27       -0.2173
    529  C5       -17.8690  -25.0130   -5.6970 C.ar   27  DG27        0.1748
    530  C6       -16.7010  -25.3430   -6.4320 C.ar   27  DG27        0.3023
    531  O6       -16.1970  -24.7340   -7.3840 O.2    27  DG27       -0.2633
    532  N1       -16.1030  -26.5100   -5.9640 N.ar   27  DG27       -0.1709
    533  C2       -16.5730  -27.2660   -4.9170 C.ar   27  DG27        0.2606
    534  N2       -15.8620  -28.3600   -4.6110 N.pl3  27  DG27       -0.0859
    535  N3       -17.6560  -26.9720   -4.2240 N.ar   27  DG27       -0.1918
    536  C4       -18.2520  -25.8420   -4.6610 C.ar   27  DG27        0.1722
    537  P        -19.6320  -22.9100    0.7330 P.3    28  DT28        0.2141
    538  OP1      -20.0810  -22.6940    2.1320 O.3    28  DT28       -0.4373
    539  OP2      -19.4050  -21.7370   -0.1520 O.2    28  DT28       -0.5172
    540  O5'      -18.2780  -23.7470    0.8070 O.3    28  DT28       -0.3114
    541  C5'      -18.1790  -24.9120    1.6420 C.3    28  DT28        0.1811
    542  C4'      -16.8770  -25.6290    1.3860 C.3    28  DT28        0.1746
    543  O4'      -16.8440  -26.1040    0.0150 O.3    28  DT28       -0.3327
    544  C3'      -15.6100  -24.7930    1.4980 C.3    28  DT28        0.1558
    545  O3'      -15.2050  -24.6410    2.8490 O.3    28  DT28       -0.3138
    546  C2'      -14.6240  -25.6350    0.7020 C.3    28  DT28        0.0866
    547  C1'      -15.5080  -26.1080   -0.4510 C.3    28  DT28        0.2106
    548  N1       -15.4190  -25.2180   -1.6120 N.ar   28  DT28       -0.2559
    549  C2       -14.4150  -25.4240   -2.5390 C.ar   28  DT28        0.3545
    550  O2       -13.5710  -26.2940   -2.4230 O.2    28  DT28       -0.2443
    551  N3       -14.4340  -24.5680   -3.6140 N.ar   28  DT28       -0.1533
    552  C4       -15.3350  -23.5510   -3.8490 C.ar   28  DT28        0.2804
    553  O4       -15.2230  -22.8660   -4.8630 O.2    28  DT28       -0.2654
    554  C5       -16.3460  -23.4000   -2.8410 C.ar   28  DT28        0.0534
    555  C6       -16.3510  -24.2190   -1.7850 C.ar   28  DT28        0.0824
    556  C7       -17.3730  -22.3200   -3.0060 C.3    28  DT28        0.0377
    557  P        -14.3460  -23.4600    3.2490 P.3    29  DT29        0.2141
    558  OP1      -14.3850  -22.6140    4.4620 O.3    29  DT29       -0.4373
    559  OP2      -13.7670  -22.8940    2.0110 O.2    29  DT29       -0.5172
    560  O5'      -13.6030  -24.8430    3.5690 O.3    29  DT29       -0.3114
    561  C5'      -12.1940  -24.8510    3.6120 C.3    29  DT29        0.1811
    562  C4'      -11.5690  -25.7350    2.5460 C.3    29  DT29        0.1746
    563  O4'      -12.4280  -25.9730    1.4030 O.3    29  DT29       -0.3327
    564  C3'      -10.3490  -25.1550    1.8520 C.3    29  DT29        0.1558
    565  O3'       -9.2620  -24.9980    2.7420 O.3    29  DT29       -0.3138
    566  C2'      -10.1610  -26.2070    0.7590 C.3    29  DT29        0.0866
    567  C1'      -11.6040  -26.2040    0.2640 C.3    29  DT29        0.2106
    568  N1       -11.7330  -25.2040   -0.7840 N.ar   29  DT29       -0.2559
    569  C2       -11.3330  -25.3470   -2.0990 C.ar   29  DT29        0.3545
    570  O2       -10.5030  -26.1640   -2.4560 O.2    29  DT29       -0.2443
    571  N3       -11.9420  -24.4930   -2.9870 N.ar   29  DT29       -0.1533
    572  C4       -12.8890  -23.5330   -2.6990 C.ar   29  DT29        0.2804
    573  O4       -13.3460  -22.8420   -3.6060 O.2    29  DT29       -0.2654
    574  C5       -13.2510  -23.4460   -1.3120 C.ar   29  DT29        0.0534
    575  C6       -12.6740  -24.2630   -0.4270 C.ar   29  DT29        0.0824
    576  C7       -14.2740  -22.4310   -0.8970 C.3    29  DT29        0.0377
    577  P         -9.1700  -23.6420    3.1900 P.3    30  DG30        0.2141
    578  OP1       -8.8450  -23.7970    4.6290 O.3    30  DG30       -0.4373
    579  OP2      -10.0330  -22.5030    2.7530 O.2    30  DG30       -0.5172
    580  O5'       -7.8040  -23.5720    2.3750 O.3    30  DG30       -0.3114
    581  C5'       -6.9630  -24.7170    2.2510 C.3    30  DG30        0.1811
    582  C4'       -6.1960  -24.6640    0.9540 C.3    30  DG30        0.1746
    583  O4'       -7.0640  -24.9860   -0.1670 O.3    30  DG30       -0.3327
    584  C3'       -5.6100  -23.3080    0.5980 C.3    30  DG30        0.1558
    585  O3'       -4.4020  -23.0300    1.2990 O.3    30  DG30       -0.3138
    586  C2'       -5.4410  -23.3950   -0.9180 C.3    30  DG30        0.0865
    587  C1'       -6.6280  -24.2760   -1.3200 C.3    30  DG30        0.2094
    588  N9        -7.7520  -23.5210   -1.8680 N.ar   30  DG30       -0.2713
    589  C8        -8.9250  -23.2300   -1.2140 C.ar   30  DG30        0.1816
    590  N7        -9.7970  -22.6190   -1.9680 N.ar   30  DG30       -0.2173
    591  C5        -9.1680  -22.4990   -3.1930 C.ar   30  DG30        0.1748
    592  C6        -9.6160  -21.9210   -4.4090 C.ar   30  DG30        0.3023
    593  O6       -10.7030  -21.3800   -4.6450 O.2    30  DG30       -0.2633
    594  N1        -8.6560  -22.0110   -5.4130 N.ar   30  DG30       -0.1709
    595  C2        -7.4170  -22.5880   -5.2650 C.ar   30  DG30        0.2606
    596  N2        -6.6290  -22.5820   -6.3480 N.pl3  30  DG30       -0.0859
    597  N3        -6.9870  -23.1290   -4.1420 N.ar   30  DG30       -0.1918
    598  C4        -7.9020  -23.0520   -3.1520 C.ar   30  DG30        0.1722
    599  P         -3.8680  -21.4720    1.4130 P.3    31  DA31        0.2141
    600  OP1       -2.8610  -21.3270    2.4950 O.3    31  DA31       -0.4373
    601  OP2       -5.2810  -21.0800    1.6670 O.2    31  DA31       -0.5172
    602  O5'       -3.3680  -20.7420    0.0810 O.3    31  DA31       -0.3114
    603  C5'       -2.1900  -21.2060   -0.5920 C.3    31  DA31        0.1811
    604  C4'       -2.2030  -20.8810   -2.0830 C.3    31  DA31        0.1746
    605  O4'       -3.1690  -21.6750   -2.8300 O.3    31  DA31       -0.3327
    606  C3'       -2.4430  -19.4520   -2.5350 C.3    31  DA31        0.1558
    607  O3'       -1.2680  -18.6730   -2.3420 O.3    31  DA31       -0.3138
    608  C2'       -2.7730  -19.6470   -4.0150 C.3    31  DA31        0.0865
    609  C1'       -3.5460  -20.9690   -4.0030 C.3    31  DA31        0.2094
    610  N9        -4.8370  -20.7760   -3.8740 N.ar   31  DA31       -0.2714
    611  C8        -5.5710  -20.6260   -2.7260 C.ar   31  DA31        0.1815
    612  N7        -6.7580  -20.1020   -2.9230 N.ar   31  DA31       -0.2193
    613  C5        -6.8060  -19.8930   -4.2920 C.ar   31  DA31        0.1518
    614  C6        -7.8000  -19.3620   -5.1330 C.ar   31  DA31        0.1919
    615  N6        -8.9840  -18.9280   -4.6960 N.pl3  31  DA31       -0.1054
    616  N1        -7.5300  -19.2920   -6.4540 N.ar   31  DA31       -0.2040
    617  C2        -6.3430  -19.7270   -6.8910 C.ar   31  DA31        0.2016
    618  N3        -5.3310  -20.2470   -6.1990 N.ar   31  DA31       -0.2048
    619  C4        -5.6300  -20.3020   -4.8910 C.ar   31  DA31        0.1691
    620  P         -1.3440  -17.1450   -1.7860 P.3    32  DA32        0.2141
    621  OP1       -0.1360  -16.6220   -1.1080 O.3    32  DA32       -0.4373
    622  OP2       -2.6880  -16.8490   -1.2140 O.2    32  DA32       -0.5172
    623  O5'       -1.3260  -16.6390   -3.3030 O.3    32  DA32       -0.3114
    624  C5'       -0.2140  -16.9040   -4.1700 C.3    32  DA32        0.1811
    625  C4'       -0.5580  -16.5550   -5.6090 C.3    32  DA32        0.1744
    626  O4'       -1.6780  -17.3690   -6.0400 O.3    32  DA32       -0.3349
    627  C3'       -0.9780  -15.1180   -5.9120 C.3    32  DA32        0.1555
    628  O3'        0.1530  -14.2920   -6.1860 O.3    32  DA32       -0.3139
    629  C2'       -1.8240  -15.2810   -7.1680 C.3    32  DA32        0.0835
    630  C1'       -2.4970  -16.6290   -6.9240 C.3    32  DA32        0.1974
    631  N9        -3.8100  -16.5030   -6.2370 N.pl3  32  DA32       -0.2459
    632  C8        -4.1240  -16.4050   -4.9070 C.2    32  DA32        0.1667
    633  N7        -5.4140  -16.3590   -4.6690 N.2    32  DA32       -0.2252
    634  C5        -5.9860  -16.4320   -5.9300 C.2    32  DA32        0.1392
    635  C6        -7.3240  -16.4310   -6.3630 C.ar   32  DA32        0.2019
    636  N6        -8.3680  -16.3530   -5.5360 N.ar   32  DA32       -0.1436
    637  N1        -7.5520  -16.5150   -7.6910 N.ar   32  DA32       -0.1863
    638  C2        -6.5040  -16.5940   -8.5190 C.2    32  DA32        0.1989
    639  N3        -5.2040  -16.6050   -8.2320 N.2    32  DA32       -0.2251
    640  C4        -5.0110  -16.5190   -6.9050 C.3    32  DA32        0.2267
    641  P         -0.1300  -12.7160   -6.3750 P.3    33  DG33        0.2141
    642  OP1        1.1060  -11.9040   -6.4440 O.2    33  DG33       -0.5172
    643  OP2       -0.6840  -13.0820   -5.0500 O.3    33  DG33       -0.4373
    644  O5'       -1.3330  -11.9880   -7.1530 O.3    33  DG33       -0.3114
    645  C5'       -1.3550  -11.9860   -8.5760 C.3    33  DG33        0.1811
    646  C4'       -2.7280  -11.7210   -9.1580 C.3    33  DG33        0.1746
    647  O4'       -3.6150  -12.8560   -8.9680 O.3    33  DG33       -0.3327
    648  C3'       -3.5090  -10.5660   -8.5580 C.3    33  DG33        0.1558
    649  O3'       -3.0600   -9.2970   -8.9950 O.3    33  DG33       -0.3138
    650  C2'       -4.9400  -10.8970   -8.9610 C.3    33  DG33        0.0865
    651  C1'       -4.9380  -12.4060   -8.7510 C.3    33  DG33        0.2094
    652  N9        -5.4630  -12.6060   -7.3530 N.ar   33  DG33       -0.2713
    653  C8        -4.7720  -13.2100   -6.3310 C.ar   33  DG33        0.1816
    654  N7        -5.5030  -13.4260   -5.2710 N.ar   33  DG33       -0.2173
    655  C5        -6.7510  -12.9390   -5.6110 C.ar   33  DG33        0.1748
    656  C6        -7.9580  -12.8930   -4.8660 C.ar   33  DG33        0.3023
    657  O6        -8.1620  -13.2930   -3.7130 O.2    33  DG33       -0.2633
    658  N1        -8.9950  -12.3110   -5.5900 N.ar   33  DG33       -0.1709
    659  C2        -8.8830  -11.8330   -6.8740 C.ar   33  DG33        0.2606
    660  N2        -9.9940  -11.3070   -7.4080 N.pl3  33  DG33       -0.0859
    661  N3        -7.7680  -11.8680   -7.5780 N.ar   33  DG33       -0.1918
    662  C4        -6.7480  -12.4280   -6.8940 C.ar   33  DG33        0.1722
    663  P         -2.4940   -8.6750   -7.9520 P.3    34  DA34        0.2141
    664  OP1       -1.8050   -7.6550   -8.7750 O.2    34  DA34       -0.5172
    665  OP2       -1.7980   -9.2570   -6.7760 O.3    34  DA34       -0.4373
    666  O5'       -3.9090   -8.1060   -7.4910 O.3    34  DA34       -0.3114
    667  C5'       -4.7370   -7.3630   -8.4070 C.3    34  DA34        0.1811
    668  C4'       -5.9500   -6.8280   -7.6930 C.3    34  DA34        0.1746
    669  O4'       -6.7930   -7.9390   -7.3110 O.3    34  DA34       -0.3327
    670  C3'       -5.6670   -6.0870   -6.3920 C.3    34  DA34        0.1558
    671  O3'       -5.3610   -4.7170   -6.6080 O.3    34  DA34       -0.3138
    672  C2'       -6.9550   -6.2860   -5.6030 C.3    34  DA34        0.0865
    673  C1'       -7.3680   -7.6920   -6.0400 C.3    34  DA34        0.2094
    674  N9        -6.9330   -8.8110   -5.1040 N.ar   34  DA34       -0.2714
    675  C8        -5.7820   -9.5520   -5.0350 C.ar   34  DA34        0.1815
    676  N7        -5.6660  -10.2470   -3.9280 N.ar   34  DA34       -0.2193
    677  C5        -6.8180   -9.9400   -3.2220 C.ar   34  DA34        0.1518
    678  C6        -7.2960  -10.3560   -1.9670 C.ar   34  DA34        0.1919
    679  N6        -6.6430  -11.2050   -1.1710 N.pl3  34  DA34       -0.1054
    680  N1        -8.4830   -9.8610   -1.5540 N.ar   34  DA34       -0.2040
    681  C2        -9.1370   -9.0110   -2.3530 C.ar   34  DA34        0.2016
    682  N3        -8.7910   -8.5480   -3.5520 N.ar   34  DA34       -0.2048
    683  C4        -7.6070   -9.0570   -3.9330 C.ar   34  DA34        0.1691
    684  P         -4.2370   -3.9410   -5.6110 P.3    35  DA35        0.2141
    685  OP1       -3.8100   -2.9880   -6.6770 O.2    35  DA35       -0.5172
    686  OP2       -3.2620   -4.9730   -5.1240 O.3    35  DA35       -0.4373
    687  O5'       -4.7720   -3.1170   -4.3510 O.3    35  DA35       -0.3114
    688  C5'       -5.8080   -2.1360   -4.4720 C.3    35  DA35        0.1811
    689  C4'       -6.7290   -2.2250   -3.2820 C.3    35  DA35        0.1746
    690  O4'       -7.1900   -3.5950   -3.2630 O.3    35  DA35       -0.3327
    691  C3'       -6.1180   -1.9810   -1.8960 C.3    35  DA35        0.1558
    692  O3'       -6.2220   -0.5980   -1.4730 O.3    35  DA35       -0.3138
    693  C2'       -6.9860   -2.8640   -1.0020 C.3    35  DA35        0.0865
    694  C1'       -7.3740   -4.0090   -1.9350 C.3    35  DA35        0.2094
    695  N9        -7.1380   -5.1950   -1.8270 N.ar   35  DA35       -0.2714
    696  C8        -6.0600   -5.7100   -2.4970 C.ar   35  DA35        0.1815
    697  N7        -5.6800   -6.8880   -2.0620 N.ar   35  DA35       -0.2193
    698  C5        -6.5690   -7.1650   -1.0350 C.ar   35  DA35        0.1518
    699  C6        -6.7010   -8.2640   -0.1690 C.ar   35  DA35        0.1919
    700  N6        -5.9020   -9.3340   -0.2050 N.pl3  35  DA35       -0.1054
    701  N1        -7.6940   -8.2260    0.7450 N.ar   35  DA35       -0.2040
    702  C2        -8.4940   -7.1550    0.7790 C.ar   35  DA35        0.2016
    703  N3        -8.4700   -6.0620    0.0190 N.ar   35  DA35       -0.2048
    704  C4        -7.4720   -6.1310   -0.8780 C.ar   35  DA35        0.1691
    705  P         -4.9820    0.1070   -0.8530 P.3    36  DC36        0.2141
    706  OP1       -5.6450    0.1010    0.4810 O.3    36  DC36       -0.4373
    707  OP2       -5.3040    1.1920   -1.8200 O.2    36  DC36       -0.5172
    708  O5'       -3.3920    0.0850   -0.6850 O.3    36  DC36       -0.3114
    709  C5'       -2.7310   -1.1060   -0.2690 C.3    36  DC36        0.1811
    710  C4'       -1.2740   -1.1020   -0.6850 C.3    36  DC36        0.1746
    711  O4'       -1.1430   -1.0730   -2.1300 O.3    36  DC36       -0.3327
    712  C3'       -0.4050    0.0450   -0.2060 C.3    36  DC36        0.1558
    713  O3'        0.0320   -0.1780    1.1260 O.3    36  DC36       -0.3138
    714  C2'        0.7520    0.0320   -1.2020 C.3    36  DC36        0.0866
    715  C1'        0.0560   -0.4050   -2.4900 C.3    36  DC36        0.2106
    716  N1        -0.2610    0.7840   -3.2120 N.ar   36  DC36       -0.2556
    717  C2         0.7990    1.4750   -3.8090 C.ar   36  DC36        0.3531
    718  O2         1.9320    0.9650   -3.7890 O.2    36  DC36       -0.2443
    719  N3         0.5610    2.6760   -4.3890 N.ar   36  DC36       -0.1739
    720  C4        -0.6720    3.1860   -4.3850 C.ar   36  DC36        0.1759
    721  N4        -0.8590    4.3720   -4.9680 N.pl3  36  DC36       -0.1070
    722  C5        -1.7600    2.5010   -3.7850 C.ar   36  DC36        0.0566
    723  C6        -1.5200    1.3160   -3.2140 C.ar   36  DC36        0.0849
    724  P          0.5760    1.0320    1.9640 P.3    37  DC37        0.2141
    725  OP1        0.5870    0.6870    3.4160 O.3    37  DC37       -0.4373
    726  OP2       -0.5800    1.7890    1.4010 O.2    37  DC37       -0.5172
    727  O5'        1.9160    1.8210    1.5760 O.3    37  DC37       -0.3114
    728  C5'        3.2170    1.2320    1.7310 C.3    37  DC37        0.1811
    729  C4'        4.2730    2.0710    1.0390 C.3    37  DC37        0.1746
    730  O4'        4.0600    2.0120   -0.3970 O.3    37  DC37       -0.3327
    731  C3'        4.2990    3.5610    1.3570 C.3    37  DC37        0.1558
    732  O3'        5.0150    3.8990    2.5400 O.3    37  DC37       -0.3138
    733  C2'        4.9710    4.1510    0.1230 C.3    37  DC37        0.0866
    734  C1'        4.4510    3.2370   -0.9860 C.3    37  DC37        0.2106
    735  N1         3.2620    3.8320   -1.6160 N.ar   37  DC37       -0.2556
    736  C2         3.4490    4.6890   -2.7070 C.ar   37  DC37        0.3531
    737  O2         4.5900    4.8060   -3.1870 O.2    37  DC37       -0.2443
    738  N3         2.3860    5.3650   -3.2040 N.ar   37  DC37       -0.1739
    739  C4         1.1810    5.2100   -2.6560 C.ar   37  DC37        0.1759
    740  N4         0.1620    5.8960   -3.1800 N.pl3  37  DC37       -0.1070
    741  C5         0.9700    4.3460   -1.5500 C.ar   37  DC37        0.0566
    742  C6         2.0230    3.6810   -1.0620 C.ar   37  DC37        0.0849
    743  P          4.7850    5.4380    3.2450 P.3    38  DA38        0.2141
    744  OP1        4.8470    5.5770    4.7160 O.3    38  DA38       -0.4373
    745  OP2        3.8820    6.3080    2.4560 O.2    38  DA38       -0.5172
    746  O5'        6.2390    5.6920    2.6190 O.3    38  DA38       -0.3114
    747  C5'        6.7770    7.0050    2.5420 C.3    38  DA38        0.1811
    748  C4'        7.5080    7.2480    1.2430 C.3    38  DA38        0.1746
    749  O4'        6.7790    6.6350    0.1480 O.3    38  DA38       -0.3327
    750  C3'        7.6580    8.7070    0.8380 C.3    38  DA38        0.1558
    751  O3'        8.7980    9.3130    1.4180 O.3    38  DA38       -0.3138
    752  C2'        7.7330    8.6520   -0.6800 C.3    38  DA38        0.0865
    753  C1'        6.8420    7.4530   -1.0000 C.3    38  DA38        0.2094
    754  N9         5.4190    7.8610   -1.3990 N.ar   38  DA38       -0.2714
    755  C8         4.2580    7.6360   -0.7070 C.ar   38  DA38        0.1815
    756  N7         3.1760    7.9930   -1.3570 N.ar   38  DA38       -0.2193
    757  C5         3.6590    8.4880   -2.5590 C.ar   38  DA38        0.1518
    758  C6         3.0160    9.0250   -3.6880 C.ar   38  DA38        0.1919
    759  N6         1.6920    9.1570   -3.7910 N.pl3  38  DA38       -0.1054
    760  N1         3.7910    9.4260   -4.7180 N.ar   38  DA38       -0.2040
    761  C2         5.1180    9.2920   -4.6140 C.ar   38  DA38        0.2016
    762  N3         5.8370    8.8020   -3.6060 N.ar   38  DA38       -0.2048
    763  C4         5.0390    8.4140   -2.5980 C.ar   38  DA38        0.1691
    764  P          8.7790   10.9560    1.9970 P.3    39  DC39        0.2141
    765  OP1       10.1430   11.2400    2.5180 O.2    39  DC39       -0.5172
    766  OP2        7.5890   11.3260    2.8070 O.3    39  DC39       -0.4373
    767  O5'        8.6350   11.6410    0.5690 O.3    39  DC39       -0.3114
    768  C5'        9.5380   11.3050   -0.4940 C.3    39  DC39        0.1811
    769  C4'        9.0700   11.9250   -1.7810 C.3    39  DC39        0.1746
    770  O4'        7.8930   11.2410   -2.2830 O.3    39  DC39       -0.3327
    771  C3'        8.6320   13.3690   -1.6470 C.3    39  DC39        0.1558
    772  O3'        9.7620   14.2340   -1.5970 O.3    39  DC39       -0.3138
    773  C2'        7.7320   13.5380   -2.8680 C.3    39  DC39        0.0866
    774  C1'        7.0250   12.1800   -2.9010 C.3    39  DC39        0.2106
    775  N1         5.7240   12.1680   -2.1790 N.ar   39  DC39       -0.2556
    776  C2         4.6320   12.8220   -2.7590 C.ar   39  DC39        0.3531
    777  O2         4.7860   13.3850   -3.8570 O.2    39  DC39       -0.2443
    778  N3         3.4430   12.8240   -2.1100 N.ar   39  DC39       -0.1739
    779  C4         3.3250   12.2080   -0.9330 C.ar   39  DC39        0.1759
    780  N4         2.1340   12.2360   -0.3300 N.pl3  39  DC39       -0.1070
    781  C5         4.4200   11.5390   -0.3280 C.ar   39  DC39        0.0566
    782  C6         5.5920   11.5400   -0.9730 C.ar   39  DC39        0.0849
    783  P          9.5890   15.8250   -1.0840 P.3    40  DT40        0.2141
    784  OP1       10.6730   16.7410   -1.5180 O.2    40  DT40       -0.5172
    785  OP2        9.5320   15.4130    0.3450 O.3    40  DT40       -0.4373
    786  O5'        8.1740   16.4200   -1.5780 O.3    40  DT40       -0.3114
    787  C5'        8.0700   17.0650   -2.8720 C.3    40  DT40        0.1811
    788  C4'        6.7060   17.7150   -3.1130 C.3    40  DT40        0.1746
    789  O4'        5.6470   16.7220   -3.1050 O.3    40  DT40       -0.3327
    790  C3'        6.2220   18.8200   -2.1810 C.3    40  DT40        0.1558
    791  O3'        6.8140   20.0800   -2.5220 O.3    40  DT40       -0.3138
    792  C2'        4.7070   18.7880   -2.4040 C.3    40  DT40        0.0866
    793  C1'        4.4570   17.2850   -2.5850 C.3    40  DT40        0.2106
    794  N1         4.0280   16.5900   -1.3360 N.ar   40  DT40       -0.2559
    795  C2         2.7420   16.7980   -0.8760 C.ar   40  DT40        0.3545
    796  O2         1.9410   17.5180   -1.4470 O.2    40  DT40       -0.2443
    797  N3         2.4230   16.1330    0.2830 N.ar   40  DT40       -0.1533
    798  C4         3.2440   15.2970    1.0120 C.ar   40  DT40        0.2804
    799  O4         2.8150   14.7690    2.0350 O.2    40  DT40       -0.2654
    800  C5         4.5640   15.1320    0.4710 C.ar   40  DT40        0.0534
    801  C6         4.9000   15.7680   -0.6550 C.ar   40  DT40        0.0824
    802  C7         5.5320   14.2420    1.1930 C.3    40  DT40        0.0377
    803  P          7.0400   21.2610   -1.3670 P.3    41  DT41        0.2141
    804  OP1        8.1470   22.1180   -1.8460 O.2    41  DT41       -0.5172
    805  OP2        7.2680   20.3310   -0.2290 O.3    41  DT41       -0.4373
    806  O5'        5.8440   22.2220   -0.9790 O.3    41  DT41       -0.3114
    807  C5'        5.1200   22.8820   -1.9870 C.3    41  DT41        0.1811
    808  C4'        3.7160   23.1010   -1.5340 C.3    41  DT41        0.1746
    809  O4'        3.0380   21.8300   -1.3920 O.3    41  DT41       -0.3327
    810  C3'        3.6090   23.7250   -0.1600 C.3    41  DT41        0.1558
    811  O3'        3.7890   25.1260   -0.1990 O.3    41  DT41       -0.3138
    812  C2'        2.2230   23.3050    0.3060 C.3    41  DT41        0.0866
    813  C1'        2.0710   21.9330   -0.3600 C.3    41  DT41        0.2106
    814  N1         2.2910   20.8470    0.6270 N.ar   41  DT41       -0.2559
    815  C2         1.2900   20.5730    1.5400 C.ar   41  DT41        0.3545
    816  O2         0.2340   21.1780    1.5690 O.2    41  DT41       -0.2443
    817  N3         1.5720   19.5590    2.4230 N.ar   41  DT41       -0.1533
    818  C4         2.7280   18.8090    2.4850 C.ar   41  DT41        0.2804
    819  O4         2.8340   17.9290    3.3360 O.2    41  DT41       -0.2654
    820  C5         3.7190   19.1550    1.5050 C.ar   41  DT41        0.0534
    821  C6         3.4720   20.1360    0.6340 C.ar   41  DT41        0.0824
    822  C7         5.0130   18.3960    1.4910 C.3    41  DT41        0.0377
    823  P          4.4240   25.9090    1.1440 P.3    42  DC42        0.2141
    824  OP1        4.8170   27.3270    1.2270 O.2    42  DC42       -0.5172
    825  OP2        5.4290   24.8570    1.3740 O.3    42  DC42       -0.4373
    826  O5'        3.2900   25.6130    2.2300 O.3    42  DC42       -0.3114
    827  C5'        2.4110   26.6520    2.6260 C.3    42  DC42        0.1811
    828  C4'        1.1870   26.0950    3.3030 C.3    42  DC42        0.1746
    829  O4'        0.9140   24.7770    2.7700 O.3    42  DC42       -0.3327
    830  C3'        1.2980   25.8230    4.7920 C.3    42  DC42        0.1558
    831  O3'        1.2070   26.9780    5.5990 O.3    42  DC42       -0.3138
    832  C2'        0.1750   24.8210    5.0150 C.3    42  DC42        0.0866
    833  C1'        0.3760   23.9560    3.7840 C.3    42  DC42        0.2106
    834  N1         1.3580   22.8500    4.1110 N.ar   42  DC42       -0.2556
    835  C2         1.0400   21.7950    4.9750 C.ar   42  DC42        0.3531
    836  O2        -0.0230   21.8480    5.6160 O.2    42  DC42       -0.2443
    837  N3         1.8980   20.7530    5.0860 N.ar   42  DC42       -0.1739
    838  C4         3.0280   20.7400    4.3780 C.ar   42  DC42        0.1759
    839  N4         3.8420   19.6920    4.5200 N.pl3  42  DC42       -0.1070
    840  C5         3.3680   21.7990    3.4980 C.ar   42  DC42        0.0566
    841  C6         2.5190   22.8260    3.3910 C.ar   42  DC42        0.0849
    842  P          2.3860   27.2320    6.5210 P.3    43  DC43        0.2141
    843  OP1        2.2550   28.6660    6.8600 O.3    43  DC43       -0.4373
    844  OP2        3.7110   26.6850    6.1410 O.2    43  DC43       -0.5172
    845  O5'        1.7900   26.3570    7.7350 O.3    43  DC43       -0.3114
    846  C5'        0.7730   26.8500    8.6180 C.3    43  DC43        0.1811
    847  C4'        0.2720   25.7510    9.5470 C.3    43  DC43        0.1746
    848  O4'       -0.0270   24.5460    8.7920 O.3    43  DC43       -0.3327
    849  C3'        1.2670   25.2620   10.5890 C.3    43  DC43        0.1558
    850  O3'        1.2830   26.0720   11.7470 O.3    43  DC43       -0.3138
    851  C2'        0.7230   23.8790   10.9230 C.3    43  DC43        0.0866
    852  C1'        0.3470   23.3900    9.5340 C.3    43  DC43        0.2106
    853  N1         1.4430   22.6090    8.9540 N.ar   43  DC43       -0.2556
    854  C2         1.7160   21.3230    9.4330 C.ar   43  DC43        0.3531
    855  O2         1.0140   20.8650   10.3510 O.2    43  DC43       -0.2443
    856  N3         2.7350   20.6180    8.8850 N.ar   43  DC43       -0.1739
    857  C4         3.4620   21.1510    7.9030 C.ar   43  DC43        0.1759
    858  N4         4.4560   20.4190    7.3940 N.pl3  43  DC43       -0.1070
    859  C5         3.2010   22.4520    7.4030 C.ar   43  DC43        0.0566
    860  C6         2.1950   23.1450    7.9470 C.ar   43  DC43        0.0849
    861  P          2.6510   25.9310   12.7230 P.3    44  DG44        0.2141
    862  OP1        2.3950   27.0310   13.6960 O.3    44  DG44       -0.4373
    863  OP2        3.6230   26.1430   11.6140 O.2    44  DG44       -0.5172
    864  O5'        3.0100   24.6250   13.5680 O.3    44  DG44       -0.3114
    865  C5'        2.1860   24.2200   14.6630 C.3    44  DG44        0.1811
    866  C4'        2.5460   22.8220   15.1180 C.3    44  DG44        0.1746
    867  O4'        2.3260   21.8810   14.0360 O.3    44  DG44       -0.3327
    868  C3'        3.9990   22.6030   15.5020 C.3    44  DG44        0.1558
    869  O3'        4.2670   23.0600   16.8200 O.3    44  DG44       -0.3138
    870  C2'        4.1490   21.0970   15.3300 C.3    44  DG44        0.0865
    871  C1'        3.3310   20.8760   14.0590 C.3    44  DG44        0.2094
    872  N9         4.1170   21.0450   12.8540 N.ar   44  DG44       -0.2713
    873  C8         4.1600   22.1190   11.9980 C.ar   44  DG44        0.1816
    874  N7         5.0020   21.9600   11.0140 N.ar   44  DG44       -0.2173
    875  C5         5.5490   20.7090   11.2290 C.ar   44  DG44        0.1748
    876  C6         6.5250   19.9890   10.4930 C.ar   44  DG44        0.3023
    877  O6         7.1170   20.3350    9.4630 O.2    44  DG44       -0.2633
    878  N1         6.7960   18.7480   11.0620 N.ar   44  DG44       -0.1709
    879  C2         6.2000   18.2600   12.2010 C.ar   44  DG44        0.2606
    880  N2         6.5900   17.0410   12.5970 N.pl3  44  DG44       -0.0859
    881  N3         5.2930   18.9180   12.8960 N.ar   44  DG44       -0.1918
    882  C4         5.0150   20.1260   12.3620 C.ar   44  DG44        0.1722
    883  P          5.6310   23.7730   17.1270 P.3    45  DG45        0.2141
    884  OP1        5.6730   24.0770   18.5840 O.3    45  DG45       -0.4373
    885  OP2        6.2310   24.7280   16.1640 O.2    45  DG45       -0.5172
    886  O5'        6.3270   22.3610   16.9010 O.3    45  DG45       -0.3114
    887  C5'        5.9780   21.2240   17.7000 C.3    45  DG45        0.1811
    888  C4'        6.9450   20.0920   17.4400 C.3    45  DG45        0.1746
    889  O4'        6.7520   19.6060   16.0860 O.3    45  DG45       -0.3327
    890  C3'        8.4340   20.4320   17.5280 C.3    45  DG45        0.1558
    891  O3'        8.9460   20.3250   18.8510 O.3    45  DG45       -0.3138
    892  C2'        9.0540   19.3650   16.6500 C.3    45  DG45        0.0865
    893  C1'        8.0010   19.2120   15.5480 C.3    45  DG45        0.2094
    894  N9         8.3160   20.1050   14.3640 N.ar   45  DG45       -0.2713
    895  C8         7.9110   21.3860   14.0750 C.ar   45  DG45        0.1816
    896  N7         8.4850   21.8810   13.0130 N.ar   45  DG45       -0.2173
    897  C5         9.3170   20.8700   12.5700 C.ar   45  DG45        0.1748
    898  C6        10.1980   20.8190   11.4590 C.ar   45  DG45        0.3023
    899  O6        10.4180   21.6970   10.6160 O.2    45  DG45       -0.2633
    900  N1        10.8600   19.5970   11.3750 N.ar   45  DG45       -0.1709
    901  C2        10.6940   18.5530   12.2530 C.ar   45  DG45        0.2606
    902  N2        11.4190   17.4530   12.0070 N.pl3  45  DG45       -0.0859
    903  N3         9.8800   18.5860   13.2900 N.ar   45  DG45       -0.1918
    904  C4         9.2280   19.7630   13.3920 C.ar   45  DG45        0.1722
    905  P         10.5440   21.1040   19.3360 P.3    46  DA46        0.2141
    906  OP1       10.6180   20.8920   20.8130 O.3    46  DA46       -0.4373
    907  OP2       11.4300   22.0970   18.6730 O.2    46  DA46       -0.5172
    908  O5'       10.7860   19.7210   18.6040 O.3    46  DA46       -0.3114
    909  C5'       11.5190   18.7010   19.2200 C.3    46  DA46        0.1811
    910  C4'       12.2760   17.9400   18.1830 C.3    46  DA46        0.1746
    911  O4'       11.6600   18.1680   16.8970 O.3    46  DA46       -0.3327
    912  C3'       13.6690   18.4200   17.9050 C.3    46  DA46        0.1558
    913  O3'       14.5150   18.0270   18.9220 O.3    46  DA46       -0.3138
    914  C2'       13.9550   17.8090   16.5560 C.3    46  DA46        0.0865
    915  C1'       12.6330   18.0740   15.8700 C.3    46  DA46        0.2094
    916  N9        12.6840   19.4800   15.2810 N.ar   46  DA46       -0.2714
    917  C8        11.8910   20.5240   15.6800 C.ar   46  DA46        0.1815
    918  N7        11.9160   21.5490   14.8610 N.ar   46  DA46       -0.2193
    919  C5        12.7860   21.1520   13.8580 C.ar   46  DA46        0.1518
    920  C6        13.2390   21.7910   12.6910 C.ar   46  DA46        0.1919
    921  N6        12.8580   23.0170   12.3240 N.pl3  46  DA46       -0.1054
    922  N1        14.1050   21.1180   11.9040 N.ar   46  DA46       -0.2040
    923  C2        14.4850   19.8890   12.2710 C.ar   46  DA46        0.2016
    924  N3        14.1280   19.1840   13.3420 N.ar   46  DA46       -0.2048
    925  C4        13.2680   19.8800   14.1040 C.ar   46  DA46        0.1691
    926  P         15.4420   19.0110   19.5030 P.3    47  DA47        0.2141
    927  OP1       15.4370   18.3410   20.8230 O.3    47  DA47       -0.4373
    928  OP2       14.9580   20.4030   19.3470 O.2    47  DA47       -0.5172
    929  O5'       16.9190   19.0560   18.9030 O.3    47  DA47       -0.3114
    930  C5'       17.5370   17.8060   18.6650 C.3    47  DA47        0.1811
    931  C4'       18.3490   17.8140   17.3980 C.3    47  DA47        0.1746
    932  O4'       17.5150   18.0840   16.2410 O.3    47  DA47       -0.3327
    933  C3'       19.4240   18.8770   17.2940 C.3    47  DA47        0.1558
    934  O3'       20.5470   18.6090   18.1070 O.3    47  DA47       -0.3138
    935  C2'       19.7180   18.8100   15.8050 C.3    47  DA47        0.0865
    936  C1'       18.2970   18.7150   15.2510 C.3    47  DA47        0.2094
    937  N9        17.8260   20.0100   14.9730 N.ar   47  DA47       -0.2714
    938  C8        17.0380   20.7150   15.8450 C.ar   47  DA47        0.1815
    939  N7        16.5300   21.8110   15.3330 N.ar   47  DA47       -0.2193
    940  C5        17.0190   21.8280   14.0360 C.ar   47  DA47        0.1518
    941  C6        16.8460   22.7310   12.9720 C.ar   47  DA47        0.1919
    942  N6        16.1020   23.8360   13.0540 N.pl3  47  DA47       -0.1054
    943  N1        17.4730   22.4540   11.8080 N.ar   47  DA47       -0.2040
    944  C2        18.2180   21.3460   11.7280 C.ar   47  DA47        0.2016
    945  N3        18.4540   20.4220   12.6560 N.ar   47  DA47       -0.2048
    946  C4        17.8190   20.7260   13.8000 C.ar   47  DA47        0.1691
    947  P         21.2550   19.7980   18.7210 P.3    48  DA48        0.2141
    948  OP1       21.9650   18.9690   19.6890 O.3    48  DA48       -0.4373
    949  OP2       20.5990   21.0860   19.0810 O.2    48  DA48       -0.5172
    950  O5'       22.1010   20.1000   17.4070 O.3    48  DA48       -0.3114
    951  C5'       23.1640   19.2430   17.1590 C.3    48  DA48        0.1811
    952  C4'       23.3980   19.2680   15.6730 C.3    48  DA48        0.1746
    953  O4'       22.1300   19.5560   15.1260 O.3    48  DA48       -0.3327
    954  C3'       24.2030   20.4020   15.1130 C.3    48  DA48        0.1558
    955  O3'       25.6230   20.1930   15.1890 O.3    48  DA48       -0.3138
    956  C2'       23.6950   20.2910   13.7080 C.3    48  DA48        0.0865
    957  C1'       22.2570   20.2920   13.9320 C.3    48  DA48        0.2094
    958  N9        21.6820   21.5920   13.9980 N.ar   48  DA48       -0.2714
    959  C8        21.0510   22.0550   15.1230 C.ar   48  DA48        0.1815
    960  N7        20.4410   23.2050   14.9520 N.ar   48  DA48       -0.2193
    961  C5        20.6900   23.5180   13.6250 C.ar   48  DA48        0.1518
    962  C6        20.3150   24.6120   12.8260 C.ar   48  DA48        0.1919
    963  N6        19.5780   25.6330   13.2680 N.pl3  48  DA48       -0.1054
    964  N1        20.7280   24.6190   11.5400 N.ar   48  DA48       -0.2040
    965  C2        21.4650   23.5940   11.0970 C.ar   48  DA48        0.2016
    966  N3        21.8800   22.5120   11.7520 N.ar   48  DA48       -0.2048
    967  C4        21.4540   22.5350   13.0250 C.ar   48  DA48        0.1691
    968  P         26.3280   21.2170   15.9160 P.3    49  DT49        0.2141
    969  OP1       27.6470   20.6870   16.3230 O.2    49  DT49       -0.5172
    970  OP2       25.5080   22.0200   16.8490 O.3    49  DT49       -0.4373
    971  O5'       26.5670   22.0570   14.5810 O.3    49  DT49       -0.3114
    972  C5'       27.4310   21.4940   13.6180 C.3    49  DT49        0.1811
    973  C4'       27.4090   22.3210   12.3560 C.3    49  DT49        0.1746
    974  O4'       26.0370   22.5490   11.9790 O.3    49  DT49       -0.3327
    975  C3'       27.9560   23.7270   12.4990 C.3    49  DT49        0.1558
    976  O3'       29.3630   23.7120   12.4600 O.3    49  DT49       -0.3138
    977  C2'       27.3760   24.3460   11.2410 C.3    49  DT49        0.0866
    978  C1'       25.9700   23.7620   11.2620 C.3    49  DT49        0.2106
    979  N1        25.0600   24.6760   12.0040 N.ar   49  DT49       -0.2559
    980  C2        24.5060   25.7670   11.3610 C.ar   49  DT49        0.3545
    981  O2        24.7650   26.0590   10.2070 O.2    49  DT49       -0.2443
    982  N3        23.6340   26.5090   12.1200 N.ar   49  DT49       -0.1533
    983  C4        23.2680   26.2750   13.4300 C.ar   49  DT49        0.2804
    984  O4        22.4710   27.0310   13.9790 O.2    49  DT49       -0.2654
    985  C5        23.8860   25.1250   14.0280 C.ar   49  DT49        0.0534
    986  C6        24.7380   24.3860   13.3120 C.ar   49  DT49        0.0824
    987  C7        23.5520   24.7870   15.4510 C.3    49  DT49        0.0377
    988  P         30.0460   24.8800   12.9450 P.3    50  DA50        0.2141
    989  OP1       31.4500   24.3780   12.8510 O.2    50  DA50       -0.5172
    990  OP2       29.6180   25.7060   14.1040 O.3    50  DA50       -0.4373
    991  O5'       29.7080   25.7160   11.6430 O.3    50  DA50       -0.3114
    992  C5'       30.7220   26.3390   10.9080 C.3    50  DA50        0.1811
    993  C4'       30.2020   27.6120   10.3280 C.3    50  DA50        0.1746
    994  O4'       28.7590   27.5530   10.2980 O.3    50  DA50       -0.3327
    995  C3'       30.4060   28.8420   11.1610 C.3    50  DA50        0.1558
    996  O3'       31.7210   29.2530   11.0800 O.3    50  DA50       -0.3138
    997  C2'       29.3960   29.7960   10.5740 C.3    50  DA50        0.0865
    998  C1'       28.2190   28.8590   10.4190 C.3    50  DA50        0.2094
    999  N9        27.3460   28.9740   11.4740 N.ar   50  DA50       -0.2714
   1000  C8        27.2680   28.1080   12.5330 C.ar   50  DA50        0.1815
   1001  N7        26.4080   28.4750   13.4540 N.ar   50  DA50       -0.2193
   1002  C5        25.8860   29.6630   12.9670 C.ar   50  DA50        0.1518
   1003  C6        24.9240   30.5530   13.4760 C.ar   50  DA50        0.1919
   1004  N6        24.2920   30.3720   14.6380 N.pl3  50  DA50       -0.1054
   1005  N1        24.6320   31.6470   12.7410 N.ar   50  DA50       -0.2040
   1006  C2        25.2660   31.8260   11.5770 C.ar   50  DA50        0.2016
   1007  N3        26.1860   31.0620   10.9940 N.ar   50  DA50       -0.2048
   1008  C4        26.4550   29.9840   11.7490 C.ar   50  DA50        0.1691
   1009  P         32.4230   29.5760   12.3730 P.3    51  DA51        0.2141
   1010  OP1       33.8930   29.6400   12.2310 O.2    51  DA51       -0.5172
   1011  OP2       31.8300   29.0310   13.6180 O.3    51  DA51       -0.4373
   1012  O5'       31.8090   31.0320   12.1500 O.3    51  DA51       -0.3114
   1013  C5'       32.6390   32.1840   12.1790 C.3    51  DA51        0.1811
   1014  C4'       31.8080   33.4390   12.1130 C.3    51  DA51        0.1746
   1015  O4'       30.4400   33.1220   11.7520 O.3    51  DA51       -0.3327
   1016  C3'       31.6770   34.1890   13.4220 C.3    51  DA51        0.1558
   1017  O3'       32.8040   35.0100   13.6230 O.3    51  DA51       -0.3138
   1018  C2'       30.3980   34.9850   13.2350 C.3    51  DA51        0.0865
   1019  C1'       29.5500   34.0080   12.4220 C.3    51  DA51        0.2094
   1020  N9        28.7560   33.2430   13.2240 N.ar   51  DA51       -0.2714
   1021  C8        29.1210   32.0930   13.8750 C.ar   51  DA51        0.1815
   1022  N7        28.2610   31.7060   14.7870 N.ar   51  DA51       -0.2190
   1023  C5        27.2640   32.6670   14.7320 C.ar   51  DA51        0.1560
   1024  C6        26.0650   32.8280   15.4500 C.ar   51  DA51        0.2233
   1025  N6        25.6540   31.9860   16.4010 N.2    51  DA51       -0.0526
   1026  N1        25.2960   33.8960   15.1520 N.ar   51  DA51       -0.2004
   1027  C2        25.7080   34.7390   14.1970 C.ar   51  DA51        0.2018
   1028  N3        26.8120   34.6930   13.4550 N.ar   51  DA51       -0.2048
   1029  C4        27.5550   33.6210   13.7760 C.ar   51  DA51        0.1694
   1030  P         33.7240   34.7690   14.8860 P.3    52  DG52        0.2141
   1031  OP1       35.0960   35.3460   14.8230 O.2    52  DG52       -0.5172
   1032  OP2       33.4310   33.3550   15.2680 O.3    52  DG52       -0.4373
   1033  O5'       32.7780   35.7410   15.6930 O.3    52  DG52       -0.3114
   1034  C5'       32.8400   37.0660   15.3500 C.3    52  DG52        0.1811
   1035  C4'       31.5520   37.7170   15.7680 C.3    52  DG52        0.1746
   1036  O4'       30.5260   36.8450   15.2480 O.3    52  DG52       -0.3327
   1037  C3'       31.1570   37.6950   17.2280 C.3    52  DG52        0.1558
   1038  O3'       31.8980   38.5840   18.0430 O.3    52  DG52       -0.3138
   1039  C2'       29.6530   38.0000   17.1100 C.3    52  DG52        0.0865
   1040  C1'       29.3180   37.1100   15.9410 C.3    52  DG52        0.2093
   1041  N9        28.8440   35.8610   16.3800 N.ar   52  DG52       -0.2728
   1042  C8        29.5040   34.6850   16.1200 C.ar   52  DG52        0.1815
   1043  N7        28.8450   33.6270   16.5080 N.ar   52  DG52       -0.2164
   1044  C5        27.6800   34.1310   17.0550 C.ar   52  DG52        0.1842
   1045  C6        26.5730   33.4660   17.6440 C.2    52  DG52        0.3377
   1046  O6        26.4050   32.2500   17.8000 O.2    52  DG52       -0.3170
   1047  N1        25.5980   34.3600   18.0750 N.2    52  DG52       -0.2935
   1048  C2        25.6780   35.7270   17.9540 C.1    52  DG52        0.1932
   1049  N2        24.6370   36.4250   18.4290 N.2    52  DG52       -0.0559
   1050  N3        26.6990   36.3590   17.4110 N.pl3  52  DG52       -0.1149
   1051  C4        27.6590   35.5110   16.9850 C.ar   52  DG52        0.1711
   1052  P         32.5630   37.8500   19.4030 P.3    53  DA53        0.2141
   1053  OP1       33.3960   38.6500   20.3410 O.3    53  DA53       -0.4373
   1054  OP2       32.7860   36.3840   19.2940 O.2    53  DA53       -0.5172
   1055  O5'       31.0400   38.1050   19.7860 O.3    53  DA53       -0.3114
   1056  C5'       30.6410   39.3270   20.3900 C.3    53  DA53        0.1811
   1057  C4'       29.6710   39.0540   21.5130 C.3    53  DA53        0.1746
   1058  O4'       28.4370   38.5140   20.9620 O.3    53  DA53       -0.3327
   1059  C3'       30.1100   37.9940   22.5120 C.3    53  DA53        0.1558
   1060  O3'       30.9950   38.5210   23.4940 O.3    53  DA53       -0.3138
   1061  C2'       28.7770   37.5850   23.1150 C.3    53  DA53        0.0865
   1062  C1'       27.8930   37.5660   21.8640 C.3    53  DA53        0.2094
   1063  N9        27.8550   36.2800   21.2360 N.ar   53  DA53       -0.2714
   1064  C8        28.7220   35.7550   20.3140 C.ar   53  DA53        0.1815
   1065  N7        28.4980   34.4930   20.0350 N.ar   53  DA53       -0.2193
   1066  C5        27.4100   34.1660   20.8300 C.ar   53  DA53        0.1518
   1067  C6        26.6860   32.9730   20.9970 C.ar   53  DA53        0.1919
   1068  N6        26.9630   31.8420   20.3440 N.pl3  53  DA53       -0.1054
   1069  N1        25.6550   32.9830   21.8690 N.ar   53  DA53       -0.2040
   1070  C2        25.3780   34.1170   22.5230 C.ar   53  DA53        0.2016
   1071  N3        25.9850   35.3000   22.4490 N.ar   53  DA53       -0.2048
   1072  C4        27.0040   35.2560   21.5750 C.ar   53  DA53        0.1691
   1073  P         31.9590   37.6650   23.9790 P.3    54  DG54        0.2141
   1074  OP1       32.9350   38.3330   24.8660 O.3    54  DG54       -0.4373
   1075  OP2       32.2980   37.4460   22.5470 O.2    54  DG54       -0.5172
   1076  O5'       31.5370   36.2720   24.6480 O.3    54  DG54       -0.3114
   1077  C5'       31.1240   36.2110   26.0330 C.3    54  DG54        0.1811
   1078  C4'       30.2200   35.0150   26.2860 C.3    54  DG54        0.1746
   1079  O4'       29.1990   34.9770   25.2550 O.3    54  DG54       -0.3327
   1080  C3'       30.8160   33.6100   26.2470 C.3    54  DG54        0.1558
   1081  O3'       31.4460   33.1890   27.4510 O.3    54  DG54       -0.3138
   1082  C2'       29.5890   32.7570   25.9720 C.3    54  DG54        0.0865
   1083  C1'       28.8450   33.6310   24.9720 C.3    54  DG54        0.2094
   1084  N9        29.3340   33.2390   23.6430 N.ar   54  DG54       -0.2713
   1085  C8        30.1210   34.0240   22.8360 C.ar   54  DG54        0.1816
   1086  N7        30.4000   33.4670   21.6890 N.ar   54  DG54       -0.2173
   1087  C5        29.7600   32.2430   21.7370 C.ar   54  DG54        0.1748
   1088  C6        29.6990   31.1950   20.7830 C.ar   54  DG54        0.3023
   1089  O6        30.2230   31.1470   19.6630 O.2    54  DG54       -0.2633
   1090  N1        28.9380   30.1220   21.2370 N.ar   54  DG54       -0.1709
   1091  C2        28.3110   30.0650   22.4590 C.ar   54  DG54        0.2606
   1092  N2        27.6210   28.9470   22.7180 N.pl3  54  DG54       -0.0859
   1093  N3        28.3590   31.0310   23.3560 N.ar   54  DG54       -0.1918
   1094  C4        29.0940   32.0830   22.9370 C.ar   54  DG54        0.1722
   1095  P         32.4160   31.8140   27.4560 P.3    55  DT55        0.2141
   1096  OP1       32.8790   31.7570   28.8610 O.3    55  DT55       -0.4373
   1097  OP2       33.4030   32.0530   26.3640 O.2    55  DT55       -0.5172
   1098  O5'       31.5980   30.4840   27.1470 O.3    55  DT55       -0.3114
   1099  C5'       30.4070   30.1890   27.8880 C.3    55  DT55        0.1811
   1100  C4'       30.0360   28.7370   27.7400 C.3    55  DT55        0.1746
   1101  O4'       29.3520   28.5150   26.4880 O.3    55  DT55       -0.3327
   1102  C3'       31.2040   27.7730   27.7920 C.3    55  DT55        0.1558
   1103  O3'       31.0850   26.8030   28.8750 O.3    55  DT55       -0.3138
   1104  C2'       31.4770   27.4450   26.3180 C.3    55  DT55        0.0866
   1105  C1'       30.1300   27.6980   25.6400 C.3    55  DT55        0.2106
   1106  N1        30.0300   28.3880   24.3090 N.ar   55  DT55       -0.2559
   1107  C2        29.6430   27.7010   23.1730 C.ar   55  DT55        0.3545
   1108  O2        28.6990   26.9320   23.1510 O.2    55  DT55       -0.2443
   1109  N3        30.4070   27.9480   22.0580 N.ar   55  DT55       -0.1533
   1110  C4        31.4930   28.7920   21.9660 C.ar   55  DT55        0.2804
   1111  O4        32.0790   28.9100   20.8930 O.2    55  DT55       -0.2654
   1112  C5        31.8320   29.4670   23.1870 C.ar   55  DT55        0.0534
   1113  C6        31.1070   29.2460   24.2870 C.ar   55  DT55        0.0824
   1114  C7        33.0000   30.4080   23.1900 C.3    55  DT55        0.0377
   1115  P         30.3130   24.9880   28.6010 P.3    56  DG56        0.2141
   1116  OP1       30.5190   25.3710   30.0230 O.3    56  DG56       -0.4373
   1117  OP2       31.2450   24.0340   27.9490 O.2    56  DG56       -0.5172
   1118  O5'       28.8420   24.4020   28.4450 O.3    56  DG56       -0.3114
   1119  C5'       28.3320   23.3910   29.3140 C.3    56  DG56        0.1811
   1120  C4'       26.8790   23.6670   29.6090 C.3    56  DG56        0.1746
   1121  O4'       26.7750   24.8170   30.4870 O.3    56  DG56       -0.3327
   1122  C3'       26.0450   24.0580   28.4020 C.3    56  DG56        0.1558
   1123  O3'       25.5910   22.9370   27.6730 O.3    56  DG56       -0.3138
   1124  C2'       24.8920   24.8150   29.0340 C.3    56  DG56        0.0865
   1125  C1'       25.6090   25.5550   30.1650 C.3    56  DG56        0.2094
   1126  N9        26.1830   26.8140   30.0730 N.ar   56  DG56       -0.2713
   1127  C8        27.4790   27.1770   29.7980 C.ar   56  DG56        0.1816
   1128  N7        27.6210   28.4560   29.5800 N.ar   56  DG56       -0.2173
   1129  C5        26.3460   28.9720   29.7220 C.ar   56  DG56        0.1748
   1130  C6        25.8690   30.3030   29.6010 C.ar   56  DG56        0.3023
   1131  O6        26.5130   31.3250   29.3350 O.2    56  DG56       -0.2633
   1132  N1        24.4980   30.3870   29.8230 N.ar   56  DG56       -0.1709
   1133  C2        23.6850   29.3200   30.1240 C.ar   56  DG56        0.2606
   1134  N2        22.3870   29.5990   30.3050 N.pl3  56  DG56       -0.0859
   1135  N3        24.1130   28.0790   30.2390 N.ar   56  DG56       -0.1918
   1136  C4        25.4420   27.9730   30.0270 C.ar   56  DG56        0.1722
   1137  P         25.0750   23.0100   26.0820 P.3    57  DG57        0.2141
   1138  OP1       24.4400   21.7390   26.5250 O.3    57  DG57       -0.4373
   1139  OP2       25.3850   23.1960   24.6370 O.2    57  DG57       -0.5172
   1140  O5'       24.1510   24.2200   26.5700 O.3    57  DG57       -0.3114
   1141  C5'       23.1240   24.0000   27.5370 C.3    57  DG57        0.1811
   1142  C4'       22.5250   25.3090   28.0110 C.3    57  DG57        0.1746
   1143  O4'       23.5750   26.1510   28.5680 O.3    57  DG57       -0.3327
   1144  C3'       21.8700   26.1860   26.9500 C.3    57  DG57        0.1558
   1145  O3'       20.5160   25.7960   26.7260 O.3    57  DG57       -0.3138
   1146  C2'       21.9330   27.5670   27.5880 C.3    57  DG57        0.0865
   1147  C1'       23.2860   27.5160   28.3050 C.3    57  DG57        0.2094
   1148  N9        24.3740   28.0790   27.5500 N.ar   57  DG57       -0.2713
   1149  C8        25.3740   27.4610   26.8400 C.ar   57  DG57        0.1816
   1150  N7        26.1500   28.2990   26.2070 N.ar   57  DG57       -0.2173
   1151  C5        25.6370   29.5440   26.5180 C.ar   57  DG57        0.1748
   1152  C6        26.0560   30.8410   26.1230 C.ar   57  DG57        0.3023
   1153  O6        27.0060   31.1490   25.3920 O.2    57  DG57       -0.2633
   1154  N1        25.2500   31.8370   26.6670 N.ar   57  DG57       -0.1709
   1155  C2        24.1720   31.6120   27.4890 C.ar   57  DG57        0.2606
   1156  N2        23.5160   32.7000   27.9150 N.pl3  57  DG57       -0.0859
   1157  N3        23.7700   30.4130   27.8640 N.ar   57  DG57       -0.1918
   1158  C4        24.5380   29.4300   27.3470 C.ar   57  DG57        0.1722
   1159  P         19.6750   26.3840   25.3790 P.3    58  DT58        0.2141
   1160  OP1       18.2760   25.9870   25.6550 O.3    58  DT58       -0.4373
   1161  OP2       20.2700   26.1770   24.0400 O.2    58  DT58       -0.5172
   1162  O5'       19.8210   27.9600   25.6270 O.3    58  DT58       -0.3114
   1163  C5'       18.9820   28.6660   26.5300 C.3    58  DT58        0.1811
   1164  C4'       19.3510   30.1320   26.6000 C.3    58  DT58        0.1746
   1165  O4'       20.7910   30.2670   26.7540 O.3    58  DT58       -0.3327
   1166  C3'       19.0390   30.9800   25.3700 C.3    58  DT58        0.1558
   1167  O3'       17.6810   31.3930   25.2960 O.3    58  DT58       -0.3138
   1168  C2'       20.0260   32.1330   25.5200 C.3    58  DT58        0.0866
   1169  C1'       21.2570   31.4030   26.0520 C.3    58  DT58        0.2106
   1170  N1        22.1390   30.9860   24.9580 N.ar   58  DT58       -0.2559
   1171  C2        23.0490   31.9070   24.4750 C.ar   58  DT58        0.3545
   1172  O2        23.1250   33.0490   24.8930 O.2    58  DT58       -0.2443
   1173  N3        23.8720   31.4420   23.4770 N.ar   58  DT58       -0.1533
   1174  C4        23.8770   30.1780   22.9270 C.ar   58  DT58        0.2804
   1175  O4        24.6790   29.9080   22.0360 O.2    58  DT58       -0.2654
   1176  C5        22.9020   29.2800   23.4810 C.ar   58  DT58        0.0534
   1177  C6        22.0900   29.7060   24.4520 C.ar   58  DT58        0.0824
   1178  C7        22.8270   27.8800   22.9480 C.3    58  DT58        0.0377
   1179  P         16.9380   31.6050   23.9620 P.3    59  DG59        0.2141
   1180  OP1       15.5610   32.0120   24.3410 O.3    59  DG59       -0.4373
   1181  OP2       17.1330   30.5100   22.9760 O.2    59  DG59       -0.5172
   1182  O5'       17.7280   32.8970   23.4630 O.3    59  DG59       -0.3114
   1183  C5'       17.7360   34.0870   24.2430 C.3    59  DG59        0.1811
   1184  C4'       18.4890   35.1860   23.5290 C.3    59  DG59        0.1746
   1185  O4'       19.9120   34.9050   23.5380 O.3    59  DG59       -0.3327
   1186  C3'       18.1450   35.3560   22.0620 C.3    59  DG59        0.1558
   1187  O3'       16.9570   36.1320   21.8830 O.3    59  DG59       -0.3138
   1188  C2'       19.3930   36.0420   21.5130 C.3    59  DG59        0.0865
   1189  C1'       20.4980   35.3650   22.3280 C.3    59  DG59        0.2093
   1190  N9        21.1170   34.1950   21.6360 N.ar   59  DG59       -0.2728
   1191  C8        20.7340   32.8760   21.6680 C.ar   59  DG59        0.1814
   1192  N7        21.4170   32.1210   20.8510 N.ar   59  DG59       -0.2177
   1193  C5        22.3050   32.9890   20.2440 C.ar   59  DG59        0.1711
   1194  C6        23.3020   32.7520   19.2630 C.2    59  DG59        0.2985
   1195  O6        23.6040   31.6820   18.7200 O.2    59  DG59       -0.2655
   1196  N1        23.9820   33.9170   18.9200 N.am   59  DG59       -0.1054
   1197  C2        23.7330   35.1580   19.4570 C.1    59  DG59        0.1295
   1198  N2        24.4940   36.1620   19.0020 N.2    59  DG59       -0.0687
   1199  N3        22.8100   35.3930   20.3690 N.pl3  59  DG59       -0.1270
   1200  C4        22.1360   34.2760   20.7160 C.ar   59  DG59        0.1688
   1201  P         16.1320   36.0800   20.4670 P.3    60  DT60        0.2141
   1202  OP1       14.9050   36.9010   20.6340 O.3    60  DT60       -0.4373
   1203  OP2       16.0310   34.5940   20.4980 O.2    60  DT60       -0.5172
   1204  O5'       16.8370   36.5130   19.1060 O.3    60  DT60       -0.3114
   1205  C5'       17.1200   37.8860   18.8350 C.3    60  DT60        0.1811
   1206  C4'       18.0960   38.0160   17.6850 C.3    60  DT60        0.1746
   1207  O4'       19.4240   37.5760   18.0890 O.3    60  DT60       -0.3327
   1208  C3'       17.8000   37.2190   16.4220 C.3    60  DT60        0.1558
   1209  O3'       16.8410   37.8760   15.5910 O.3    60  DT60       -0.3138
   1210  C2'       19.1720   37.1250   15.7510 C.3    60  DT60        0.0866
   1211  C1'       20.1250   37.0940   16.9530 C.3    60  DT60        0.2106
   1212  N1        20.7460   35.8610   17.1850 N.ar   60  DT60       -0.2559
   1213  C2        21.8270   35.4780   16.4140 C.ar   60  DT60        0.3545
   1214  O2        22.3760   36.2240   15.6220 O.2    60  DT60       -0.2443
   1215  N3        22.2470   34.1840   16.6040 N.ar   60  DT60       -0.1533
   1216  C4        21.7050   33.2550   17.4670 C.ar   60  DT60        0.2804
   1217  O4        22.1920   32.1280   17.5280 O.2    60  DT60       -0.2654
   1218  C5        20.5850   33.7280   18.2310 C.ar   60  DT60        0.0534
   1219  C6        20.1570   34.9820   18.0670 C.ar   60  DT60        0.0824
   1220  C7        19.9250   32.7910   19.1990 C.3    60  DT60        0.0377
   1221  P         16.0770   37.0550   14.2000 P.3    61  DT61        0.2141
   1222  OP1       14.6990   37.8480   13.5340 O.2    61  DT61       -0.5172
   1223  OP2       15.7980   35.7220   14.5780 O.3    61  DT61       -0.4373
   1224  O5'       17.9880   37.2180   13.3940 O.3    61  DT61       -0.3114
   1225  C5'       17.9220   38.3930   12.5380 C.3    61  DT61        0.1811
   1226  C4'       18.8330   38.0490   11.3590 C.3    61  DT61        0.1746
   1227  O4'       20.1190   37.7530   11.9260 O.3    61  DT61       -0.3327
   1228  C3'       18.4170   36.6980   10.7190 C.3    61  DT61        0.1558
   1229  O3'       17.3170   36.9630    9.8330 O.3    61  DT61       -0.3138
   1230  C2'       19.7760   36.3300   10.0880 C.3    61  DT61        0.0866
   1231  C1'       20.7260   36.6440   11.2460 C.3    61  DT61        0.2106
   1232  N1        21.0330   35.6270   12.1570 N.ar   61  DT61       -0.2559
   1233  C2        22.2060   34.9090   12.0190 C.ar   61  DT61        0.3545
   1234  O2        23.1070   35.2460   11.2720 O.2    61  DT61       -0.2443
   1235  N3        22.2870   33.7750   12.7910 N.ar   61  DT61       -0.1533
   1236  C4        21.3340   33.2980   13.6670 C.ar   61  DT61        0.2804
   1237  O4        21.5520   32.2630   14.2930 O.2    61  DT61       -0.2654
   1238  C5        20.1450   34.0980   13.7530 C.ar   61  DT61        0.0534
   1239  C6        20.0400   35.2060   13.0140 C.ar   61  DT61        0.0824
   1240  C7        19.0480   33.6620   14.6790 C.3    61  DT61        0.0377
   1241  P         16.5190   35.7770    9.0720 P.3    62  DG62        0.2141
   1242  OP1       15.5210   35.9080    7.9750 O.2    62  DG62       -0.5172
   1243  OP2       16.1810   34.9390   10.2560 O.3    62  DG62       -0.4373
   1244  O5'       17.8990   35.2980    8.4280 O.3    62  DG62       -0.3114
   1245  C5'       18.6200   36.1570    7.5350 C.3    62  DG62        0.1811
   1246  C4'       19.6740   35.3840    6.7690 C.3    62  DG62        0.1746
   1247  O4'       20.8440   35.1290    7.5920 O.3    62  DG62       -0.3327
   1248  C3'       19.2230   34.0190    6.2820 C.3    62  DG62        0.1558
   1249  O3'       18.5160   34.1110    5.0560 O.3    62  DG62       -0.3138
   1250  C2'       20.5320   33.2560    6.1370 C.3    62  DG62        0.0865
   1251  C1'       21.3800   33.8520    7.2690 C.3    62  DG62        0.2094
   1252  N9        21.4110   32.9560    8.4610 N.ar   62  DG62       -0.2713
   1253  C8        20.8420   33.2080    9.6850 C.ar   62  DG62        0.1816
   1254  N7        21.0560   32.2620   10.5580 N.ar   62  DG62       -0.2173
   1255  C5        21.8130   31.3290    9.8730 C.ar   62  DG62        0.1748
   1256  C6        22.3490   30.0850   10.2950 C.ar   62  DG62        0.3023
   1257  O6        22.2530   29.5470   11.4060 O.2    62  DG62       -0.2633
   1258  N1        23.0570   29.4510    9.2780 N.ar   62  DG62       -0.1709
   1259  C2        23.2280   29.9530    8.0110 C.ar   62  DG62        0.2606
   1260  N2        23.9440   29.1970    7.1670 N.pl3  62  DG62       -0.0859
   1261  N3        22.7360   31.1070    7.6040 N.ar   62  DG62       -0.1918
   1262  C4        22.0440   31.7400    8.5740 C.ar   62  DG62        0.1722
   1263  P         17.3870   33.1520    4.8310 P.3    63  DG63        0.2141
   1264  OP1       16.7410   33.2850    3.5040 O.2    63  DG63       -0.5172
   1265  OP2       16.5430   33.0700    6.0470 O.3    63  DG63       -0.4373
   1266  O5'       18.3520   31.8740    4.8060 O.3    63  DG63       -0.3114
   1267  C5'       19.2120   31.5800    3.6890 C.3    63  DG63        0.1811
   1268  C4'       19.9560   30.2560    3.8990 C.3    63  DG63        0.1746
   1269  O4'       20.7860   30.3250    5.0890 O.3    63  DG63       -0.3327
   1270  C3'       19.0940   29.0220    4.1220 C.3    63  DG63        0.1558
   1271  O3'       18.6900   28.4640    2.8710 O.3    63  DG63       -0.3138
   1272  C2'       20.0210   28.0720    4.8900 C.3    63  DG63        0.0865
   1273  C1'       20.9210   29.0360    5.6650 C.3    63  DG63        0.2094
   1274  N9        20.7340   29.2030    6.9910 N.ar   63  DG63       -0.2713
   1275  C8        19.7830   29.9290    7.6650 C.ar   63  DG63        0.1816
   1276  N7        19.5420   29.4740    8.8650 N.ar   63  DG63       -0.2173
   1277  C5        20.3840   28.3850    8.9940 C.ar   63  DG63        0.1748
   1278  C6        20.5720   27.4870   10.0750 C.ar   63  DG63        0.3023
   1279  O6        20.0050   27.4830   11.1750 O.2    63  DG63       -0.2633
   1280  N1        21.5280   26.5170    9.7870 N.ar   63  DG63       -0.1709
   1281  C2        22.2190   26.4250    8.6020 C.ar   63  DG63        0.2606
   1282  N2        23.1030   25.4220    8.5100 N.pl3  63  DG63       -0.0859
   1283  N3        22.0550   27.2520    7.5880 N.ar   63  DG63       -0.1918
   1284  C4        21.1300   28.2010    7.8460 C.ar   63  DG63        0.1722
   1285  P         17.2740   27.6520    2.7190 P.3    64  DC64        0.2141
   1286  OP1       17.2360   27.2860    1.2760 O.2    64  DC64       -0.5172
   1287  OP2       16.0000   27.9020    3.4470 O.3    64  DC64       -0.4373
   1288  O5'       18.1000   26.4950    3.4390 O.3    64  DC64       -0.3114
   1289  C5'       19.3240   26.0370    2.8590 C.3    64  DC64        0.1811
   1290  C4'       19.7760   24.7540    3.5040 C.3    64  DC64        0.1746
   1291  O4'       20.2060   24.9980    4.8650 O.3    64  DC64       -0.3327
   1292  C3'       18.7370   23.6640    3.6450 C.3    64  DC64        0.1558
   1293  O3'       18.5530   22.9590    2.4370 O.3    64  DC64       -0.3138
   1294  C2'       19.3540   22.7820    4.7190 C.3    64  DC64        0.0866
   1295  C1'       19.9980   23.8270    5.6330 C.3    64  DC64        0.2106
   1296  N1        19.1100   24.2720    6.7920 N.ar   64  DC64       -0.2556
   1297  C2        19.1340   23.4850    7.9490 C.ar   64  DC64        0.3531
   1298  O2        19.8850   22.4950    7.9840 O.2    64  DC64       -0.2443
   1299  N3        18.3400   23.8240    8.9930 N.ar   64  DC64       -0.1739
   1300  C4        17.5500   24.8950    8.9110 C.ar   64  DC64        0.1759
   1301  N4        16.7850   25.1890    9.9650 N.pl3  64  DC64       -0.1070
   1302  C5        17.5110   25.7050    7.7470 C.ar   64  DC64        0.0566
   1303  C6        18.2970   25.3670    6.7190 C.ar   64  DC64        0.0849
   1304  P         17.0840   22.1720    2.1140 P.3    65  DT65        0.2141
   1305  OP1       17.3290   21.6650    0.7450 O.2    65  DT65       -0.5172
   1306  OP2       15.7510   22.6900    2.5010 O.3    65  DT65       -0.4373
   1307  O5'       17.3610   21.0310    3.2010 O.3    65  DT65       -0.3114
   1308  C5'       18.5870   20.3190    3.2320 C.3    65  DT65        0.1811
   1309  C4'       18.6750   19.4520    4.4640 C.3    65  DT65        0.1746
   1310  O4'       18.9480   20.2660    5.6340 O.3    65  DT65       -0.3327
   1311  C3'       17.4050   18.7130    4.8470 C.3    65  DT65        0.1558
   1312  O3'       17.1450   17.5700    4.0530 O.3    65  DT65       -0.3138
   1313  C2'       17.6620   18.3930    6.3100 C.3    65  DT65        0.0866
   1314  C1'       18.3200   19.6940    6.7650 C.3    65  DT65        0.2106
   1315  N1        17.2590   20.5630    7.3990 N.ar   65  DT65       -0.2559
   1316  C2        16.8060   20.2840    8.6740 C.ar   65  DT65        0.3545
   1317  O2        17.1990   19.3320    9.3250 O.2    65  DT65       -0.2443
   1318  N3        15.8710   21.1640    9.1640 N.ar   65  DT65       -0.1533
   1319  C4        15.3550   22.2690    8.5200 C.ar   65  DT65        0.2804
   1320  O4        14.5200   22.9660    9.0910 O.2    65  DT65       -0.2654
   1321  C5        15.8740   22.4910    7.2000 C.ar   65  DT65        0.0534
   1322  C6        16.7840   21.6510    6.6990 C.ar   65  DT65        0.0824
   1323  C7        15.3740   23.6690    6.4170 C.3    65  DT65        0.0377
   1324  P         15.5810   17.2680    3.5300 P.3    66  DC66        0.2141
   1325  OP1       15.8220   16.0440    2.7230 O.2    66  DC66       -0.5172
   1326  OP2       14.3600   18.0830    3.2820 O.3    66  DC66       -0.4373
   1327  O5'       15.5800   16.8520    5.0650 O.3    66  DC66       -0.3114
   1328  C5'       16.6010   16.0150    5.5950 C.3    66  DC66        0.1811
   1329  C4'       16.1840   15.5020    6.9450 C.3    66  DC66        0.1746
   1330  O4'       16.2540   16.5720    7.9300 O.3    66  DC66       -0.3327
   1331  C3'       14.7360   15.0640    6.9920 C.3    66  DC66        0.1558
   1332  O3'       14.5560   13.7650    6.4500 O.3    66  DC66       -0.3138
   1333  C2'       14.4330   15.1640    8.4790 C.3    66  DC66        0.0866
   1334  C1'       15.1600   16.4650    8.8330 C.3    66  DC66        0.2106
   1335  N1        14.2600   17.7340    8.6040 N.ar   66  DC66       -0.2556
   1336  C2        13.3840   18.0510    9.6490 C.ar   66  DC66        0.3531
   1337  O2        13.3880   17.3400   10.6680 O.2    66  DC66       -0.2443
   1338  N3        12.5610   19.1190    9.5190 N.ar   66  DC66       -0.1739
   1339  C4        12.5900   19.8530    8.4060 C.ar   66  DC66        0.1759
   1340  N4        11.7600   20.8950    8.3230 N.pl3  66  DC66       -0.1070
   1341  C5        13.4700   19.5480    7.3360 C.ar   66  DC66        0.0566
   1342  C6        14.2820   18.4930    7.4680 C.ar   66  DC66        0.0849
   1343  P         13.3820   13.5160    6.0960 P.3    67  DC67        0.2141
   1344  OP1       13.7450   12.0960    5.8280 O.3    67  DC67       -0.4373
   1345  OP2       12.6890   14.3470    5.0670 O.2    67  DC67       -0.5172
   1346  O5'       12.5880   13.5850    7.5060 O.3    67  DC67       -0.3114
   1347  C5'       12.6250   12.4840    8.4530 C.3    67  DC67        0.1811
   1348  C4'       11.6790   12.6220    9.6450 C.3    67  DC67        0.1746
   1349  O4'       11.8490   13.8950   10.3050 O.3    67  DC67       -0.3327
   1350  C3'       10.1880   12.6320    9.3460 C.3    67  DC67        0.1558
   1351  O3'        9.6660   11.3290    9.1260 O.3    67  DC67       -0.3138
   1352  C2'        9.6330   13.2510   10.6190 C.3    67  DC67        0.0866
   1353  C1'       10.6020   14.3990   10.7550 C.3    67  DC67        0.2106
   1354  N1        10.3990   15.7020    9.9980 N.ar   67  DC67       -0.2556
   1355  C2         9.5580   16.6290   10.6250 C.ar   67  DC67        0.3531
   1356  O2         9.1950   16.4110   11.7930 O.2    67  DC67       -0.2443
   1357  N3         9.1650   17.7300    9.9410 N.ar   67  DC67       -0.1739
   1358  C4         9.5790   17.9210    8.6880 C.ar   67  DC67        0.1759
   1359  N4         9.1660   19.0210    8.0550 N.pl3  67  DC67       -0.1070
   1360  C5        10.4310   16.9940    8.0350 C.ar   67  DC67        0.0566
   1361  C6        10.8170   15.9080    8.7130 C.ar   67  DC67        0.0849
   1362  P          8.6980   11.3010    8.0630 P.3    68  DC68        0.2141
   1363  OP1        9.2770    9.9420    7.9070 O.3    68  DC68       -0.4373
   1364  OP2        8.5440   12.1840    6.8710 O.2    68  DC68       -0.5172
   1365  O5'        7.2910   11.1230    8.7790 O.3    68  DC68       -0.3114
   1366  C5'        7.2060   11.0270   10.1910 C.3    68  DC68        0.1811
   1367  C4'        6.2790   12.0930   10.7120 C.3    68  DC68        0.1746
   1368  O4'        6.8410   13.4170   10.5050 O.3    68  DC68       -0.3327
   1369  C3'        4.9730   12.2560    9.9580 C.3    68  DC68        0.1558
   1370  O3'        4.0690   11.1750   10.1130 O.3    68  DC68       -0.3138
   1371  C2'        4.4730   13.5930   10.4980 C.3    68  DC68        0.0866
   1372  C1'        5.7900   14.3650   10.6460 C.3    68  DC68        0.2106
   1373  N1         5.9690   15.3280    9.7600 N.ar   68  DC68       -0.2556
   1374  C2         5.2850   16.5490    9.7840 C.ar   68  DC68        0.3531
   1375  O2         4.5450   16.8000   10.7500 O.2    68  DC68       -0.2443
   1376  N3         5.4490   17.4170    8.7570 N.ar   68  DC68       -0.1739
   1377  C4         6.2540   17.1030    7.7410 C.ar   68  DC68        0.1759
   1378  N4         6.3840   17.9900    6.7510 N.pl3  68  DC68       -0.1070
   1379  C5         6.9560   15.8710    7.6980 C.ar   68  DC68        0.0566
   1380  C6         6.7910   15.0170    8.7140 C.ar   68  DC68        0.0849
   1381  P          2.9320   10.7810    8.8640 P.3    69  DG69        0.2141
   1382  OP1        2.3720    9.4580    9.2250 O.3    69  DG69       -0.4373
   1383  OP2        3.3920   11.0760    7.4850 O.2    69  DG69       -0.5172
   1384  O5'        1.8200   11.8900    9.1740 O.3    69  DG69       -0.3114
   1385  C5'        1.2740   11.9440   10.4850 C.3    69  DG69        0.1811
   1386  C4'        0.6020   13.2620   10.7700 C.3    69  DG69        0.1746
   1387  O4'        1.5840   14.3290   10.8280 O.3    69  DG69       -0.3327
   1388  C3'       -0.3930   13.7280    9.7230 C.3    69  DG69        0.1558
   1389  O3'       -1.6500   13.0890    9.8470 O.3    69  DG69       -0.3138
   1390  C2'       -0.4310   15.2340    9.9530 C.3    69  DG69        0.0865
   1391  C1'        1.0300   15.5150   10.2990 C.3    69  DG69        0.2094
   1392  N9         1.8040   15.8670    9.1700 N.ar   69  DG69       -0.2713
   1393  C8         2.6810   15.1060    8.4370 C.ar   69  DG69        0.1816
   1394  N7         3.0980   15.7010    7.3530 N.ar   69  DG69       -0.2173
   1395  C5         2.4630   16.9290    7.3690 C.ar   69  DG69        0.1748
   1396  C6         2.5200   18.0100    6.4530 C.ar   69  DG69        0.3023
   1397  O6         3.1720   18.0920    5.4050 O.2    69  DG69       -0.2633
   1398  N1         1.7140   19.0730    6.8510 N.ar   69  DG69       -0.1709
   1399  C2         0.9480   19.0920    7.9920 C.ar   69  DG69        0.2606
   1400  N2         0.2370   20.2070    8.2080 N.pl3  69  DG69       -0.0859
   1401  N3         0.8840   18.0950    8.8520 N.ar   69  DG69       -0.1918
   1402  C4         1.6580   17.0510    8.4860 C.ar   69  DG69        0.1722
   1403  P         -2.3530   12.3580    8.5620 P.3    70  DT70        0.2141
   1404  OP1       -3.5810   11.6670    9.0200 O.3    70  DT70       -0.4373
   1405  OP2       -1.8710   12.1070    7.1860 O.2    70  DT70       -0.5172
   1406  O5'       -2.5750   13.9360    8.6870 O.3    70  DT70       -0.3114
   1407  C5'       -3.7940   14.4260    9.2300 C.3    70  DT70        0.1811
   1408  C4'       -4.1310   15.8030    8.6960 C.3    70  DT70        0.1746
   1409  O4'       -2.9410   16.6280    8.6320 O.3    70  DT70       -0.3327
   1410  C3'       -4.6720   15.8280    7.2780 C.3    70  DT70        0.1558
   1411  O3'       -6.0530   15.4700    7.2580 O.3    70  DT70       -0.3138
   1412  C2'       -4.4190   17.2880    6.9090 C.3    70  DT70        0.0866
   1413  C1'       -3.0530   17.5340    7.5470 C.3    70  DT70        0.2106
   1414  N1        -1.9560   17.3250    6.6360 N.ar   70  DT70       -0.2559
   1415  C2        -1.6510   18.3140    5.7200 C.ar   70  DT70        0.3545
   1416  O2        -2.3040   19.3350    5.6020 O.2    70  DT70       -0.2443
   1417  N3        -0.5480   18.0620    4.9400 N.ar   70  DT70       -0.1533
   1418  C4         0.2620   16.9470    4.9840 C.ar   70  DT70        0.2804
   1419  O4         1.2200   16.8640    4.2190 O.2    70  DT70       -0.2654
   1420  C5        -0.1210   15.9660    5.9600 C.ar   70  DT70        0.0534
   1421  C6        -1.1890   16.1850    6.7310 C.ar   70  DT70        0.0824
   1422  C7         0.6980   14.7150    6.0850 C.3    70  DT70        0.0377
   1423  P         -6.8430   14.9650    5.7500 P.3    71  DA71        0.2141
   1424  OP1       -8.2910   14.7220    5.9580 O.3    71  DA71       -0.4373
   1425  OP2       -5.9140   13.8070    5.6080 O.2    71  DA71       -0.5172
   1426  O5'       -6.6380   15.8790    4.4550 O.3    71  DA71       -0.3114
   1427  C5'       -7.4540   17.0200    4.2070 C.3    71  DA71        0.1812
   1428  C4'       -6.8990   17.8160    3.0470 C.3    71  DA71        0.1775
   1429  O4'       -5.5610   18.2570    3.3890 O.3    71  DA71       -0.3326
   1430  C3'       -6.7390   17.0590    1.7330 C.3    71  DA71        0.1859
   1431  O3'       -7.9290   17.0730    0.9350 O.3    71  DA71       -0.2203
   1432  C2'       -5.6000   17.8130    1.0500 C.3    71  DA71        0.0894
   1433  C1'       -4.7300   18.2100    2.2440 C.3    71  DA71        0.2095
   1434  N9        -3.6140   17.2410    2.4650 N.ar   71  DA71       -0.2714
   1435  C8        -3.4950   16.3120    3.4660 C.ar   71  DA71        0.1815
   1436  N7        -2.3810   15.6210    3.4160 N.ar   71  DA71       -0.2193
   1437  C5        -1.7240   16.1290    2.3070 C.ar   71  DA71        0.1518
   1438  C6        -0.4880   15.8180    1.7150 C.ar   71  DA71        0.1919
   1439  N6         0.3400   14.8800    2.1810 N.pl3  71  DA71       -0.1054
   1440  N1        -0.1280   16.5130    0.6140 N.ar   71  DA71       -0.2040
   1441  C2        -0.9570   17.4540    0.1490 C.ar   71  DA71        0.2016
   1442  N3        -2.1430   17.8360    0.6180 N.ar   71  DA71       -0.2048
   1443  C4        -2.4720   17.1270    1.7100 C.ar   71  DA71        0.1691
   1444  P         -9.3240   15.7640   -1.0030 P.3    72  DT72        0.5411
   1445  OP1       -8.7080   14.4880   -0.5490 O.2    72  DT72       -0.2272
   1446  OP2       -9.7720   16.7650    0.0040 O.2    72  DT72       -0.2272
   1447  O5'       -8.3330   16.5020   -2.0110 O.3    72  DT72       -0.2722
   1448  C5'       -7.0020   16.7940   -1.6140 C.3    72  DT72        0.1862
   1449  C4'       -6.1340   17.0850   -2.8150 C.3    72  DT72        0.1876
   1450  O4'       -6.3570   18.4530   -3.2610 O.3    72  DT72       -0.3497
   1451  C3'       -4.6550   17.0380   -2.4720 C.3    72  DT72        0.2263
   1452  O3'       -4.1560   15.7100   -2.5360 O.3    72  DT72       -0.3922
   1453  C2'       -4.0360   17.9970   -3.4790 C.3    72  DT72        0.0810
   1454  C1'       -5.1150   19.0780   -3.5560 C.3    72  DT72        0.1462
   1455  N1        -3.1320   16.1160   -1.7760 N.ar   72  DT72       -0.1243
   1456  C2        -1.8420   15.7560   -2.1190 C.ar   72  DT72        0.3847
   1457  O2        -1.2170   16.2970   -3.0130 O.2    72  DT72       -0.2412
   1458  N3        -1.3070   14.7330   -1.3740 N.ar   72  DT72       -0.1510
   1459  C4        -1.9180   14.0490   -0.3430 C.ar   72  DT72        0.2806
   1460  O4        -1.3080   13.1520    0.2330 O.2    72  DT72       -0.2654
   1461  C5        -3.2560   14.4800   -0.0480 C.ar   72  DT72        0.0567
   1462  C6        -3.8000   15.4730   -0.7570 C.ar   72  DT72        0.1222
   1463  C7        -4.0060   13.7970    1.0570 C.3    72  DT72        0.0378
@<TRIPOS>BOND
     1   338   337    2
     2   319   318    2
     3   339   337    1
     4   356   354    1
     5   337   326    1
     6   337   340    1
     7   326   325    1
     8   318   321    1
     9   318   320    1
    10   318   306    1
    11   341   340    1
    12   341   342    1
    13   322   321    1
    14   322   323    1
    15   354   355   ar
    16   354   352   ar
    17   343   342    1
    18   343   347    1
    19   355   348   ar
    20   306   305    1
    21   325   323    1
    22   325   327    1
    23   342   344    1
    24   323   324    1
    25   353   352    2
    26   352   351   ar
    27   299   298    2
    28   347   348    1
    29   347   346    1
    30   348   349   ar
    31   305   303    1
    32   305   307    1
    33   302   303    1
    34   302   301    1
    35   327   328    1
    36   351   349   ar
    37   303   304    1
    38   324   328    1
    39   344   346    1
    40   344   345    1
    41   349   350    2
    42   298   301    1
    43   298   300    1
    44   298   287    1
    45   307   308    1
    46   328   329    1
    47   287   286    1
    48   345   357    1
    49   336   329   ar
    50   336   335   ar
    51   304   308    1
    52   329   330   ar
    53   308   309    1
    54   335   333   ar
    55   363   367    1
    56   363   362    1
    57   286   288    1
    58   286   284    1
    59   357   358    2
    60   357   359    1
    61   357   360    1
    62   367   368    1
    63   367   366    1
    64   373   372    1
    65   374   372   ar
    66   374   375   ar
    67   372   371   ar
    68   375   376   ar
    69   376   377   ar
    70   371   377   ar
    71   371   370   ar
    72   377   368   ar
    73   370   369   ar
    74   368   369   ar
    75   288   289    1
    76   330   331    2
    77   330   332   ar
    78   309   316   ar
    79   309   310   ar
    80   316   315   ar
    81   284   283    1
    82   284   285    1
    83   333   332   ar
    84   333   334    1
    85   362   361    1
    86   362   364    1
    87   283   282    1
    88   361   360    1
    89   282   279    1
    90   311   310    2
    91   310   312   ar
    92   366   364    1
    93   315   317    1
    94   315   313   ar
    95   289   285    1
    96   289   290    1
    97   364   365    1
    98   292   291    2
    99   391   390    2
   100   280   279    2
   101   312   313   ar
   102   313   314    2
   103   290   291   ar
   104   290   297   ar
   105   279   281    1
   106   279   265    1
   107   390   392   ar
   108   390   389   ar
   109   291   293   ar
   110   388   384    1
   111   388   389    1
   112   388   387    1
   113   392   393   ar
   114   384   383    1
   115   365   378    1
   116   389   396   ar
   117   297   296   ar
   118   393   394    2
   119   393   395   ar
   120   396   395   ar
   121   293   294   ar
   122   265   264    1
   123   424   428    1
   124   424   423    1
   125   395   397    1
   126   387   385    1
   127   428   427    1
   128   428   429    1
   129   296   294   ar
   130   383   382    1
   131   383   385    1
   132   423   422    1
   133   423   425    1
   134   431   430    2
   135   294   295    1
   136   411   410    2
   137   427   425    1
   138   408   404    1
   139   408   407    1
   140   408   409    1
   141   380   378    2
   142   404   403    1
   143   378   381    1
   144   378   379    1
   145   381   382    1
   146   276   275    1
   147   422   421    1
   148   266   264    1
   149   266   267    1
   150   407   405    1
   151   264   262    1
   152   429   430   ar
   153   429   436   ar
   154   403   405    1
   155   403   402    1
   156   443   442    1
   157   443   447    1
   158   430   432   ar
   159   441   442    1
   160   441   440    1
   161   426   425    1
   162   426   437    1
   163   410   409   ar
   164   410   412   ar
   165   442   444    1
   166   409   416   ar
   167   275   277   ar
   168   275   274   ar
   169   277   278   ar
   170   406   405    1
   171   406   418    1
   172   447   448    1
   173   447   446    1
   174   402   401    1
   175   436   435   ar
   176   412   413   ar
   177   386   398    1
   178   386   399    1
   179   432   433   ar
   180   421   418    1
   181   262   261    1
   182   262   263    1
   183   416   415   ar
   184   440   437    1
   185   274   272   ar
   186   267   268    1
   187   267   263    1
   188   278   268   ar
   189   278   271   ar
   190   448   455   ar
   191   448   449   ar
   192   398   401    1
   193   398   400    2
   194   437   438    2
   195   437   439    1
   196   419   418    2
   197   450   449    2
   198   413   415   ar
   199   413   414    2
   200   435   433   ar
   201   446   444    1
   202   433   434    1
   203   268   269   ar
   204   444   445    1
   205   415   417    1
   206   455   454   ar
   207   261   260    1
   208   449   451   ar
   209   418   420    1
   210   445   456    1
   211   272   271   ar
   212   272   273    2
   213   271   270   ar
   214   260   257    1
   215   454   452   ar
   216   451   452   ar
   217   269   270   ar
   218   452   453    1
   219   462   461    1
   220   462   466    1
   221   460   461    1
   222   460   459    1
   223   456   457    2
   224   456   459    1
   225   456   458    1
   226   258   257    2
   227   461   463    1
   228   257   259    1
   229   257   245    1
   230   466   467    1
   231   466   465    1
   232   467   474   ar
   233   467   468   ar
   234   474   473   ar
   235   469   468    2
   236   468   470   ar
   237   465   463    1
   238   463   464    1
   239   473   475    1
   240   473   471   ar
   241   245   244    1
   242   250   249    2
   243   246   244    1
   244   246   247    1
   245   470   471   ar
   246   464   476    1
   247   471   472    2
   248   251   249   ar
   249   251   252   ar
   250   249   248   ar
   251   244   242    1
   252   120   119    2
   253   253   252    2
   254   252   254   ar
   255   248   247    1
   256   248   255   ar
   257   247   243    1
   258   477   476    2
   259   476   478    1
   260   476   479    1
   261   254   255   ar
   262   254   256    1
   263   242   243    1
   264   242   241    1
   265   139   138    2
   266   119   107    1
   267   119   121    1
   268   119   122    1
   269   107   106    1
   270   100    99    2
   271   123   122    1
   272   123   124    1
   273   479   480    1
   274   480   481    1
   275   140   138    1
   276   241   240    1
   277   103   104    1
   278   103   102    1
   279   493   494   ar
   280   493   491   ar
   281   138   127    1
   282   138   141    1
   283   240   237    1
   284   494   487   ar
   285   482   481    1
   286   482   486    1
   287   127   126    1
   288   104   106    1
   289   104   105    1
   290   106   108    1
   291   124   126    1
   292   124   125    1
   293   481   483    1
   294   239   237    2
   295   492   491    1
   296    99   102    1
   297    99    85    1
   298    99   101    1
   299   491   490   ar
   300   126   128    1
   301   237   238    1
   302   237   226    1
   303   487   486    1
   304   487   488   ar
   305    85    84    1
   306   486   485    1
   307   161   159    2
   308   234   233    1
   309   141   142    1
   310   108   109    1
   311   105   109    1
   312   232   233   ar
   313   232   230   ar
   314   160   159    1
   315   142   143    1
   316   125   129    1
   317   490   488   ar
   318   233   235   ar
   319   483   485    1
   320   483   484    1
   321   488   489    2
   322   159   146    1
   323   159   162    1
   324   231   230    2
   325   230   229   ar
   326   128   129    1
   327   109   110    1
   328   215   214    1
   329    84    82    1
   330    84    86    1
   331   226   225    1
   332   146   145    1
   333   484   495    1
   334   129   130    1
   335   227   225    1
   336   227   228    1
   337   235   236   ar
   338    82    81    1
   339    82    83    1
   340    86    87    1
   341    81    80    1
   342   225   223    1
   343    78    77    2
   344   143   145    1
   345   143   144    1
   346   137   130   ar
   347   137   136   ar
   348   229   236   ar
   349   229   228    1
   350   145   147    1
   351   514   512    1
   352   497   495    2
   353   214   216   ar
   354   214   213   ar
   355   162   163    1
   356   110   117   ar
   357   110   111   ar
   358   130   131   ar
   359   180   178    2
   360   117   116   ar
   361   194   193    1
   362   228   224    1
   363   495   496    1
   364   495   498    1
   365   136   134   ar
   366    80    77    1
   367   511   510    2
   368   144   148    1
   369   216   217   ar
   370   213   211   ar
   371    77    79    1
   372    77    66    1
   373   220   218    2
   374    83    87    1
   375   150   151   ar
   376   150   149   ar
   377    87    88    1
   378   512   510   ar
   379   512   513   ar
   380   221   222    1
   381   221   218    1
   382   510   509   ar
   383   223   224    1
   384   223   222    1
   385   163   164    1
   386   112   111    2
   387   111   113   ar
   388   147   148    1
   389   646   647    1
   390   646   645    1
   391   646   648    1
   392   151   152   ar
   393   176   177   ar
   394   176   174   ar
   395   649   648    1
   396   649   663    1
   397   647   651    1
   398   650   651    1
   399   650   648    1
   400   116   118    1
   401   116   114   ar
   402   191   192   ar
   403   191   190   ar
   404    66    65    1
   405   193   192   ar
   406   193   195   ar
   407   513   506   ar
   408   201   199    2
   409   178   179    1
   410   178   167    1
   411   178   181    1
   412   131   132    2
   413   131   133   ar
   414   218   219    1
   415   218   207    1
   416   148   149    1
   417   664   663    2
   418   651   652    1
   419   175   174    1
   420   217   210   ar
   421   211   210   ar
   422   211   212    2
   423   498   499    1
   424   149   158   ar
   425   134   133   ar
   426   134   135    1
   427   645   644    1
   428   177   170   ar
   429   638   639    2
   430   638   637    1
   431    97    98    1
   432    97    95    1
   433    88    98   ar
   434    88    89   ar
   435   509   507   ar
   436   192   198   ar
   437   667   668    1
   438   667   666    1
   439   174   173   ar
   440   639   640    1
   441    96    95   ar
   442    96   637   ar
   443   195   196   ar
   444   210   209    1
   445   501   505    1
   446   501   500    1
   447   167   166    1
   448   499   500    1
   449    98    91   ar
   450   113   114   ar
   451   190   189   ar
   452   506   507   ar
   453   506   505    1
   454   166   164    1
   455   166   168    1
   456   663   666    1
   457   663   665    1
   458    67    65    1
   459    67    68    1
   460   164   165    1
   461   181   182    1
   462    95    94   ar
   463   114   115    1
   464   152   158   ar
   465   152   153   ar
   466   507   508    2
   467    65    63    1
   468    89    90   ar
   469   668   669    1
   470   668   670    1
   471   637   635   ar
   472   199   202    1
   473   199   200    1
   474   199   186    1
   475   661   662   ar
   476   661   659   ar
   477   206   207    1
   478   206   208    1
   479   206   204    1
   480   158   157   ar
   481   202   203    1
   482   208   209    1
   483   660   659    1
   484   165   169    1
   485   531   530    2
   486   652   662   ar
   487   652   653   ar
   488   669   673    1
   489   505   504    1
   490   170   169    1
   491   170   171   ar
   492   500   502    1
   493   198   189   ar
   494   198   197   ar
   495   629   630    1
   496   629   627    1
   497   644   641    1
   498    91    90   ar
   499    91    92    1
   500   154   153    1
   501   196   197   ar
   502   173   171   ar
   503   209   205    1
   504   189   188    1
   505   630   631    1
   506   630   626    1
   507   640   631    1
   508   640   634    1
   509    71    70    2
   510   662   655   ar
   511   617   616   ar
   512   617   618   ar
   513   659   658   ar
   514    94    92    1
   515    94   636   ar
   516   153   155   ar
   517   115    93    1
   518   168   169    1
   519   685   684    2
   520    63    62    1
   521    63    64    1
   522   671   670    1
   523   671   684    1
   524   185   186    1
   525   185   187    1
   526   185   183    1
   527   182   183    1
   528    68    69    1
   529    68    64    1
   530   616   614   ar
   531   642   641    2
   532   530   532   ar
   533   530   529   ar
   534   171   172    2
   535   670   672    1
   536   641   628    1
   537   641   643    1
   538   635   634    2
   539   635   636   ar
   540   596   595    1
   541   204   203    1
   542   204   205    1
   543   653   654   ar
   544    92    93    1
   545   157   156   ar
   546   631   632    1
   547   618   619   ar
   548   628   627    1
   549    70    69   ar
   550    70    72   ar
   551   502   504    1
   552   502   503    1
   553   673   672    1
   554   673   674    1
   555   626   625    1
   556    69    76   ar
   557   532   533   ar
   558   187   188    1
   559   634   633    1
   560   627   625    1
   561    62    61    1
   562   183   184    1
   563   528   529   ar
   564   528   527   ar
   565   188   184    1
   566   529   536   ar
   567   684   686    1
   568   684   687    1
   569   655   654   ar
   570   655   656   ar
   571   625   624    1
   572   658   656   ar
   573   155   156   ar
   574    72    73   ar
   575   594   595   ar
   576   594   592   ar
   577    61    58    1
   578   595   597   ar
   579    76    75   ar
   580   614   615    1
   581   614   613   ar
   582   674   675   ar
   583   674   683   ar
   584   675   676   ar
   585   721   720    1
   586   503   515    1
   587   533   534    1
   588   533   535   ar
   589   632   633    2
   590   527   526   ar
   591   619   613   ar
   592   619   610   ar
   593   656   657    2
   594   553   552    2
   595   760   761   ar
   596   760   758   ar
   597    73    75   ar
   598    73    74    1
   599   536   535   ar
   600   536   526   ar
   601   593   592    2
   602   761   762   ar
   603   517   515    2
   604    59    58    2
   605   688   687    1
   606   688   689    1
   607   592   591   ar
   608   719   720   ar
   609   719   717   ar
   610   720   722   ar
   611   613   612   ar
   612   624   623    1
   613   526   525    1
   614   597   598   ar
   615    58    60    1
   616    58    47    1
   617   608   609    1
   618   608   606    1
   619   609   610    1
   620   609   605    1
   621   683   682   ar
   622   683   677   ar
   623   676   677   ar
   624    52    51    2
   625   610   611   ar
   626   777   776    2
   627   552   551   ar
   628   552   554   ar
   629   515   518    1
   630   515   516    1
   631   717   718    2
   632   717   716   ar
   633   759   758    1
   634   722   723   ar
   635   758   757   ar
   636   551   549   ar
   637   573   572    2
   638   762   763   ar
   639  1454  1453    1
   640  1454  1450    1
   641   682   681   ar
   642  1453  1451    1
   643    48    46    1
   644    48    49    1
   645   518   519    1
   646   623   620    1
   647   521   525    1
   648   521   520    1
   649   689   690    1
   650   689   691    1
   651   690   694    1
   652  1450  1449    1
   653   677   678   ar
   654    47    46    1
   655   723   716   ar
   656   716   715    1
   657   738   736   ar
   658   738   739   ar
   659   591   598   ar
   660   591   590   ar
   661   737   736    2
   662   740   739    1
   663   598   588   ar
   664    51    53   ar
   665    51    50   ar
   666    53    54   ar
   667   788   789    1
   668   788   787    1
   669   788   790    1
   670   789   793    1
   671   525   524    1
   672  1457  1456    2
   673   556   554    1
   674   571   572   ar
   675   571   569   ar
   676   612   611   ar
   677   774   773    1
   678   774   770    1
   679   774   775    1
   680   787   786    1
   681   773   771    1
   682   554   555   ar
   683   605   604    1
   684  1449  1451    1
   685  1449  1448    1
   686   776   775   ar
   687   776   778   ar
   688   736   735   ar
   689   572   574   ar
   690   739   741   ar
   691   763   757   ar
   692   763   754   ar
   693   793   792    1
   694   793   794    1
   695   757   756   ar
   696    46    44    1
   697   549   550    2
   698   549   548   ar
   699  1452  1451    1
   700  1452  1455    1
   701   606   607    1
   702   606   604    1
   703   791   790    1
   704   791   803    1
   705   519   520    1
   706   696   697   ar
   707   696   695   ar
   708   715   711    1
   709   715   714    1
   710   570   569    2
   711   792   790    1
   712    49    50    1
   713    49    45    1
   714   681   680   ar
   715   607   620    1
   716    55    54    1
   717   770   769    1
   718    54    56   ar
   719    50    57   ar
   720   775   782   ar
   721   711   710    1
   722  1456  1455   ar
   723  1456  1458   ar
   724   778   779   ar
   725   520   522    1
   726   569   568   ar
   727   604   603    1
   728   697   698   ar
   729  1447  1448    1
   730  1447  1444    1
   731   807   808    1
   732   807   806    1
   733   590   589   ar
   734   678   680   ar
   735   678   679    1
   736   694   695    1
   737   694   693    1
   738   691   692    1
   739   691   693    1
   740   588   587    1
   741   588   589   ar
   742   804   803    2
   743   695   704   ar
   744   707   705    2
   745   620   622    2
   746   620   621    1
   747   555   548   ar
   748   769   771    1
   749   769   768    1
   750  1455  1462   ar
   751   524   522    1
   752   771   772    1
   753   735   742   ar
   754   735   734    1
   755   548   547    1
   756   772   783    1
   757   786   783    1
   758   741   742   ar
   759   808   809    1
   760   808   810    1
   761   784   783    2
   762   692   705    1
   763   796   795    2
   764   522   523    1
   765   754   753    1
   766   754   755   ar
   767    57    56   ar
   768   809   813    1
   769  1458  1459   ar
   770   803   806    1
   771   803   805    1
   772   756   755   ar
   773   794   795   ar
   774   794   801   ar
   775   587   586    1
   776   587   583    1
   777   574   576    1
   778   574   575   ar
   779    44    45    1
   780    44    43    1
   781   714   712    1
   782   783   785    1
   783   698   704   ar
   784   698   699   ar
   785  1444  1445    2
   786  1444  1446    2
   787   753   752    1
   788   753   749    1
   789   734   730    1
   790   734   733    1
   791   782   781   ar
   792   779   780    1
   793   779   781   ar
   794   586   584    1
   795   704   703   ar
   796   795   797   ar
   797   705   708    1
   798   705   706    1
   799   568   575   ar
   800   568   567    1
   801  1462  1461   ar
   802   710   709    1
   803   710   712    1
   804   708   709    1
   805   752   750    1
   806   801   800   ar
   807   603   602    1
   808   768   767    1
   809   547   543    1
   810   547   546    1
   811   730   729    1
   812   813   812    1
   813   813   814    1
   814  1459  1461   ar
   815  1459  1460    2
   816   712   713    1
   817   700   699    1
   818   811   810    1
   819   811   823    1
   820   699   701   ar
   821   583   582    1
   822   810   812    1
   823   539   537    2
   824  1461  1463    1
   825    43    42    1
   826   523   537    1
   827   543   542    1
   828   703   702   ar
   829   602   599    1
   830   733   731    1
   831   749   748    1
   832  1441  1440   ar
   833  1441  1442   ar
   834    42    39    1
   835   567   566    1
   836   567   563    1
   837   797   798   ar
   838    35    34    2
   839   800   798   ar
   840   800   802    1
   841   767   764    1
   842    33    34   ar
   843    33    31   ar
   844   584   582    1
   845   584   585    1
   846  1440  1438   ar
   847  1442  1443   ar
   848   814   821   ar
   849   814   815   ar
   850   821   820   ar
   851   546   544    1
   852    32    31    2
   853   537   540    1
   854   537   538    1
   855  1305  1304    2
   856   701   702   ar
   857   566   564    1
   858   540   541    1
   859   750   748    1
   860   750   751    1
   861  1431  1430    1
   862    34    36   ar
   863   582   581    1
   864   798   799    2
   865   729   731    1
   866   729   728    1
   867  1432  1430    1
   868  1432  1433    1
   869    41    39    2
   870    31    30   ar
   871   713   724    1
   872   823   824    2
   873   823   825    1
   874   823   826    1
   875   748   747    1
   876  1286  1285    2
   877   585   599    1
   878    39    40    1
   879    39    27    1
   880   731   732    1
   881   542   544    1
   882   542   541    1
   883   726   724    2
   884   563   562    1
   885   599   601    2
   886   599   600    1
   887   751   764    1
   888   822   820    1
   889    14    13    1
   890   544   545    1
   891   820   818   ar
   892   815   816    2
   893   815   817   ar
   894   727   728    1
   895   727   724    1
   896  1443  1437   ar
   897  1443  1434   ar
   898  1438  1439    1
   899  1438  1437   ar
   900  1430  1428    1
   901   564   562    1
   902   564   565    1
   903    28    26    1
   904    28    29    1
   905    15    13   ar
   906    15    16   ar
   907   724   725    1
   908    36    38    1
   909    36    37   ar
   910   764   765    2
   911   764   766    1
   912   559   557    2
   913    30    37   ar
   914    30    29    1
   915  1304  1293    1
   916  1304  1306    1
   917  1304  1307    1
   918    27    26    1
   919   826   827    1
   920  1433  1434    1
   921  1433  1429    1
   922   581   580    1
   923    13    12   ar
   924  1437  1436   ar
   925   580   577    1
   926   817   818   ar
   927  1293  1292    1
   928   745   743    2
   929  1434  1435   ar
   930    26    24    1
   931   818   819    2
   932   732   743    1
   933   747   746    1
   934   562   561    1
   935   746   743    1
   936   827   828    1
   937    16    17   ar
   938  1285  1271    1
   939  1285  1288    1
   940  1285  1287    1
   941    29    25    1
   942  1325  1324    2
   943   565   577    1
   944   579   577    2
   945   829   828    1
   946   829   833    1
   947   545   557    1
   948  1289  1288    1
   949  1289  1290    1
   950  1271  1270    1
   951  1428  1429    1
   952  1428  1427    1
   953   577   578    1
   954  1307  1308    1
   955  1308  1309    1
   956   743   744    1
   957   557   560    1
   958   557   558    1
   959  1326  1324    1
   960   828   830    1
   961   841   840   ar
   962   841   834   ar
   963  1436  1435   ar
   964    12    11   ar
   965    12    18   ar
   966   840   838   ar
   967  1290  1292    1
   968  1290  1291    1
   969  1264  1263    2
   970  1324  1312    1
   971  1324  1327    1
   972   560   561    1
   973  1292  1294    1
   974  1267  1268    1
   975  1267  1266    1
   976   833   834    1
   977   833   832    1
   978    17    18   ar
   979  1268  1270    1
   980  1268  1269    1
   981    24    25    1
   982    24    23    1
   983  1312  1311    1
   984   834   835   ar
   985  1270  1272    1
   986    11    10   ar
   987    18     9   ar
   988  1427  1426    1
   989  1419  1418    2
   990   838   839    1
   991   838   837   ar
   992  1426  1423    1
   993  1309  1311    1
   994  1309  1310    1
   995  1294  1295    1
   996    22    23    1
   997    22    19    1
   998   830   832    1
   999   830   831    1
  1000  1266  1263    1
  1001  1263  1249    1
  1002  1263  1265    1
  1003  1311  1313    1
  1004  1291  1295    1
  1005  1272  1273    1
  1006  1417  1418   ar
  1007  1417  1415   ar
  1008   835   837   ar
  1009   835   836    2
  1010  1418  1420   ar
  1011  1249  1248    1
  1012  1327  1328    1
  1013  1345  1343    2
  1014  1269  1273    1
  1015    21    19    2
  1016    10     9   ar
  1017     9     8    1
  1018  1397  1396    2
  1019  1328  1329    1
  1020   831   842    1
  1021  1416  1415    2
  1022  1425  1423    2
  1023  1295  1296    1
  1024  1310  1314    1
  1025  1273  1274    1
  1026  1415  1414   ar
  1027  1423  1424    1
  1028  1423  1411    1
  1029  1344  1343    1
  1030    19    20    1
  1031    19     6    1
  1032  1420  1422    1
  1033  1420  1421   ar
  1034  1343  1332    1
  1035  1343  1346    1
  1036  1250  1248    1
  1037  1250  1251    1
  1038   844   842    2
  1039     7     8    1
  1040     7     5    1
  1041  1248  1246    1
  1042  1313  1314    1
  1043  1323  1321    1
  1044  1332  1331    1
  1045  1396  1398   ar
  1046  1396  1395   ar
  1047     8     4    1
  1048   842   843    1
  1049   842   845    1
  1050     5     6    1
  1051     5     3    1
  1052  1414  1421   ar
  1053  1414  1413    1
  1054  1322  1321   ar
  1055  1322  1315   ar
  1056  1303  1296   ar
  1057  1303  1302   ar
  1058  1378  1377    1
  1059  1314  1315    1
  1060  1246  1245    1
  1061  1246  1247    1
  1062  1296  1297   ar
  1063  1398  1399   ar
  1064  1364  1362    2
  1065  1412  1410    1
  1066  1412  1413    1
  1067  1329  1331    1
  1068  1329  1330    1
  1069  1274  1275   ar
  1070  1274  1284   ar
  1071  1331  1333    1
  1072  1260  1259    1
  1073  1405  1403    2
  1074  1321  1319   ar
  1075  1411  1410    1
  1076  1251  1247    1
  1077  1251  1252    1
  1078  1410  1408    1
  1079  1341  1342   ar
  1080  1341  1339   ar
  1081  1394  1395   ar
  1082  1394  1393   ar
  1083  1395  1402   ar
  1084     1     2    1
  1085   858   857    1
  1086  1315  1316   ar
  1087   859   857   ar
  1088   859   860   ar
  1089  1342  1335   ar
  1090  1383  1381    2
  1091  1346  1347    1
  1092  1245  1244    1
  1093  1413  1409    1
  1094     4     3    1
  1095  1283  1284   ar
  1096  1283  1281   ar
  1097  1261  1259   ar
  1098  1261  1262   ar
  1099  1275  1276   ar
  1100  1379  1377   ar
  1101  1379  1380   ar
  1102   845   846    1
  1103  1377  1376   ar
  1104  1302  1300   ar
  1105  1284  1277   ar
  1106   857   856   ar
  1107  1363  1362    1
  1108     3     2    1
  1109  1330  1334    1
  1110   860   853   ar
  1111  1297  1298    2
  1112  1297  1299   ar
  1113  1242  1241    2
  1114  1399  1400    1
  1115  1399  1401   ar
  1116  1259  1258   ar
  1117  1360  1358   ar
  1118  1360  1361   ar
  1119  1359  1358    1
  1120  1362  1365    1
  1121  1362  1351    1
  1122  1340  1339    1
  1123  1339  1338   ar
  1124  1244  1241    1
  1125  1393  1392   ar
  1126  1347  1348    1
  1127  1252  1262   ar
  1128  1252  1253   ar
  1129  1333  1334    1
  1130  1402  1401   ar
  1131  1402  1392   ar
  1132  1282  1281    1
  1133  1319  1320    2
  1134  1319  1318   ar
  1135  1403  1406    1
  1136  1403  1404    1
  1137  1403  1389    1
  1138  1262  1255   ar
  1139  1281  1280   ar
  1140  1335  1334    1
  1141  1335  1336   ar
  1142   846   847    1
  1143  1409  1408    1
  1144  1316  1318   ar
  1145  1316  1317    2
  1146  1406  1407    1
  1147  1358  1357   ar
  1148  1408  1407    1
  1149  1361  1354   ar
  1150  1380  1373   ar
  1151  1376  1374   ar
  1152  1365  1366    1
  1153   848   852    1
  1154   848   847    1
  1155  1381  1384    1
  1156  1381  1382    1
  1157  1381  1370    1
  1158  1276  1277   ar
  1159   856   854   ar
  1160  1300  1299   ar
  1161  1300  1301    1
  1162   853   854   ar
  1163   853   852    1
  1164  1277  1278   ar
  1165  1241  1229    1
  1166  1241  1243    1
  1167  1351  1350    1
  1168  1392  1391    1
  1169  1384  1385    1
  1170  1258  1256   ar
  1171  1350  1348    1
  1172  1350  1352    1
  1173   854   855    2
  1174   877   876    2
  1175  1338  1336   ar
  1176   852   851    1
  1177   847   849    1
  1178  1348  1349    1
  1179  1336  1337    2
  1180  1253  1254   ar
  1181  1388  1389    1
  1182  1388  1390    1
  1183  1388  1386    1
  1184  1373  1374   ar
  1185  1373  1372    1
  1186  1374  1375    2
  1187  1280  1278   ar
  1188  1229  1228    1
  1189  1255  1256   ar
  1190  1255  1254   ar
  1191  1357  1355   ar
  1192  1390  1391    1
  1193  1369  1370    1
  1194  1369  1371    1
  1195  1369  1367    1
  1196  1354  1355   ar
  1197  1354  1353    1
  1198  1278  1279    2
  1199  1230  1228    1
  1200  1230  1231    1
  1201  1366  1367    1
  1202   981   980    2
  1203  1256  1257    2
  1204   994   993    1
  1205   994   998    1
  1206  1391  1387    1
  1207  1349  1353    1
  1208   993   992    1
  1209   993   995    1
  1210   998   997    1
  1211   998   999    1
  1212  1385  1386    1
  1213   876   878   ar
  1214   876   875   ar
  1215  1371  1372    1
  1216  1368  1372    1
  1217  1368  1367    1
  1218   997   995    1
  1219   849   851    1
  1220   849   850    1
  1221   899   898    2
  1222  1352  1353    1
  1223  1355  1356    2
  1224  1228  1226    1
  1225  1386  1387    1
  1226   992   991    1
  1227  1007  1006   ar
  1228  1007  1008   ar
  1229   874   875   ar
  1230   874   873   ar
  1231   878   879   ar
  1232   996   995    1
  1233   996  1009    1
  1234   965   964   ar
  1235   965   966   ar
  1236   875   882   ar
  1237   977   978    1
  1238   977   975    1
  1239  1231  1227    1
  1240  1231  1232    1
  1241   978   974    1
  1242   978   979    1
  1243  1234  1233    2
  1244  1226  1227    1
  1245  1226  1225    1
  1246   980   979   ar
  1247   980   982   ar
  1248   900   898   ar
  1249   900   901   ar
  1250   898   897   ar
  1251   999  1008   ar
  1252   999  1000   ar
  1253   964   962   ar
  1254  1006  1005   ar
  1255   863   861    2
  1256   991   988    1
  1257   944   943   ar
  1258   944   945   ar
  1259   850   861    1
  1260  1008  1002   ar
  1261  1015  1014    1
  1262  1015  1019    1
  1263   966   967   ar
  1264   943   941   ar
  1265   922   923   ar
  1266   922   920   ar
  1267   974   973    1
  1268   873   872   ar
  1269   979   986   ar
  1270   902   901    1
  1271  1233  1232   ar
  1272  1233  1235   ar
  1273  1014  1013    1
  1274  1014  1016    1
  1275   982   983   ar
  1276  1012  1013    1
  1277  1012  1009    1
  1278  1232  1239   ar
  1279   879   880    1
  1280   879   881   ar
  1281  1010  1009    2
  1282   901   903   ar
  1283   923   924   ar
  1284   921   920    1
  1285   973   975    1
  1286   973   972    1
  1287   882   872   ar
  1288   882   881   ar
  1289  1009  1011    1
  1290  1019  1020    1
  1291  1019  1018    1
  1292   976   975    1
  1293   976   988    1
  1294  1000  1001   ar
  1295  1225  1224    1
  1296   897   896   ar
  1297   897   904   ar
  1298   945   946   ar
  1299   920   919   ar
  1300   861   864    1
  1301   861   862    1
  1302  1005  1003   ar
  1303  1235  1236   ar
  1304   962   963    1
  1305   962   961   ar
  1306   989   988    2
  1307   872   871    1
  1308   988   990    1
  1309  1002  1001   ar
  1310  1002  1003   ar
  1311   941   942    1
  1312   941   940   ar
  1313   896   895   ar
  1314  1239  1238   ar
  1315   967   961   ar
  1316   967   958   ar
  1317  1020  1029   ar
  1318  1020  1021   ar
  1319  1018  1016    1
  1320   903   904   ar
  1321   986   985   ar
  1322   924   925   ar
  1323   904   894   ar
  1324  1224  1221    1
  1325  1016  1017    1
  1326   983   984    2
  1327   983   985   ar
  1328  1028  1029   ar
  1329  1028  1027   ar
  1330  1003  1004    1
  1331  1222  1221    2
  1332   864   865    1
  1333   972   971    1
  1334  1017  1030    1
  1335   961   960   ar
  1336  1236  1238   ar
  1337  1236  1237    2
  1338   956   957    1
  1339   956   954    1
  1340  1238  1240    1
  1341  1029  1023   ar
  1342   946   940   ar
  1343   946   937   ar
  1344   919   925   ar
  1345   919   918   ar
  1346  1021  1022   ar
  1347   957   958    1
  1348   957   953    1
  1349   958   959   ar
  1350   985   987    1
  1351   940   939   ar
  1352   867   871    1
  1353   867   866    1
  1354   871   870    1
  1355   895   894   ar
  1356   925   916   ar
  1357  1027  1026   ar
  1358  1221  1223    1
  1359  1221  1209    1
  1360   894   893    1
  1361   971   968    1
  1362   865   866    1
  1363  1023  1022   ar
  1364  1023  1024   ar
  1365  1031  1030    2
  1366   918   917   ar
  1367  1030  1032    1
  1368  1030  1033    1
  1369   960   959   ar
  1370   937   936    1
  1371   937   938   ar
  1372   954   955    1
  1373   954   952    1
  1374   866   868    1
  1375   953   952    1
  1376  1026  1024   ar
  1377   955   968    1
  1378  1036  1035    1
  1379  1036  1040    1
  1380   936   935    1
  1381   936   932    1
  1382   916   917   ar
  1383   916   915    1
  1384   870   868    1
  1385   939   938   ar
  1386  1034  1033    1
  1387  1034  1035    1
  1388  1024  1025    2
  1389   868   869    1
  1390   893   889    1
  1391   893   892    1
  1392  1209  1208    1
  1393  1214  1213    2
  1394   952   951    1
  1395  1210  1208    1
  1396  1210  1211    1
  1397  1035  1037    1
  1398   935   933    1
  1399   915   914    1
  1400   915   911    1
  1401   968   969    2
  1402   968   970    1
  1403  1040  1041    1
  1404  1040  1039    1
  1405   889   888    1
  1406  1042  1041   ar
  1407  1042  1043   ar
  1408   885   883    2
  1409   932   931    1
  1410  1041  1051   ar
  1411  1025  1046    1
  1412  1213  1215   ar
  1413  1213  1212   ar
  1414  1208  1206    1
  1415  1043  1044   ar
  1416   914   912    1
  1417  1215  1216   ar
  1418   892   890    1
  1419   869   883    1
  1420   911   910    1
  1421   886   883    1
  1422   886   887    1
  1423  1211  1212    1
  1424  1211  1207    1
  1425  1051  1044   ar
  1426  1051  1050    1
  1427  1044  1045    1
  1428  1039  1037    1
  1429   883   884    1
  1430   951   950    1
  1431  1212  1219   ar
  1432  1037  1038    1
  1433   933   931    1
  1434   933   934    1
  1435   931   930    1
  1436   950   947    1
  1437  1050  1048    1
  1438   888   890    1
  1439   888   887    1
  1440  1216  1217    2
  1441  1216  1218   ar
  1442   890   891    1
  1443  1045  1046    1
  1444  1045  1047    2
  1445  1206  1207    1
  1446  1206  1205    1
  1447   912   910    1
  1448   912   913    1
  1449  1048  1047    2
  1450  1048  1049    2
  1451  1038  1052    1
  1452  1219  1218   ar
  1453   934   947    1
  1454   910   909    1
  1455  1218  1220    1
  1456  1049  1198    1
  1457   908   909    1
  1458   908   905    1
  1459   930   929    1
  1460   907   905    2
  1461  1195  1194    2
  1462   947   949    2
  1463   947   948    1
  1464  1205  1204    1
  1465   891   905    1
  1466   929   926    1
  1467  1196  1194    1
  1468  1196  1197    2
  1469   913   926    1
  1470  1198  1197    2
  1471  1204  1201    1
  1472  1194  1193    1
  1473  1054  1052    2
  1474   905   906    1
  1475   928   926    2
  1476  1052  1055    1
  1477  1052  1053    1
  1478  1197  1199    1
  1479   926   927    1
  1480  1089  1088    2
  1481  1055  1056    1
  1482  1065  1064   ar
  1483  1065  1066   ar
  1484  1193  1200   ar
  1485  1193  1192   ar
  1486  1064  1063   ar
  1487  1068  1067    1
  1488  1199  1200    1
  1489  1056  1057    1
  1490  1201  1203    2
  1491  1201  1202    1
  1492  1201  1187    1
  1493  1200  1190   ar
  1494  1088  1090   ar
  1495  1088  1087   ar
  1496  1066  1067   ar
  1497  1066  1072   ar
  1498  1192  1191   ar
  1499  1111  1110    2
  1500  1058  1057    1
  1501  1058  1062    1
  1502  1067  1069   ar
  1503  1063  1072   ar
  1504  1063  1062    1
  1505  1090  1091   ar
  1506  1188  1186    1
  1507  1188  1189    1
  1508  1057  1059    1
  1509  1072  1071   ar
  1510  1190  1191   ar
  1511  1190  1189    1
  1512  1086  1087   ar
  1513  1086  1085   ar
  1514  1087  1094   ar
  1515  1062  1061    1
  1516  1069  1070   ar
  1517  1187  1186    1
  1518  1110  1109   ar
  1519  1110  1112   ar
  1520  1175  1174    2
  1521  1109  1107   ar
  1522  1186  1184    1
  1523  1189  1185    1
  1524  1071  1070   ar
  1525  1091  1092    1
  1526  1091  1093   ar
  1527  1059  1061    1
  1528  1059  1060    1
  1529  1075  1073    2
  1530  1085  1084   ar
  1531  1174  1173   ar
  1532  1174  1176   ar
  1533  1094  1093   ar
  1534  1094  1084   ar
  1535  1178  1176    1
  1536  1181  1179    2
  1537  1108  1107    2
  1538  1107  1106   ar
  1539  1112  1114    1
  1540  1112  1113   ar
  1541  1182  1179    1
  1542  1182  1183    1
  1543  1173  1171   ar
  1544  1176  1177   ar
  1545  1060  1073    1
  1546  1184  1185    1
  1547  1184  1183    1
  1548  1084  1083    1
  1549  1179  1180    1
  1550  1179  1167    1
  1551  1073  1076    1
  1552  1073  1074    1
  1553  1161  1159    2
  1554  1113  1106   ar
  1555  1106  1105    1
  1556  1177  1170   ar
  1557  1171  1172    2
  1558  1171  1170   ar
  1559  1139  1137    2
  1560  1076  1077    1
  1561  1170  1169    1
  1562  1083  1079    1
  1563  1083  1082    1
  1564  1079  1078    1
  1565  1167  1166    1
  1566  1166  1168    1
  1567  1166  1164    1
  1568  1159  1162    1
  1569  1159  1160    1
  1570  1159  1145    1
  1571  1153  1152    2
  1572  1168  1169    1
  1573  1162  1163    1
  1574  1105  1104    1
  1575  1105  1101    1
  1576  1082  1080    1
  1577  1077  1078    1
  1578  1169  1165    1
  1579  1137  1138    1
  1580  1137  1140    1
  1581  1137  1123    1
  1582  1152  1151   ar
  1583  1152  1154   ar
  1584  1150  1151   ar
  1585  1150  1149   ar
  1586  1080  1078    1
  1587  1080  1081    1
  1588  1104  1102    1
  1589  1097  1095    2
  1590  1101  1100    1
  1591  1151  1158   ar
  1592  1163  1164    1
  1593  1140  1141    1
  1594  1164  1165    1
  1595  1154  1155   ar
  1596  1145  1144    1
  1597  1149  1148   ar
  1598  1144  1146    1
  1599  1144  1142    1
  1600  1098  1095    1
  1601  1098  1099    1
  1602  1158  1148   ar
  1603  1158  1157   ar
  1604  1081  1095    1
  1605  1095  1096    1
  1606  1155  1157   ar
  1607  1155  1156    1
  1608  1141  1142    1
  1609  1148  1147    1
  1610  1146  1147    1
  1611  1123  1122    1
  1612  1100  1102    1
  1613  1100  1099    1
  1614  1102  1103    1
  1615  1117  1115    2
  1616  1142  1143    1
  1617  1147  1143    1
  1618  1122  1124    1
  1619  1122  1120    1
  1620  1118  1115    1
  1621  1118  1119    1
  1622  1115  1103    1
  1623  1115  1116    1
  1624  1124  1125    1
  1625  1119  1120    1
  1626  1131  1130    2
  1627  1128  1129   ar
  1628  1128  1127   ar
  1629  1130  1129   ar
  1630  1130  1132   ar
  1631  1120  1121    1
  1632  1129  1136   ar
  1633  1127  1126   ar
  1634  1132  1133   ar
  1635  1136  1126   ar
  1636  1136  1135   ar
  1637  1126  1125    1
  1638  1133  1135   ar
  1639  1133  1134    1
  1640  1125  1121    1
