AFB1.pdb
 OpenBabel09062014203D

 25 31  0  0  1  0  0  0  0  0999 V2000
    0.8550    1.8860    0.0000 C   0  0  2  0  0  0  0  0  0  0  0  0
    0.1400    1.4730    0.0000 C   0  0  0  0  0  0  0  0  0  0  0  0
    0.1400    0.6480    0.0000 C   0  0  0  0  0  0  0  0  0  0  0  0
    0.8550    0.2360    0.0000 C   0  0  0  0  0  0  0  0  0  0  0  0
    1.5690    0.6480    0.0000 C   0  0  0  0  0  0  0  0  0  0  0  0
    1.5690    1.4730    0.0000 C   0  0  0  0  0  0  0  0  0  0  0  0
    0.8540    2.7110    0.0000 O   0  0  0  0  0  0  0  0  0  0  0  0
    1.5690    3.1230    0.0000 C   0  0  0  0  0  0  0  0  0  0  0  0
    2.2830    2.7110    0.0000 C   0  0  0  0  0  0  0  0  0  0  0  0
    2.2830    1.8860    0.0000 C   0  0  0  0  0  0  0  0  0  0  0  0
   -0.6450    0.3930    0.0000 O   0  0  0  0  0  0  0  0  0  0  0  0
   -1.1290    1.0610    0.0000 C   0  0  2  0  0  0  0  0  0  0  0  0
   -0.6450    1.7280    0.0000 C   0  0  1  0  0  0  0  0  0  0  0  0
   -1.9140    1.3160    0.0000 O   0  0  0  0  0  0  0  0  0  0  0  0
   -1.9140    2.1410    0.0000 C   0  0  0  0  0  0  0  0  0  0  0  0
   -1.1300    2.3960    0.0000 C   0  0  0  0  0  0  0  0  0  0  0  0
    3.0680    1.6310    0.0000 C   0  0  0  0  0  0  0  0  0  0  0  0
    3.5530    2.2980    0.0000 C   0  0  0  0  0  0  0  0  0  0  0  0
    3.0680    2.9660    0.0000 C   0  0  0  0  0  0  0  0  0  0  0  0
    3.3230    3.7500    0.0000 O   0  0  0  0  0  0  0  0  0  0  0  0
    1.5690    3.9480    0.0000 O   0  0  0  0  0  0  0  0  0  0  0  0
    2.2830    0.2360    0.0000 O   0  0  0  0  0  0  0  0  0  0  0  0
    2.9980    0.6480    0.0000 C   0  0  0  0  0  0  0  0  0  0  0  0
   -1.6150    0.3930    0.0000 H   0  0  0  0  0  0  0  0  0  0  0  0
   -0.1600    2.3960    0.0000 H   0  0  0  0  0  0  0  0  0  0  0  0
  1  2  1  1  0  0  0
  1  7  1  0  0  0  0
  1  6  1  0  0  0  0
  2 13  1  0  0  0  0
  2  3  2  0  0  0  0
  3  4  1  0  0  0  0
  3 11  1  0  0  0  0
  4  5  2  0  0  0  0
  5  6  1  0  0  0  0
  5 22  1  0  0  0  0
  6 10  2  0  0  0  0
  7  8  1  0  0  0  0
  8  9  2  0  0  0  0
  8 21  1  0  0  0  0
  9 19  1  0  0  0  0
  9 10  1  0  0  0  0
 10 17  1  0  0  0  0
 11 12  1  0  0  0  0
 12 14  1  0  0  0  0
 12 13  1  0  0  0  0
 12 24  1  6  0  0  0
 13 16  1  0  0  0  0
 13 25  1  6  0  0  0
 14 15  1  0  0  0  0
 15 16  2  0  0  0  0
 17 18  1  0  0  0  0
 18 19  2  0  0  0  0
 19 20  1  0  0  0  0
 21 20  1  0  0  0  0
 22 23  1  0  0  0  0
 23 17  2  0  0  0  0
M  END
>  <COMPND>
    UNNAMED

>  <AUTHOR>
    GENERATED BY OPEN BABEL 2.4.1

>  <MASTER>
        0    0    0    0    0    0    0    0   25    0   25    0

$$$$
