AFB1t.pdb
 OpenBabel09062014343D

 35 39  0  0  1  0  0  0  0  0999 V2000
    2.3740   -2.6770    1.0150 O   0  0  0  0  0  0  0  0  0  0  0  0
    3.1820   -1.8360    1.3620 C   0  0  0  0  0  0  0  0  0  0  0  0
    4.5590   -2.0990    1.7800 C   0  0  0  0  0  0  0  0  0  0  0  0
    5.1580   -3.3380    2.2520 C   0  0  0  0  0  0  0  0  0  0  0  0
    4.5220   -4.3620    2.4780 O   0  0  0  0  0  0  0  0  0  0  0  0
    6.5300   -3.2620    2.4850 O   0  0  0  0  0  0  0  0  0  0  0  0
    7.2610   -2.0660    2.3080 C   0  0  0  0  0  0  0  0  0  0  0  0
    8.6310   -2.1360    2.4760 C   0  0  0  0  0  0  0  0  0  0  0  0
    9.3920   -1.0010    2.2850 C   0  0  0  0  0  0  0  0  0  0  0  0
   10.7410   -1.2010    2.4130 O   0  0  0  0  0  0  0  0  0  0  0  0
   10.8900   -2.6440    2.4560 C   0  0  1  0  0  0  0  0  0  0  0  0
   11.7860   -3.0480    3.5160 O   0  0  0  0  0  0  0  0  0  0  0  0
   10.9660   -3.6660    4.4370 C   0  0  0  0  0  0  0  0  0  0  0  0
    9.6860   -3.8060    4.0940 C   0  0  0  0  0  0  0  0  0  0  0  0
    9.5120   -3.3030    2.7100 C   0  0  1  0  0  0  0  0  0  0  0  0
    8.8340    0.2160    1.9360 C   0  0  0  0  0  0  0  0  0  0  0  0
    7.4500    0.2880    1.7180 C   0  0  0  0  0  0  0  0  0  0  0  0
    6.8160    1.4240    1.2850 O   0  0  0  0  0  0  0  0  0  0  0  0
    7.6170    2.5330    0.8930 C   0  0  0  0  0  0  0  0  0  0  0  0
    6.6410   -0.8620    1.9170 C   0  0  0  0  0  0  0  0  0  0  0  0
    5.1990   -0.9260    1.6630 C   0  0  0  0  0  0  0  0  0  0  0  0
    4.3140    0.1940    1.2180 C   0  0  0  0  0  0  0  0  0  0  0  0
    2.9090   -0.3630    1.4140 C   0  0  0  0  0  0  0  0  0  0  0  0
   11.3190   -2.9650    1.4990 H   0  0  0  0  0  0  0  0  0  0  0  0
   11.4620   -3.9900    5.3360 H   0  0  0  0  0  0  0  0  0  0  0  0
    8.9310   -4.2950    4.6860 H   0  0  0  0  0  0  0  0  0  0  0  0
    9.3230   -4.1170    2.0040 H   0  0  0  0  0  0  0  0  0  0  0  0
    9.4950    1.0640    1.8000 H   0  0  0  0  0  0  0  0  0  0  0  0
    6.9470    3.3060    0.5050 H   0  0  0  0  0  0  0  0  0  0  0  0
    8.3100    2.2620    0.0900 H   0  0  0  0  0  0  0  0  0  0  0  0
    8.1470    2.9550    1.7530 H   0  0  0  0  0  0  0  0  0  0  0  0
    4.4910    0.4230    0.1590 H   0  0  0  0  0  0  0  0  0  0  0  0
    4.4300    1.1100    1.8060 H   0  0  0  0  0  0  0  0  0  0  0  0
    2.2140   -0.0350    0.6400 H   0  0  0  0  0  0  0  0  0  0  0  0
    2.5150   -0.1220    2.4080 H   0  0  0  0  0  0  0  0  0  0  0  0
  1  2  2  0  0  0  0
  2  3  1  0  0  0  0
  2 23  1  0  0  0  0
  3  4  1  0  0  0  0
  3 21  2  0  0  0  0
  4  5  2  0  0  0  0
  4  6  1  0  0  0  0
  6  7  1  0  0  0  0
  7  8  1  0  0  0  0
  7 20  2  0  0  0  0
  8  9  2  0  0  0  0
  8 15  1  0  0  0  0
  9 10  1  0  0  0  0
  9 16  1  0  0  0  0
 10 11  1  0  0  0  0
 11 12  1  0  0  0  0
 11 15  1  0  0  0  0
 11 24  1  6  0  0  0
 12 13  1  0  0  0  0
 13 14  2  0  0  0  0
 13 25  1  0  0  0  0
 14 15  1  0  0  0  0
 14 26  1  0  0  0  0
 15 27  1  6  0  0  0
 16 17  2  0  0  0  0
 16 28  1  0  0  0  0
 17 18  1  0  0  0  0
 17 20  1  0  0  0  0
 18 19  1  0  0  0  0
 19 29  1  0  0  0  0
 19 30  1  0  0  0  0
 19 31  1  0  0  0  0
 20 21  1  0  0  0  0
 21 22  1  0  0  0  0
 22 23  1  0  0  0  0
 22 32  1  0  0  0  0
 22 33  1  0  0  0  0
 23 34  1  0  0  0  0
 23 35  1  0  0  0  0
M  END
>  <COMPND>
    UNNAMED

>  <AUTHOR>
    GENERATED BY OPEN BABEL 3.1.0

>  <MASTER>
        0    0    0    0    0    0    0    0   35    0   35    0

$$$$
