AFB1t.pdb
  RxDock  09122016523D
librxdock.so/0.1.0
 23 27  0  0  0  0  0  0  0  0999 V2000
   -5.6879    2.6741   -7.7605 O   0  0  0  0  0  0
   -4.7201    2.0286   -8.1174 C   0  0  0  0  0  0
   -3.4054    2.0393   -7.4758 C   0  0  0  0  0  0
   -2.8227    3.0313   -6.5853 C   0  0  0  0  0  0
   -3.3480    4.1085   -6.3248 O   0  0  0  0  0  0
   -1.5714    2.6855   -6.0784 O   0  0  0  0  0  0
   -0.9174    1.4850   -6.4350 C   0  0  0  0  0  0
    0.2748    1.2045   -5.7947 C   0  0  0  0  0  0
    0.9364    0.0295   -6.0874 C   0  0  0  0  0  0
    2.0707   -0.1757   -5.3475 O   0  0  0  0  0  0
    2.0157    0.8399   -4.3122 C   0  0  0  0  0  0
    3.2914    1.5021   -4.1580 O   0  0  0  0  0  0
    3.0729    2.7765   -4.6382 C   0  0  0  0  0  0
    1.8237    3.0709   -4.9967 C   0  0  0  0  0  0
    0.9583    1.9078   -4.6853 C   0  0  0  0  0  0
    0.4544   -0.8835   -7.0084 C   0  0  0  0  0  0
   -0.7776   -0.6309   -7.6302 C   0  0  0  0  0  0
   -1.3804   -1.5137   -8.4889 O   0  0  0  0  0  0
   -0.8923   -1.5931   -9.8233 C   0  0  0  0  0  0
   -1.4754    0.5750   -7.3556 C   0  0  0  0  0  0
   -2.7937    0.9213   -7.8943 C   0  0  0  0  0  0
   -3.6081    0.1223   -8.8607 C   0  0  0  0  0  0
   -4.7064    1.0896   -9.2857 C   0  0  0  0  0  0
  1  2  2  0  0  0
  2  3  1  0  0  0
  2 23  1  0  0  0
  3  4  1  0  0  0
  3 21  2  0  0  0
  4  5  2  0  0  0
  4  6  1  0  0  0
  6  7  1  0  0  0
  7  8  1  0  0  0
  7 20  2  0  0  0
  8  9  2  0  0  0
  8 15  1  0  0  0
  9 10  1  0  0  0
  9 16  1  0  0  0
 10 11  1  0  0  0
 11 12  1  0  0  0
 11 15  1  0  0  0
 12 13  1  0  0  0
 13 14  2  0  0  0
 14 15  1  0  0  0
 16 17  2  0  0  0
 17 18  1  0  0  0
 17 20  1  0  0  0
 18 19  1  0  0  0
 20 21  1  0  0  0
 21 22  1  0  0  0
 22 23  1  0  0  0
M  END
>  <AUTHOR>
    GENERATED BY OPEN BABEL 3.1.0

>  <CHROM.1>
-77.92005515,-1.01272530,1.18565131,-6.74959866,2.89641486,0.43243048,-2.55416147

>  <COMPND>
    UNNAMED

>  <MASTER>
        0    0    0    0    0    0    0    0   35    0   35    0

>  <Name>
AFB1t.pdb

>  <RI>
0

>  <Rbt.Current_Directory>
/home/fc/tossine/AF_1/p3/0_clust09

>  <Rbt.Executable>
rbdock/0.1.0

>  <Rbt.Library>
librxdock.so/0.1.0

>  <Rbt.Parameter_File>
/cluster/rxdock/data/scripts/dock.prm

>  <Rbt.Receptor>
rx_3.prm

>  <SCORE>
-7.22443

>  <SCORE.INTER>
-7.32324

>  <SCORE.INTER.CONST>
1

>  <SCORE.INTER.POLAR>
0

>  <SCORE.INTER.REPUL>
0.235924

>  <SCORE.INTER.ROT>
1

>  <SCORE.INTER.VDW>
-14.9029

>  <SCORE.INTER.norm>
-0.318402

>  <SCORE.INTRA>
0.0988114

>  <SCORE.INTRA.DIHEDRAL>
4.46682

>  <SCORE.INTRA.DIHEDRAL.0>
0.0968638

>  <SCORE.INTRA.POLAR>
0

>  <SCORE.INTRA.POLAR.0>
0

>  <SCORE.INTRA.REPUL>
0

>  <SCORE.INTRA.REPUL.0>
0

>  <SCORE.INTRA.VDW>
-2.1346

>  <SCORE.INTRA.VDW.0>
2.11718

>  <SCORE.INTRA.norm>
0.00429615

>  <SCORE.RESTR>
0

>  <SCORE.RESTR.CAVITY>
0

>  <SCORE.RESTR.norm>
0

>  <SCORE.SYSTEM>
0

>  <SCORE.SYSTEM.CONST>
0

>  <SCORE.SYSTEM.DIHEDRAL>
0

>  <SCORE.SYSTEM.norm>
0

>  <SCORE.heavy>
23

>  <SCORE.norm>
-0.314106

$$$$
