AFB1t.pdb
  RxDock  09122016513D
librxdock.so/0.1.0
 23 27  0  0  0  0  0  0  0  0999 V2000
   -6.7053    2.3078  -12.4314 O   0  0  0  0  0  0
   -5.5495    1.9591  -12.5831 C   0  0  0  0  0  0
   -4.7497    1.2145  -11.6105 C   0  0  0  0  0  0
   -4.9485    1.0629  -10.1772 C   0  0  0  0  0  0
   -5.8048    1.6652   -9.5384 O   0  0  0  0  0  0
   -4.0418    0.2046   -9.5579 O   0  0  0  0  0  0
   -2.9987   -0.4318  -10.2672 C   0  0  0  0  0  0
   -2.2221   -1.3352   -9.5667 C   0  0  0  0  0  0
   -1.2096   -2.0044  -10.2231 C   0  0  0  0  0  0
   -0.5489   -2.9217   -9.4497 O   0  0  0  0  0  0
   -1.3576   -3.0322   -8.2497 C   0  0  0  0  0  0
   -0.5387   -2.9922   -7.0591 O   0  0  0  0  0  0
   -0.8428   -1.7787   -6.4781 C   0  0  0  0  0  0
   -1.8035   -1.0637   -7.0625 C   0  0  0  0  0  0
   -2.3605   -1.8541   -8.1867 C   0  0  0  0  0  0
   -0.9335   -1.8010  -11.5635 C   0  0  0  0  0  0
   -1.7445   -0.9207  -12.2953 C   0  0  0  0  0  0
   -1.6074   -0.7190  -13.6446 O   0  0  0  0  0  0
   -0.2925   -0.6073  -14.1773 C   0  0  0  0  0  0
   -2.7874   -0.2109  -11.6433 C   0  0  0  0  0  0
   -3.7355    0.6854  -12.3109 C   0  0  0  0  0  0
   -3.7482    1.0646  -13.7571 C   0  0  0  0  0  0
   -4.7338    2.2258  -13.8121 C   0  0  0  0  0  0
  1  2  2  0  0  0
  2  3  1  0  0  0
  2 23  1  0  0  0
  3  4  1  0  0  0
  3 21  2  0  0  0
  4  5  2  0  0  0
  4  6  1  0  0  0
  6  7  1  0  0  0
  7  8  1  0  0  0
  7 20  2  0  0  0
  8  9  2  0  0  0
  8 15  1  0  0  0
  9 10  1  0  0  0
  9 16  1  0  0  0
 10 11  1  0  0  0
 11 12  1  0  0  0
 11 15  1  0  0  0
 12 13  1  0  0  0
 13 14  2  0  0  0
 14 15  1  0  0  0
 16 17  2  0  0  0
 17 18  1  0  0  0
 17 20  1  0  0  0
 18 19  1  0  0  0
 20 21  1  0  0  0
 21 22  1  0  0  0
 22 23  1  0  0  0
M  END
>  <AUTHOR>
    GENERATED BY OPEN BABEL 3.1.0

>  <CHROM.1>
-41.95666471,-2.83721482,-0.40379611,-10.68524050,2.28963363,0.62090030,-1.33220644

>  <COMPND>
    UNNAMED

>  <MASTER>
        0    0    0    0    0    0    0    0   35    0   35    0

>  <Name>
AFB1t.pdb

>  <RI>
0

>  <Rbt.Current_Directory>
/home/fc/tossine/AF_1/p3/0_clust09

>  <Rbt.Executable>
rbdock/0.1.0

>  <Rbt.Library>
librxdock.so/0.1.0

>  <Rbt.Parameter_File>
/cluster/rxdock/data/scripts/dock.prm

>  <Rbt.Receptor>
rx_0.prm

>  <SCORE>
-10.6622

>  <SCORE.INTER>
-10.3339

>  <SCORE.INTER.CONST>
1

>  <SCORE.INTER.POLAR>
0

>  <SCORE.INTER.REPUL>
0

>  <SCORE.INTER.ROT>
1

>  <SCORE.INTER.VDW>
-16.7339

>  <SCORE.INTER.norm>
-0.449299

>  <SCORE.INTRA>
-0.328356

>  <SCORE.INTRA.DIHEDRAL>
1.98878

>  <SCORE.INTRA.DIHEDRAL.0>
0.0968638

>  <SCORE.INTRA.POLAR>
0

>  <SCORE.INTRA.POLAR.0>
0

>  <SCORE.INTRA.REPUL>
0

>  <SCORE.INTRA.REPUL.0>
0

>  <SCORE.INTRA.VDW>
-1.32275

>  <SCORE.INTRA.VDW.0>
2.11718

>  <SCORE.INTRA.norm>
-0.0142763

>  <SCORE.RESTR>
0

>  <SCORE.RESTR.CAVITY>
0

>  <SCORE.RESTR.norm>
0

>  <SCORE.SYSTEM>
0

>  <SCORE.SYSTEM.CONST>
0

>  <SCORE.SYSTEM.DIHEDRAL>
0

>  <SCORE.SYSTEM.norm>
0

>  <SCORE.heavy>
23

>  <SCORE.norm>
-0.463575

$$$$
