@<TRIPOS>MOLECULE
dna.pdb
 1638 1840 0 0 0
SMALL
GASTEIGER

@<TRIPOS>ATOM
      1  O5'       28.5040  -20.5550   55.1860 O.3     1  DA1        -0.2176
      2  C5'       28.7650  -19.8610   56.3980 C.3     1  DA1         0.2140
      3  C4'       30.2490  -19.7940   56.6640 C.3     1  DA1         0.1776
      4  O4'       30.7750  -21.1460   56.6760 O.3     1  DA1        -0.3326
      5  C3'       31.0790  -19.0650   55.6130 C.3     1  DA1         0.1559
      6  O3'       31.1290  -17.6610   55.8130 O.3     1  DA1        -0.3138
      7  C2'       32.4380  -19.7500   55.7080 C.3     1  DA1         0.0865
      8  C1'       32.0400  -21.1860   56.0500 C.3     1  DA1         0.2094
      9  N9        31.9480  -21.9960   54.8890 N.ar    1  DA1        -0.2714
     10  C8        30.8050  -22.2830   54.1890 C.ar    1  DA1         0.1815
     11  N7        30.9790  -23.1590   53.2280 N.ar    1  DA1        -0.2193
     12  C5        32.3290  -23.4680   53.3010 C.ar    1  DA1         0.1518
     13  C6        33.1420  -24.3370   52.5530 C.ar    1  DA1         0.1919
     14  N6        32.6910  -25.0850   51.5430 N.pl3   1  DA1        -0.1054
     15  N1        34.4490  -24.4110   52.8830 N.ar    1  DA1        -0.2040
     16  C2        34.8990  -23.6610   53.8950 C.ar    1  DA1         0.2016
     17  N3        34.2330  -22.8100   54.6720 N.ar    1  DA1        -0.2048
     18  C4        32.9380  -22.7580   54.3180 C.ar    1  DA1         0.1691
     19  P         31.0530  -16.4570   54.4850 P.3     2  DG2         0.2141
     20  OP1       30.9270  -14.9910   54.6550 O.3     2  DG2        -0.4373
     21  OP2       30.2530  -17.1690   53.4640 O.2     2  DG2        -0.5172
     22  O5'       32.5610  -16.8260   54.1180 O.3     2  DG2        -0.3114
     23  C5'       32.9120  -16.9040   52.7520 C.3     2  DG2         0.1811
     24  C4'       34.0800  -17.8240   52.5280 C.3     2  DG2         0.1746
     25  O4'       33.7510  -19.1720   52.9550 O.3     2  DG2        -0.3327
     26  C3'       34.4690  -17.9820   51.0710 C.3     2  DG2         0.1558
     27  O3'       35.2260  -16.8850   50.5830 O.3     2  DG2        -0.3138
     28  C2'       35.1800  -19.3300   51.0790 C.3     2  DG2         0.0865
     29  C1'       34.2730  -20.1050   52.0320 C.3     2  DG2         0.2094
     30  N9        32.9700  -20.7010   51.1850 N.ar    2  DG2        -0.2713
     31  C8        31.6510  -20.3950   51.4220 C.ar    2  DG2         0.1816
     32  N7        30.8210  -21.1090   50.7120 N.ar    2  DG2        -0.2173
     33  C5        31.6350  -21.9370   49.9620 C.ar    2  DG2         0.1748
     34  C6        31.3080  -22.9320   49.0040 C.ar    2  DG2         0.3023
     35  O6        30.1870  -23.2860   48.6200 O.2     2  DG2        -0.2633
     36  N1        32.4440  -23.5390   48.4760 N.ar    2  DG2        -0.1709
     37  C2        33.7360  -23.2260   48.8270 C.ar    2  DG2         0.2606
     38  N2        34.7010  -23.9210   48.2100 N.pl3   2  DG2        -0.0859
     39  N3        34.0550  -22.3040   49.7140 N.ar    2  DG2        -0.1918
     40  C4        32.9670  -21.7010   50.2400 C.ar    2  DG2         0.1722
     41  P         34.6140  -15.9680   49.4840 P.3     3  DC3         0.2141
     42  OP1       35.4290  -14.7290   49.3810 O.3     3  DC3        -0.4373
     43  OP2       33.1470  -15.9030   49.2990 O.2     3  DC3        -0.5172
     44  O5'       35.2040  -17.0560   48.4800 O.3     3  DC3        -0.3114
     45  C5'       36.6240  -17.3570   48.4500 C.3     3  DC3         0.1812
     46  C4'       36.9100  -18.4410   47.4320 C.3     3  DC3         0.1775
     47  O4'       36.3060  -19.6900   47.8650 O.3     3  DC3        -0.3326
     48  C3'       36.3260  -18.2030   46.0470 C.3     3  DC3         0.1864
     49  O3'       37.1730  -17.3970   45.2370 O.3     3  DC3        -0.2133
     50  C2'       36.2150  -19.6110   45.4940 C.3     3  DC3         0.0895
     51  C1'       35.8420  -20.4110   46.7380 C.3     3  DC3         0.2107
     52  N1        34.3920  -20.5760   46.8490 N.ar    3  DC3        -0.2556
     53  C2        33.7700  -21.5450   46.0530 C.ar    3  DC3         0.3531
     54  O2        34.4700  -22.2280   45.2870 O.2     3  DC3        -0.2443
     55  N3        32.4280  -21.7080   46.1400 N.ar    3  DC3        -0.1739
     56  C4        31.7170  -20.9500   46.9760 C.ar    3  DC3         0.1759
     57  N4        30.3970  -21.1460   47.0280 N.pl3   3  DC3        -0.1070
     58  C5        32.3280  -19.9630   47.7910 C.ar    3  DC3         0.0566
     59  C6        33.6530  -19.8050   47.7020 C.ar    3  DC3         0.0849
     60  P         36.5150  -16.4380   43.9540 P.3     4  DA4         0.3939
     61  OP1       37.8380  -16.0640   44.5380 O.3     4  DA4        -0.1496
     62  OP2       35.8100  -15.4600   43.0760 O.3     4  DA4        -0.1425
     63  O5'       36.6950  -17.8080   43.1370 O.3     4  DA4        -0.2926
     64  C5'       36.2190  -17.9170   41.7900 C.3     4  DA4         0.1828
     65  C4'       35.9510  -19.3610   41.4210 C.3     4  DA4         0.1747
     66  O4'       35.1570  -20.0010   42.4500 O.3     4  DA4        -0.3327
     67  C3'       35.1740  -19.5270   40.1170 C.3     4  DA4         0.1558
     68  O3'       36.0770  -19.7060   39.0270 O.3     4  DA4        -0.3138
     69  C2'       34.3650  -20.7840   40.3790 C.3     4  DA4         0.0865
     70  C1'       34.0330  -20.6300   41.8650 C.3     4  DA4         0.2094
     71  N9        33.0070  -19.7080   42.5970 N.ar    4  DA4        -0.2714
     72  C8        33.1530  -18.4240   43.0530 C.ar    4  DA4         0.1815
     73  N7        32.0180  -17.8280   43.3300 N.ar    4  DA4        -0.2193
     74  C5        31.0600  -18.7850   43.0350 C.ar    4  DA4         0.1518
     75  C6        29.6560  -18.7750   43.1160 C.ar    4  DA4         0.1919
     76  N6        28.9480  -17.7250   43.5360 N.pl3   4  DA4        -0.1054
     77  N1        29.0000  -19.8950   42.7450 N.ar    4  DA4        -0.2040
     78  C2        29.7110  -20.9470   42.3250 C.ar    4  DA4         0.2016
     79  N3        31.0300  -21.0770   42.2070 N.ar    4  DA4        -0.2048
     80  C4        31.6540  -19.9480   42.5820 C.ar    4  DA4         0.1691
     81  P         35.7280  -19.1850   37.4050 P.3     5  DG5         0.2141
     82  OP1       36.8260  -19.7790   36.5900 O.2     5  DG5        -0.5172
     83  OP2       35.4980  -17.7160   37.3440 O.3     5  DG5        -0.4373
     84  O5'       34.3640  -19.9450   37.0360 O.3     5  DG5        -0.3114
     85  C5'       34.3960  -21.2790   36.5110 C.3     5  DG5         0.1811
     86  C4'       33.1240  -22.0500   36.8460 C.3     5  DG5         0.1746
     87  O4'       32.6330  -21.7010   38.1640 O.3     5  DG5        -0.3327
     88  C3'       31.9180  -21.9120   35.9230 C.3     5  DG5         0.1558
     89  O3'       32.0610  -22.7790   34.7870 O.3     5  DG5        -0.3138
     90  C2'       30.7580  -22.3500   36.8230 C.3     5  DG5         0.0865
     91  C1'       31.2320  -21.9050   38.2080 C.3     5  DG5         0.2094
     92  N9        30.8190  -20.6090   38.6840 N.ar    5  DG5        -0.2713
     93  C8        31.5070  -19.4230   38.6080 C.ar    5  DG5         0.1816
     94  N7        30.7570  -18.3770   38.8300 N.ar    5  DG5        -0.2173
     95  C5        29.5010  -18.9010   39.0680 C.ar    5  DG5         0.1748
     96  C6        28.2730  -18.2560   39.3670 C.ar    5  DG5         0.3023
     97  O6        28.0530  -17.0430   39.4840 O.2     5  DG5        -0.2633
     98  N1        27.2340  -19.1660   39.5360 N.ar    5  DG5        -0.1709
     99  C2        27.3610  -20.5300   39.4300 C.ar    5  DG5         0.2606
    100  N2        26.2450  -21.2450   39.6270 N.pl3   5  DG5        -0.0859
    101  N3        28.4940  -21.1440   39.1520 N.ar    5  DG5        -0.1918
    102  C4        29.5170  -20.2800   38.9830 C.ar    5  DG5         0.1722
    103  P         31.3110  -22.4910   33.3460 P.3     6  DC6         0.2141
    104  OP1       31.8930  -23.3430   32.2870 O.2     6  DC6        -0.5172
    105  OP2       30.5960  -21.2490   32.9740 O.3     6  DC6        -0.4373
    106  O5'       30.3150  -23.4650   34.1560 O.3     6  DC6        -0.3114
    107  C5'       29.1700  -24.1430   33.4850 C.3     6  DC6         0.1811
    108  C4'       27.9690  -23.5880   34.1650 C.3     6  DC6         0.1746
    109  O4'       28.1560  -22.3040   34.9060 O.3     6  DC6        -0.3327
    110  C3'       27.0900  -22.9320   33.1000 C.3     6  DC6         0.1558
    111  O3'       26.7190  -23.6540   31.9330 O.3     6  DC6        -0.3138
    112  C2'       25.9800  -22.3910   33.9790 C.3     6  DC6         0.0866
    113  C1'       26.8280  -21.8490   35.1730 C.3     6  DC6         0.2106
    114  N1        26.9490  -20.6580   35.6130 N.ar    6  DC6        -0.2556
    115  C2        25.9150  -19.8430   36.0880 C.ar    6  DC6         0.3531
    116  O2        24.7990  -20.3510   36.2900 O.2     6  DC6        -0.2443
    117  N3        26.1590  -18.5300   36.3110 N.ar    6  DC6        -0.1739
    118  C4        27.3730  -18.0280   36.0790 C.ar    6  DC6         0.1759
    119  N4        27.5670  -16.7280   36.3140 N.pl3   6  DC6        -0.1070
    120  C5        28.4340  -18.8370   35.5980 C.ar    6  DC6         0.0566
    121  C6        28.1890  -20.1330   35.3790 C.ar    6  DC6         0.0849
    122  P         26.2830  -22.7160   30.4750 P.3     7  DA7         0.2141
    123  OP1       27.3200  -23.3710   29.6350 O.2     7  DA7        -0.5172
    124  OP2       26.2790  -21.2350   30.6120 O.3     7  DA7        -0.4373
    125  O5'       24.8630  -23.1250   29.8960 O.3     7  DA7        -0.3114
    126  C5'       23.9440  -22.1240   29.5080 C.3     7  DA7         0.1811
    127  C4'       22.8200  -22.0400   30.5040 C.3     7  DA7         0.1746
    128  O4'       23.3540  -21.9100   31.8490 O.3     7  DA7        -0.3327
    129  C3'       21.9600  -20.8060   30.3390 C.3     7  DA7         0.1558
    130  O3'       21.0040  -20.9500   29.3100 O.3     7  DA7        -0.3138
    131  C2'       21.3430  -20.6500   31.7190 C.3     7  DA7         0.0865
    132  C1'       22.5240  -21.0400   32.6090 C.3     7  DA7         0.2094
    133  N9        23.3580  -19.7590   32.9090 N.ar    7  DA7        -0.2714
    134  C8        24.6350  -19.4800   32.4950 C.ar    7  DA7         0.1815
    135  N7        25.1060  -18.3480   32.9620 N.ar    7  DA7        -0.2193
    136  C5        24.0690  -17.8490   33.7330 C.ar    7  DA7         0.1518
    137  C6        23.9380  -16.6770   34.4980 C.ar    7  DA7         0.1919
    138  N6        24.9000  -15.7590   34.6150 N.pl3   7  DA7        -0.1054
    139  N1        22.7700  -16.4790   35.1470 N.ar    7  DA7        -0.2040
    140  C2        21.8070  -17.4000   35.0300 C.ar    7  DA7         0.2016
    141  N3        21.8120  -18.5400   34.3420 N.ar    7  DA7        -0.2048
    142  C4        22.9850  -18.7070   33.7090 C.ar    7  DA7         0.1691
    143  P         20.5880  -19.7600   28.6820 P.3     8  DC8         0.2141
    144  OP1       19.6520  -20.5110   27.8180 O.2     8  DC8        -0.5172
    145  OP2       21.9850  -19.5270   28.2530 O.3     8  DC8        -0.4373
    146  O5'       19.9970  -18.2950   28.9510 O.3     8  DC8        -0.3114
    147  C5'       18.6220  -18.1490   29.2760 C.3     8  DC8         0.1811
    148  C4'       18.3720  -17.0160   30.2430 C.3     8  DC8         0.1746
    149  O4'       19.3740  -17.0200   31.2970 O.3     8  DC8        -0.3327
    150  C3'       18.4900  -15.6030   29.6930 C.3     8  DC8         0.1558
    151  O3'       17.4210  -15.1910   28.8640 O.3     8  DC8        -0.3138
    152  C2'       18.6300  -14.8010   30.9780 C.3     8  DC8         0.0866
    153  C1'       19.6210  -15.6920   31.7160 C.3     8  DC8         0.2106
    154  N1        21.0760  -15.3200   31.4180 N.ar    8  DC8        -0.2556
    155  C2        21.7080  -14.2060   31.9820 C.ar    8  DC8         0.3531
    156  O2        21.0070  -13.3130   32.4880 O.2     8  DC8        -0.2443
    157  N3        23.0610  -14.1340   31.9600 N.ar    8  DC8        -0.1739
    158  C4        23.7720  -15.1160   31.4050 C.ar    8  DC8         0.1759
    159  N4        25.1020  -15.0010   31.4060 N.pl3   8  DC8        -0.1070
    160  C5        23.1500  -16.2530   30.8280 C.ar    8  DC8         0.0566
    161  C6        21.8150  -16.3200   30.8520 C.ar    8  DC8         0.0849
    162  P         17.8000  -14.2450   27.5180 P.3     9  DA9         0.2141
    163  OP1       16.3680  -13.9930   27.2450 O.3     9  DA9        -0.4373
    164  OP2       18.8070  -14.1340   26.4360 O.2     9  DA9        -0.5172
    165  O5'       18.3080  -13.2130   28.6300 O.3     9  DA9        -0.3114
    166  C5'       17.6460  -11.9640   28.7690 C.3     9  DA9         0.1811
    167  C4'       18.6120  -10.8100   28.6800 C.3     9  DA9         0.1746
    168  O4'       19.6860  -11.0030   29.6360 O.3     9  DA9        -0.3327
    169  C3'       19.3240  -10.6550   27.3450 C.3     9  DA9         0.1558
    170  O3'       18.5590   -9.9620   26.3780 O.3     9  DA9        -0.3138
    171  C2'       20.6040   -9.9320   27.7250 C.3     9  DA9         0.0865
    172  C1'       20.9040  -10.5440   29.0930 C.3     9  DA9         0.2094
    173  N9        21.9020  -11.5630   28.9870 N.ar    9  DA9        -0.2714
    174  C8        21.7150  -12.8870   28.6860 C.ar    9  DA9         0.1815
    175  N7        22.8320  -13.5610   28.5480 N.ar    9  DA9        -0.2193
    176  C5        23.8200  -12.6150   28.7730 C.ar    9  DA9         0.1518
    177  C6        25.2230  -12.6950   28.7730 C.ar    9  DA9         0.1919
    178  N6        25.9000  -13.8200   28.5300 N.pl3   9  DA9        -0.1054
    179  N1        25.9150  -11.5650   29.0340 N.ar    9  DA9        -0.2040
    180  C2        25.2360  -10.4390   29.2790 C.ar    9  DA9         0.2016
    181  N3        23.9210  -10.2390   29.3080 N.ar    9  DA9        -0.2048
    182  C4        23.2620  -11.3800   29.0430 C.ar    9  DA9         0.1691
    183  P         18.8190  -10.3350   24.7850 P.3    10  DG10        0.2141
    184  OP1       17.6970   -9.6640   24.0930 O.2    10  DG10       -0.5172
    185  OP2       19.3290  -11.6430   24.3240 O.3    10  DG10       -0.4373
    186  O5'       20.1010   -9.3880   24.7360 O.3    10  DG10       -0.3114
    187  C5'       19.9830   -7.9740   24.7060 C.3    10  DG10        0.1811
    188  C4'       21.3530   -7.3470   24.6780 C.3    10  DG10        0.1746
    189  O4'       22.1540   -7.9220   25.7430 O.3    10  DG10       -0.3327
    190  C3'       22.1610   -7.5840   23.4100 C.3    10  DG10        0.1558
    191  O3'       21.8770   -6.6230   22.4070 O.3    10  DG10       -0.3138
    192  C2'       23.5920   -7.4860   23.9090 C.3    10  DG10        0.0865
    193  C1'       23.4870   -8.0670   25.3180 C.3    10  DG10        0.2094
    194  N9        23.8550   -9.4940   25.3670 N.ar   10  DG10       -0.2713
    195  C8        23.0030  -10.5700   25.4270 C.ar   10  DG10        0.1816
    196  N7        23.6240  -11.7190   25.4210 N.ar   10  DG10       -0.2173
    197  C5        24.9640  -11.3840   25.3550 C.ar   10  DG10        0.1748
    198  C6        26.1190  -12.2060   25.3160 C.ar   10  DG10        0.3023
    199  O6        26.1820  -13.4420   25.3350 O.2    10  DG10       -0.2633
    200  N1        27.2900  -11.4560   25.2490 N.ar   10  DG10       -0.1709
    201  C2        27.3410  -10.0830   25.2220 C.ar   10  DG10        0.2606
    202  N2        28.5630   -9.5380   25.1570 N.pl3  10  DG10       -0.0859
    203  N3        26.2760   -9.3060   25.2560 N.ar   10  DG10       -0.1918
    204  C4        25.1280  -10.0130   25.3210 C.ar   10  DG10        0.1722
    205  P         22.2060   -6.8590   20.7770 P.3    11  DA11        0.2141
    206  OP1       21.2740   -5.9420   20.0550 O.2    11  DA11       -0.5172
    207  OP2       22.1810   -8.3180   20.4550 O.3    11  DA11       -0.4373
    208  O5'       23.6940   -6.2910   20.6190 O.3    11  DA11       -0.3114
    209  C5'       24.3580   -6.2960   19.3610 C.3    11  DA11        0.1811
    210  C4'       25.8310   -6.5840   19.5360 C.3    11  DA11        0.1746
    211  O4'       26.0620   -7.3190   20.7680 O.3    11  DA11       -0.3327
    212  C3'       26.3990   -7.5130   18.4820 C.3    11  DA11        0.1558
    213  O3'       26.6300   -6.8430   17.2500 O.3    11  DA11       -0.3138
    214  C2'       27.6590   -8.0440   19.1570 C.3    11  DA11        0.0865
    215  C1'       27.1690   -8.2080   20.6000 C.3    11  DA11        0.2094
    216  N9        26.6340   -9.5340   20.8510 N.ar   11  DA11       -0.2714
    217  C8        25.3160   -9.8490   21.0570 C.ar   11  DA11        0.1815
    218  N7        25.1080  -11.1210   21.3030 N.ar   11  DA11       -0.2193
    219  C5        26.3750  -11.6790   21.2550 C.ar   11  DA11        0.1518
    220  C6        26.8360  -12.9960   21.4320 C.ar   11  DA11        0.1919
    221  N6        26.0360  -14.0280   21.7070 N.pl3  11  DA11       -0.1054
    222  N1        28.1630  -13.2160   21.3170 N.ar   11  DA11       -0.2040
    223  C2        28.9650  -12.1800   21.0420 C.ar   11  DA11        0.2016
    224  N3        28.6500  -10.9000   20.8550 N.ar   11  DA11       -0.2048
    225  C4        27.3250  -10.7150   20.9760 C.ar   11  DA11        0.1691
    226  P         26.2250   -7.5610   15.9550 P.3    12  DG12        0.2141
    227  OP1       26.3630   -6.4550   14.9890 O.2    12  DG12       -0.5172
    228  OP2       24.9080   -8.1280   16.3130 O.3    12  DG12       -0.4373
    229  O5'       27.0890   -8.7590   15.3770 O.3    12  DG12       -0.3114
    230  C5'       28.4110   -8.5700   14.9480 C.3    12  DG12        0.1811
    231  C4'       29.1360   -9.8880   15.1280 C.3    12  DG12        0.1746
    232  O4'       28.9160  -10.3550   16.4750 O.3    12  DG12       -0.3327
    233  C3'       28.6430  -11.0230   14.2380 C.3    12  DG12        0.1558
    234  O3'       29.2780  -10.9550   12.9640 O.3    12  DG12       -0.3138
    235  C2'       29.0670  -12.2360   15.0530 C.3    12  DG12        0.0865
    236  C1'       28.8530  -11.7640   16.4850 C.3    12  DG12        0.2094
    237  N9        27.6470  -12.0820   17.1390 N.ar   12  DG12       -0.2713
    238  C8        26.4870  -11.3560   17.2640 C.ar   12  DG12        0.1816
    239  N7        25.4810  -12.0620   17.7020 N.ar   12  DG12       -0.2173
    240  C5        26.0030  -13.3300   17.8790 C.ar   12  DG12        0.1748
    241  C6        25.3900  -14.5260   18.3340 C.ar   12  DG12        0.3023
    242  O6        24.2160  -14.7000   18.6830 O.2    12  DG12       -0.2633
    243  N1        26.2860  -15.5910   18.3630 N.ar   12  DG12       -0.1709
    244  C2        27.6090  -15.5140   18.0000 C.ar   12  DG12        0.2606
    245  N2        28.3150  -16.6490   18.0960 N.pl3  12  DG12       -0.0859
    246  N3        28.1920  -14.4110   17.5750 N.ar   12  DG12       -0.1918
    247  C4        27.3420  -13.3630   17.5370 C.ar   12  DG12        0.1722
    248  P         28.5030  -11.3380   11.4500 P.3    13  DG13        0.2141
    249  OP1       29.5020  -10.7250   10.4980 O.2    13  DG13       -0.5172
    250  OP2       27.0310  -11.0960   11.2690 O.3    13  DG13       -0.4373
    251  O5'       28.7930  -12.9200   11.5230 O.3    13  DG13       -0.3114
    252  C5'       30.1150  -13.4240   11.8000 C.3    13  DG13        0.1811
    253  C4'       30.1570  -14.8930   12.2240 C.3    13  DG13        0.1746
    254  O4'       29.7760  -15.0230   13.6270 O.3    13  DG13       -0.3327
    255  C3'       29.2610  -15.9110   11.5010 C.3    13  DG13        0.1558
    256  O3'       29.7480  -16.2900   10.1860 O.3    13  DG13       -0.3138
    257  C2'       29.2670  -17.0570   12.5300 C.3    13  DG13        0.0865
    258  C1'       29.1310  -16.2740   13.8230 C.3    13  DG13        0.2094
    259  N9        27.7170  -16.1130   14.1740 N.ar   13  DG13       -0.2713
    260  C8        26.9140  -15.0060   14.0420 C.ar   13  DG13        0.1816
    261  N7        25.6760  -15.2210   14.3930 N.ar   13  DG13       -0.2173
    262  C5        25.6560  -16.5480   14.7830 C.ar   13  DG13        0.1748
    263  C6        24.5910  -17.3530   15.2640 C.ar   13  DG13        0.3023
    264  O6        23.4100  -17.0320   15.4450 O.2    13  DG13       -0.2633
    265  N1        25.0060  -18.6520   15.5430 N.ar   13  DG13       -0.1709
    266  C2        26.2890  -19.1180   15.3810 C.ar   13  DG13        0.2606
    267  N2        26.4970  -20.4010   15.7050 N.pl3  13  DG13       -0.0859
    268  N3        27.2880  -18.3820   14.9350 N.ar   13  DG13       -0.1918
    269  C4        26.9080  -17.1170   14.6560 C.ar   13  DG13        0.1722
    270  P         28.7730  -16.2010    8.7340 P.3    14  DT14        0.2141
    271  OP1       29.4920  -16.6010    7.5030 O.2    14  DT14       -0.5172
    272  OP2       27.5510  -15.3690    8.6590 O.3    14  DT14       -0.4373
    273  O5'       28.2990  -17.5140    9.5130 O.3    14  DT14       -0.3114
    274  C5'       29.1190  -18.6730    9.5590 C.3    14  DT14        0.1811
    275  C4'       28.2840  -19.9070    9.7850 C.3    14  DT14        0.1746
    276  O4'       27.7650  -19.9120   11.1410 O.3    14  DT14       -0.3327
    277  C3'       27.0350  -20.0150    8.9260 C.3    14  DT14        0.1558
    278  O3'       27.2890  -20.4700    7.6120 O.3    14  DT14       -0.3138
    279  C2'       26.1560  -20.9540    9.7420 C.3    14  DT14        0.0866
    280  C1'       26.4790  -20.5000   11.1660 C.3    14  DT14        0.2106
    281  N1        25.4910  -19.5130   11.5810 N.ar   14  DT14       -0.2559
    282  C2        24.2640  -20.0000   11.9890 C.ar   14  DT14        0.3545
    283  O2        24.0090  -21.1900   12.0520 O.2    14  DT14       -0.2443
    284  N3        23.3390  -19.0400   12.3220 N.ar   14  DT14       -0.1533
    285  C4        23.5150  -17.6730   12.2890 C.ar   14  DT14        0.2804
    286  O4        22.5890  -16.9360   12.6190 O.2    14  DT14       -0.2654
    287  C5        24.8150  -17.2460   11.8540 C.ar   14  DT14        0.0534
    288  C6        25.7330  -18.1580   11.5240 C.ar   14  DT14        0.0824
    289  C7        25.1050  -15.7760   11.7830 C.3    14  DT14        0.0377
    290  P         26.3120  -19.8790    6.3220 P.3    15  DC15        0.2141
    291  OP1       26.9800  -20.4740    5.1410 O.2    15  DC15       -0.5172
    292  OP2       26.1040  -18.4150    6.4210 O.3    15  DC15       -0.4373
    293  O5'       24.8960  -20.6100    6.5070 O.3    15  DC15       -0.3114
    294  C5'       24.7460  -22.0190    6.2990 C.3    15  DC15        0.1811
    295  C4'       23.3640  -22.5170    6.7040 C.3    15  DC15        0.1746
    296  O4'       23.1710  -22.3430    8.1340 O.3    15  DC15       -0.3327
    297  C3'       22.1700  -21.7990    6.0800 C.3    15  DC15        0.1558
    298  O3'       21.8950  -22.2520    4.7500 O.3    15  DC15       -0.3138
    299  C2'       21.0740  -22.1800    7.0640 C.3    15  DC15        0.0866
    300  C1'       21.8130  -22.0370    8.3940 C.3    15  DC15        0.2106
    301  N1        21.7100  -20.6520    8.8790 N.ar   15  DC15       -0.2556
    302  C2        20.5990  -20.2850    9.6460 C.ar   15  DC15        0.3531
    303  O2        19.7480  -21.1500    9.9180 O.2    15  DC15       -0.2443
    304  N3        20.4830  -19.0040   10.0690 N.ar   15  DC15       -0.1739
    305  C4        21.4210  -18.1100    9.7520 C.ar   15  DC15        0.1759
    306  N4        21.2640  -16.8590   10.1910 N.pl3  15  DC15       -0.1070
    307  C5        22.5540  -18.4610    8.9760 C.ar   15  DC15        0.0566
    308  C6        22.6650  -19.7280    8.5600 C.ar   15  DC15        0.0849
    309  P         21.1650  -21.2450    3.4890 P.3    16  DA16        0.2141
    310  OP1       20.8190  -22.0600    2.3120 O.2    16  DA16       -0.5172
    311  OP2       21.4820  -19.8030    3.3460 O.3    16  DA16       -0.4373
    312  O5'       19.9680  -21.2950    4.5130 O.3    16  DA16       -0.3114
    313  C5'       19.2500  -22.4860    4.7000 C.3    16  DA16        0.1811
    314  C4'       17.8280  -22.1620    5.0320 C.3    16  DA16        0.1746
    315  O4'       17.8150  -21.6400    6.3790 O.3    16  DA16       -0.3327
    316  C3'       17.1280  -21.1350    4.1440 C.3    16  DA16        0.1558
    317  O3'       16.5650  -21.8180    2.9740 O.3    16  DA16       -0.3138
    318  C2'       16.1350  -20.5230    5.1330 C.3    16  DA16        0.0865
    319  C1'       16.8890  -20.5890    6.4730 C.3    16  DA16        0.2094
    320  N9        17.6250  -19.3010    6.8240 N.ar   16  DA16       -0.2711
    321  C8        18.8140  -18.8320    6.3300 C.ar   16  DA16        0.1812
    322  N7        19.1020  -17.6110    6.7150 N.ar   16  DA16       -0.2232
    323  C5        18.0280  -17.2540    7.5150 C.ar   16  DA16        0.1366
    324  C6        17.7290  -16.0800    8.2280 C.3    16  DA16        0.2487
    325  N6        18.5210  -15.0050    8.2490 N.3    16  DA16       -0.0984
    326  N1        16.5740  -16.0480    8.9270 N.2    16  DA16       -0.1656
    327  C2        15.7820  -17.1260    8.9070 C.1    16  DA16        0.2007
    328  N3        15.9550  -18.2850    8.2760 N.2    16  DA16       -0.1443
    329  C4        17.1100  -18.2840    7.5910 C.ar   16  DA16        0.1762
    330  P         15.5220  -21.0770    1.9370 P.3    17  DG17        0.2141
    331  OP1       15.0550  -21.6560    0.6490 O.2    17  DG17       -0.5172
    332  OP2       16.0910  -19.7050    1.9670 O.3    17  DG17       -0.4373
    333  O5'       14.3200  -21.1710    2.9690 O.3    17  DG17       -0.3114
    334  C5'       13.4310  -22.2710    2.9210 C.3    17  DG17        0.1811
    335  C4'       12.2010  -21.9670    3.7200 C.3    17  DG17        0.1746
    336  O4'       12.5320  -22.0110    5.1340 O.3    17  DG17       -0.3327
    337  C3'       11.6520  -20.5670    3.5330 C.3    17  DG17        0.1558
    338  O3'       10.9310  -20.3610    2.3360 O.3    17  DG17       -0.3138
    339  C2'       10.8550  -20.3670    4.8100 C.3    17  DG17        0.0865
    340  C1'       11.7990  -21.0080    5.8300 C.3    17  DG17        0.2094
    341  N9        12.6890  -20.0740    6.4500 N.ar   17  DG17       -0.2713
    342  C8        13.9940  -19.7950    6.1260 C.ar   17  DG17        0.1816
    343  N7        14.4960  -18.8070    6.8170 N.ar   17  DG17       -0.2174
    344  C5        13.4650  -18.4110    7.6480 C.ar   17  DG17        0.1714
    345  C6        13.4090  -17.3830    8.6240 C.ar   17  DG17        0.2655
    346  O6        14.3020  -16.5920    8.9560 O.3    17  DG17       -0.3700
    347  N1        12.1640  -17.3180    9.2420 N.ar   17  DG17       -0.1738
    348  C2        11.1020  -18.1430    8.9550 C.ar   17  DG17        0.2605
    349  N2         9.9810  -17.9290    9.6570 N.pl3  17  DG17       -0.0859
    350  N3        11.1380  -19.1020    8.0500 N.ar   17  DG17       -0.1918
    351  C4        12.3380  -19.1820    7.4370 C.ar   17  DG17        0.1721
    352  P         11.2350  -18.9660    1.4410 P.3    18  DA18        0.2141
    353  OP1       11.1000  -19.2590   -0.0070 O.2    18  DA18       -0.5172
    354  OP2       12.4920  -18.3560    1.9520 O.3    18  DA18       -0.4373
    355  O5'       10.0250  -18.0520    1.9240 O.3    18  DA18       -0.3114
    356  C5'        8.7400  -18.6070    2.1390 C.3    18  DA18        0.1811
    357  C4'        8.1100  -17.9960    3.3580 C.3    18  DA18        0.1746
    358  O4'        8.8380  -18.3940    4.5480 O.3    18  DA18       -0.3327
    359  C3'        8.1140  -16.4790    3.4210 C.3    18  DA18        0.1558
    360  O3'        7.0440  -15.9450    2.6500 O.3    18  DA18       -0.3138
    361  C2'        7.9000  -16.2420    4.9090 C.3    18  DA18        0.0865
    362  C1'        8.7490  -17.3620    5.5180 C.3    18  DA18        0.2094
    363  N9        10.0750  -16.9330    5.8650 N.ar   18  DA18       -0.2714
    364  C8        11.2300  -17.2810    5.2160 C.ar   18  DA18        0.1815
    365  N7        12.3000  -16.6830    5.6820 N.ar   18  DA18       -0.2193
    366  C5        11.8140  -15.8860    6.7070 C.ar   18  DA18        0.1518
    367  C6        12.4460  -15.0020    7.5990 C.ar   18  DA18        0.1919
    368  N6        13.7600  -14.7640    7.5970 N.pl3  18  DA18       -0.1054
    369  N1        11.6720  -14.3630    8.5020 N.ar   18  DA18       -0.2040
    370  C2        10.3560  -14.6020    8.5030 C.ar   18  DA18        0.2016
    371  N3         9.6480  -15.4100    7.7170 N.ar   18  DA18       -0.2048
    372  C4        10.4450  -16.0290    6.8310 C.ar   18  DA18        0.1691
    373  P          7.1500  -14.5030    1.9610 P.3    19  DT19        0.2141
    374  OP1        5.8270  -14.1350    1.4110 O.3    19  DT19       -0.4373
    375  OP2        8.3880  -14.1460    1.2240 O.2    19  DT19       -0.5172
    376  O5'        7.2150  -13.9340    3.4550 O.3    19  DT19       -0.3114
    377  C5'        5.9940  -13.7340    4.1620 C.3    19  DT19        0.1811
    378  C4'        6.2120  -12.9920    5.4710 C.3    19  DT19        0.1746
    379  O4'        7.2180  -13.6510    6.2840 O.3    19  DT19       -0.3327
    380  C3'        6.7370  -11.5740    5.3350 C.3    19  DT19        0.1558
    381  O3'        5.6720  -10.7110    5.0010 O.3    19  DT19       -0.3138
    382  C2'        7.2350  -11.3430    6.7540 C.3    19  DT19        0.0866
    383  C1'        7.9440  -12.6680    7.0030 C.3    19  DT19        0.2106
    384  N1         9.3260  -12.6870    6.6280 N.ar   19  DT19       -0.2559
    385  C2        10.2850  -12.0610    7.4020 C.ar   19  DT19        0.3545
    386  O2        10.0180  -11.4400    8.4150 O.2    19  DT19       -0.2443
    387  N3        11.5740  -12.1890    6.9450 N.ar   19  DT19       -0.1533
    388  C4        11.9910  -12.8640    5.8170 C.ar   19  DT19        0.2804
    389  O4        13.1870  -12.8910    5.5360 O.2    19  DT19       -0.2654
    390  C5        10.9370  -13.4860    5.0660 C.ar   19  DT19        0.0534
    391  C6         9.6740  -13.3780    5.4880 C.ar   19  DT19        0.0824
    392  C7        11.2890  -14.2440    3.8210 C.3    19  DT19        0.0377
    393  P          5.9440   -9.4900    4.0380 P.3    20  DG20        0.2141
    394  OP1        4.5880   -9.1200    3.5750 O.3    20  DG20       -0.4373
    395  OP2        6.9180  -10.0710    3.0850 O.2    20  DG20       -0.5172
    396  O5'        6.6900   -8.2080    4.6490 O.3    20  DG20       -0.3114
    397  C5'        6.0450   -7.4370    5.6540 C.3    20  DG20        0.1811
    398  C4'        6.9780   -6.9860    6.7560 C.3    20  DG20        0.1746
    399  O4'        7.7850   -8.1000    7.2280 O.3    20  DG20       -0.3327
    400  C3'        8.0110   -5.9220    6.3990 C.3    20  DG20        0.1558
    401  O3'        7.4920   -4.6040    6.3280 O.3    20  DG20       -0.3138
    402  C2'        9.0380   -6.0940    7.5110 C.3    20  DG20        0.0865
    403  C1'        9.0350   -7.6160    7.6850 C.3    20  DG20        0.2094
    404  N9        10.1220   -8.1340    6.9190 N.ar   20  DG20       -0.2713
    405  C8         9.9900   -8.9920    5.8540 C.ar   20  DG20        0.1816
    406  N7        11.1340   -9.3640    5.3480 N.ar   20  DG20       -0.2173
    407  C5        12.0780   -8.7180    6.1230 C.ar   20  DG20        0.1748
    408  C6        13.4950   -8.7310    6.0540 C.ar   20  DG20        0.3023
    409  O6        14.2170   -9.3460    5.2580 O.2    20  DG20       -0.2633
    410  N1        14.0720   -7.9290    7.0340 N.ar   20  DG20       -0.1709
    411  C2        13.3710   -7.2040    7.9670 C.ar   20  DG20        0.2606
    412  N2        14.1030   -6.4910    8.8340 N.pl3  20  DG20       -0.0859
    413  N3        12.0550   -7.1810    8.0440 N.ar   20  DG20       -0.1918
    414  C4        11.4730   -7.9520    7.1010 C.ar   20  DG20        0.1722
    415  P          8.0730   -3.4790    5.1920 P.3    21  DG21        0.2141
    416  OP1        7.2780   -2.2250    5.2320 O.3    21  DG21       -0.4373
    417  OP2        8.2760   -4.1890    3.9000 O.2    21  DG21       -0.5172
    418  O5'        9.4880   -3.2090    5.8690 O.3    21  DG21       -0.3114
    419  C5'        9.5660   -2.6520    7.1720 C.3    21  DG21        0.1811
    420  C4'       11.0030   -2.4980    7.5990 C.3    21  DG21        0.1746
    421  O4'       11.6440   -3.7950    7.6420 O.3    21  DG21       -0.3327
    422  C3'       11.8940   -1.6730    6.6920 C.3    21  DG21        0.1558
    423  O3'       11.6970   -0.2810    6.9650 O.3    21  DG21       -0.3138
    424  C2'       13.2940   -2.1840    7.0650 C.3    21  DG21        0.0865
    425  C1'       13.0210   -3.6620    7.3340 C.3    21  DG21        0.2094
    426  N9        13.2730   -4.5990    6.2840 N.ar   21  DG21       -0.2713
    427  C8        12.3500   -5.2680    5.5190 C.ar   21  DG21        0.1816
    428  N7        12.8860   -5.9560    4.5480 N.ar   21  DG21       -0.2173
    429  C5        14.2440   -5.7300    4.6780 C.ar   21  DG21        0.1748
    430  C6        15.3370   -6.2080    3.9100 C.ar   21  DG21        0.3023
    431  O6        15.3120   -6.9570    2.9250 O.2    21  DG21       -0.2633
    432  N1        16.5550   -5.7320    4.3850 N.ar   21  DG21       -0.1709
    433  C2        16.7030   -4.8980    5.4680 C.ar   21  DG21        0.2606
    434  N2        17.9590   -4.5460    5.7760 N.pl3  21  DG21       -0.0859
    435  N3        15.6970   -4.4450    6.1900 N.ar   21  DG21       -0.1918
    436  C4        14.5040   -4.8930    5.7460 C.ar   21  DG21        0.1722
    437  P         12.2580    0.9000    5.8900 P.3    22  DT22        0.2141
    438  OP1       11.8170    2.2600    6.2690 O.3    22  DT22       -0.4373
    439  OP2       11.4050    0.0730    5.0060 O.2    22  DT22       -0.5172
    440  O5'       13.7210    1.0120    5.2410 O.3    22  DT22       -0.3114
    441  C5'       14.6710    1.9320    5.7670 C.3    22  DT22        0.1811
    442  C4'       16.0830    1.6120    5.3040 C.3    22  DT22        0.1746
    443  O4'       16.3420    0.1900    5.4550 O.3    22  DT22       -0.3327
    444  C3'       16.3850    1.8800    3.8370 C.3    22  DT22        0.1558
    445  O3'       16.6900    3.2500    3.6160 O.3    22  DT22       -0.3138
    446  C2'       17.6210    1.0100    3.6580 C.3    22  DT22        0.0866
    447  C1'       17.2000   -0.2460    4.4150 C.3    22  DT22        0.2106
    448  N1        16.4330   -1.1960    3.5270 N.ar   22  DT22       -0.2559
    449  C2        17.1810   -2.0790    2.7720 C.ar   22  DT22        0.3545
    450  O2        18.3980   -2.0400    2.7160 O.2    22  DT22       -0.2443
    451  N3        16.4510   -3.0160    2.0810 N.ar   22  DT22       -0.1533
    452  C4        15.0790   -3.1540    2.0680 C.ar   22  DT22        0.2804
    453  O4        14.5670   -4.0470    1.3970 O.2    22  DT22       -0.2654
    454  C5        14.3730   -2.1990    2.8750 C.ar   22  DT22        0.0534
    455  C6        15.0580   -1.2780    3.5580 C.ar   22  DT22        0.0824
    456  C7        12.8750   -2.2660    2.9260 C.3    22  DT22        0.0377
    457  P         16.2910    3.7990    2.3680 P.3    23  DG23        0.2141
    458  OP1       15.9310    5.2010    2.6600 O.3    23  DG23       -0.4373
    459  OP2       15.2330    2.8540    1.9570 O.2    23  DG23       -0.5172
    460  O5'       17.3570    3.7690    1.1720 O.3    23  DG23       -0.3114
    461  C5'       18.3480    2.7580    1.1420 C.3    23  DG23        0.1811
    462  C4'       18.8910    2.5360   -0.2420 C.3    23  DG23        0.1746
    463  O4'       19.2200    1.1340   -0.3790 O.3    23  DG23       -0.3327
    464  C3'       17.9430    2.8120   -1.3990 C.3    23  DG23        0.1558
    465  O3'       17.9480    4.1700   -1.7930 O.3    23  DG23       -0.3138
    466  C2'       18.4270    1.8720   -2.4990 C.3    23  DG23        0.0865
    467  C1'       18.9410    0.6900   -1.6890 C.3    23  DG23        0.2094
    468  N9        17.9010   -0.2090   -1.5160 N.ar   23  DG23       -0.2713
    469  C8        16.9370   -0.1650   -0.5380 C.ar   23  DG23        0.1816
    470  N7        16.0470   -1.1130   -0.6480 N.ar   23  DG23       -0.2173
    471  C5        16.4450   -1.8280   -1.7620 C.ar   23  DG23        0.1748
    472  C6        15.8720   -2.9700   -2.3790 C.ar   23  DG23        0.3023
    473  O6        14.8580   -3.5950   -2.0430 O.2    23  DG23       -0.2633
    474  N1        16.5960   -3.3780   -3.4960 N.ar   23  DG23       -0.1709
    475  C2        17.7340   -2.7610   -3.9600 C.ar   23  DG23        0.2606
    476  N2        18.2940   -3.3010   -5.0510 N.pl3  23  DG23       -0.0859
    477  N3        18.2770   -1.7000   -3.3990 N.ar   23  DG23       -0.1918
    478  C4        17.5900   -1.2860   -2.3130 C.ar   23  DG23        0.1722
    479  P         16.5790    4.8720   -2.2920 P.3    24  DC24        0.2141
    480  OP1       16.8090    6.2580   -1.7900 O.2    24  DC24       -0.5172
    481  OP2       15.4030    4.1360   -1.7800 O.3    24  DC24       -0.4373
    482  O5'       16.4220    4.8850   -3.8900 O.3    24  DC24       -0.3114
    483  C5'       17.5380    4.6260   -4.7190 C.3    24  DC24        0.1811
    484  C4'       17.3120    3.4160   -5.5850 C.3    24  DC24        0.1746
    485  O4'       17.1950    2.2190   -4.7900 O.3    24  DC24       -0.3327
    486  C3'       16.0090    3.4060   -6.3380 C.3    24  DC24        0.1558
    487  O3'       15.9220    4.4100   -7.3520 O.3    24  DC24       -0.3138
    488  C2'       16.0090    1.9720   -6.8450 C.3    24  DC24        0.0866
    489  C1'       16.4920    1.2410   -5.5740 C.3    24  DC24        0.2106
    490  N1        15.4320    0.6350   -4.9580 N.ar   24  DC24       -0.2556
    491  C2        14.8150   -0.5560   -5.3590 C.ar   24  DC24        0.3531
    492  O2        15.1510   -1.0690   -6.4400 O.2    24  DC24       -0.2443
    493  N3        13.8740   -1.1120   -4.5600 N.ar   24  DC24       -0.1739
    494  C4        13.5450   -0.5260   -3.4090 C.ar   24  DC24        0.1759
    495  N4        12.6110   -1.1100   -2.6540 N.pl3  24  DC24       -0.1070
    496  C5        14.1580    0.6810   -2.9850 C.ar   24  DC24        0.0566
    497  C6        15.0880    1.2270   -3.7770 C.ar   24  DC24        0.0849
    498  P         14.5780    5.0820   -7.4350 P.3    25  DT25        0.2141
    499  OP1       14.9110    6.3250   -8.1770 O.2    25  DT25       -0.5172
    500  OP2       13.5650    5.1230   -6.3520 O.3    25  DT25       -0.4373
    501  O5'       14.1440    3.9400   -8.4600 O.3    25  DT25       -0.3114
    502  C5'       15.0150    3.5400   -9.5360 C.3    25  DT25        0.1811
    503  C4'       14.5830    2.2060  -10.0940 C.3    25  DT25        0.1746
    504  O4'       14.7060    1.2000   -9.0570 O.3    25  DT25       -0.3327
    505  C3'       13.1340    2.0910  -10.5560 C.3    25  DT25        0.1558
    506  O3'       12.9170    2.5630  -11.8850 O.3    25  DT25       -0.3138
    507  C2'       12.8720    0.5940  -10.4500 C.3    25  DT25        0.0866
    508  C1'       13.6870    0.2240   -9.2130 C.3    25  DT25        0.2106
    509  N1        12.8660    0.2140   -8.0190 N.ar   25  DT25       -0.2559
    510  C2        12.1680   -0.9410   -7.7200 C.ar   25  DT25        0.3545
    511  O2        12.2650   -1.9630   -8.3750 O.2    25  DT25       -0.2443
    512  N3        11.3460   -0.8560   -6.6220 N.ar   25  DT25       -0.1533
    513  C4        11.1570    0.2430   -5.8100 C.ar   25  DT25        0.2804
    514  O4        10.3850    0.1660   -4.8580 O.2    25  DT25       -0.2654
    515  C5        11.9160    1.4030   -6.1860 C.ar   25  DT25        0.0534
    516  C6        12.7220    1.3480   -7.2490 C.ar   25  DT25        0.0824
    517  C7        11.7780    2.6510   -5.3650 C.3    25  DT25        0.0377
    518  P         11.4440    3.2140  -12.2340 P.3    26  DA26        0.2141
    519  OP1       11.7030    3.9360  -13.5170 O.2    26  DA26       -0.5172
    520  OP2       10.2100    3.5320  -11.4430 O.3    26  DA26       -0.4373
    521  O5'       11.4190    1.6420  -12.4980 O.3    26  DA26       -0.3114
    522  C5'       12.0570    1.0570  -13.6310 C.3    26  DA26        0.1811
    523  C4'       11.4530   -0.3000  -13.9110 C.3    26  DA26        0.1746
    524  O4'       11.6670   -1.1710  -12.7630 O.3    26  DA26       -0.3327
    525  C3'        9.9420   -0.2540  -14.0740 C.3    26  DA26        0.1558
    526  O3'        9.5390    0.0920  -15.3840 O.3    26  DA26       -0.3138
    527  C2'        9.4870   -1.6390  -13.6130 C.3    26  DA26        0.0865
    528  C1'       10.4850   -1.9220  -12.4930 C.3    26  DA26        0.2094
    529  N9         9.9260   -1.4880  -11.2050 N.ar   26  DA26       -0.2714
    530  C8         9.7300   -0.2060  -10.7610 C.ar   26  DA26        0.1815
    531  N7         9.0590   -0.1330   -9.6360 N.ar   26  DA26       -0.2193
    532  C5         8.7960   -1.4570   -9.3200 C.ar   26  DA26        0.1518
    533  C6         8.1170   -2.0560   -8.2440 C.ar   26  DA26        0.1919
    534  N6         7.5590   -1.3670   -7.2460 N.pl3  26  DA26       -0.1054
    535  N1         8.0320   -3.4030   -8.2290 N.ar   26  DA26       -0.2040
    536  C2         8.5930   -4.0930   -9.2290 C.ar   26  DA26        0.2016
    537  N3         9.2560   -3.6440  -10.2920 N.ar   26  DA26       -0.2048
    538  C4         9.3220   -2.3030  -10.2780 C.ar   26  DA26        0.1691
    539  P          8.1210    0.6190  -15.6910 P.3    27  DT27        0.2141
    540  OP1        8.0930    0.9370  -17.1360 O.2    27  DT27       -0.5172
    541  OP2        7.6910    1.6120  -14.6810 O.3    27  DT27       -0.4373
    542  O5'        7.1560   -0.6300  -15.4450 O.3    27  DT27       -0.3114
    543  C5'        7.4080   -1.8550  -16.1050 C.3    27  DT27        0.1811
    544  C4'        6.7440   -2.9870  -15.3710 C.3    27  DT27        0.1746
    545  O4'        7.3410   -3.1620  -14.0600 O.3    27  DT27       -0.3327
    546  C3'        5.2790   -2.7760  -15.0500 C.3    27  DT27        0.1558
    547  O3'        4.4340   -2.9470  -16.1710 O.3    27  DT27       -0.3138
    548  C2'        5.0530   -3.7870  -13.9340 C.3    27  DT27        0.0866
    549  C1'        6.3630   -3.6440  -13.1600 C.3    27  DT27        0.2106
    550  N1         6.2690   -2.6400  -12.0410 N.ar   27  DT27       -0.2559
    551  C2         5.6350   -2.9660  -10.8570 C.ar   27  DT27        0.3545
    552  O2         5.0730   -4.0310  -10.6760 O.2    27  DT27       -0.2443
    553  N3         5.6800   -1.9930   -9.8870 N.ar   27  DT27       -0.1533
    554  C4         6.2820   -0.7560   -9.9800 C.ar   27  DT27        0.2804
    555  O4         6.2390    0.0110   -9.0220 O.2    27  DT27       -0.2654
    556  C5         6.9180   -0.4920  -11.2400 C.ar   27  DT27        0.0534
    557  C6         6.8890   -1.4200  -12.2010 C.ar   27  DT27        0.0824
    558  C7         7.6010    0.8290  -11.4400 C.3    27  DT27        0.0377
    559  P          3.2970   -1.6950  -16.4420 P.3    28  DC28        0.2141
    560  OP1        2.7770   -1.2150  -17.7420 O.2    28  DC28       -0.5172
    561  OP2        3.0500   -0.9190  -15.2040 O.3    28  DC28       -0.4373
    562  O5'        2.6920   -3.1460  -16.1290 O.3    28  DC28       -0.3114
    563  C5'        1.3060   -3.3260  -15.8540 C.3    28  DC28        0.1811
    564  C4'        1.0840   -4.3590  -14.7730 C.3    28  DC28        0.1746
    565  O4'        2.1540   -4.2600  -13.7970 O.3    28  DC28       -0.3327
    566  C3'       -0.1920   -4.2140  -13.9520 C.3    28  DC28        0.1558
    567  O3'       -1.3430   -4.7870  -14.5530 O.3    28  DC28       -0.3138
    568  C2'        0.1830   -4.8610  -12.6230 C.3    28  DC28        0.0866
    569  C1'        1.6530   -4.4630  -12.4940 C.3    28  DC28        0.2106
    570  N1         1.9560   -3.3010  -11.6820 N.ar   28  DC28       -0.2556
    571  C2         1.8750   -3.3960  -10.2880 C.ar   28  DC28        0.3531
    572  O2         1.5790   -4.4900   -9.7790 O.2    28  DC28       -0.2443
    573  N3         2.1190   -2.2950   -9.5370 N.ar   28  DC28       -0.1739
    574  C4         2.4320   -1.1410  -10.1270 C.ar   28  DC28        0.1759
    575  N4         2.6640   -0.0830   -9.3460 N.pl3  28  DC28       -0.1070
    576  C5         2.5200   -1.0240  -11.5380 C.ar   28  DC28        0.0566
    577  C6         2.2780   -2.1140  -12.2760 C.ar   28  DC28        0.0849
    578  P         -2.7210   -4.3840  -13.9300 P.3    29  DA29        0.2141
    579  OP1       -3.8360   -4.3550  -14.9500 O.2    29  DA29       -0.5172
    580  OP2       -2.8540   -3.3150  -12.9030 O.3    29  DA29       -0.4373
    581  O5'       -2.5490   -5.8650  -13.3530 O.3    29  DA29       -0.3114
    582  C5'       -3.3650   -6.8630  -14.0370 C.3    29  DA29        0.1811
    583  C4'       -3.5410   -8.0160  -13.0840 C.3    29  DA29        0.1746
    584  O4'       -2.2700   -8.3980  -12.5800 O.3    29  DA29       -0.3327
    585  C3'       -4.3870   -7.7790  -11.8600 C.3    29  DA29        0.1558
    586  O3'       -5.8090   -7.8190  -12.0350 O.3    29  DA29       -0.3138
    587  C2'       -3.9000   -8.8900  -10.9270 C.3    29  DA29        0.0865
    588  C1'       -2.4140   -8.9420  -11.2560 C.3    29  DA29        0.2094
    589  N9        -1.8360   -8.1460  -10.1580 N.ar   29  DA29       -0.2714
    590  C8        -1.2910   -6.8930  -10.2620 C.ar   29  DA29        0.1815
    591  N7        -0.7180   -6.4720   -9.1590 N.ar   29  DA29       -0.2193
    592  C5        -0.9010   -7.5200   -8.2700 C.ar   29  DA29        0.1518
    593  C6        -0.5240   -7.6980   -6.9280 C.ar   29  DA29        0.1919
    594  N6         0.1450   -6.7850   -6.2200 N.pl3  29  DA29       -0.1054
    595  N1        -0.8610   -8.8610   -6.3310 N.ar   29  DA29       -0.2040
    596  C2        -1.5300   -9.7770   -7.0410 C.ar   29  DA29        0.2016
    597  N3        -1.9390   -9.7250   -8.3070 N.ar   29  DA29       -0.2048
    598  C4        -1.5890   -8.5570   -8.8710 C.ar   29  DA29        0.1691
    599  P         -6.5480   -6.6490  -11.5270 P.3    30  DT30        0.2141
    600  OP1       -7.8450   -6.2970  -12.1430 O.2    30  DT30       -0.5172
    601  OP2       -5.6220   -5.5890  -11.0540 O.3    30  DT30       -0.4373
    602  O5'       -6.8150   -7.5340  -10.2220 O.3    30  DT30       -0.3114
    603  C5'       -7.3250   -8.8570  -10.3080 C.3    30  DT30        0.1811
    604  C4'       -7.1360   -9.5710   -8.9980 C.3    30  DT30        0.1746
    605  O4'       -5.7260   -9.5520   -8.6540 O.3    30  DT30       -0.3327
    606  C3'       -7.8070   -8.9180   -7.8000 C.3    30  DT30        0.1558
    607  O3'       -9.1860   -9.2290   -7.6830 O.3    30  DT30       -0.3138
    608  C2'       -6.9530   -9.4040   -6.6340 C.3    30  DT30        0.0866
    609  C1'       -5.5610   -9.3800   -7.2620 C.3    30  DT30        0.2106
    610  N1        -4.8420   -8.1020   -7.0500 N.ar   30  DT30       -0.2559
    611  C2        -4.2160   -7.9450   -5.8280 C.ar   30  DT30        0.3545
    612  O2        -4.2760   -8.7760   -4.9390 O.2    30  DT30       -0.2443
    613  N3        -3.5130   -6.7730   -5.6810 N.ar   30  DT30       -0.1533
    614  C4        -3.3770   -5.7650   -6.6130 C.ar   30  DT30        0.2804
    615  O4        -2.7120   -4.7700   -6.3350 O.2    30  DT30       -0.2654
    616  C5        -4.0570   -6.0020   -7.8560 C.ar   30  DT30        0.0534
    617  C6        -4.7470   -7.1330   -8.0250 C.ar   30  DT30        0.0824
    618  C7        -3.9700   -4.9630   -8.9350 C.3    30  DT30        0.0377
    619  P         -9.9580   -8.2830   -7.2370 P.3    31  DG31        0.2141
    620  OP1      -11.3330   -8.7650   -6.9330 O.3    31  DG31       -0.4373
    621  OP2       -9.7580   -6.9110   -7.7830 O.2    31  DG31       -0.5172
    622  O5'       -9.1180   -8.4120   -5.8980 O.3    31  DG31       -0.3114
    623  C5'       -9.2720   -9.5450   -5.0500 C.3    31  DG31        0.1811
    624  C4'       -8.7610   -9.2110   -3.6770 C.3    31  DG31        0.1746
    625  O4'       -7.3160   -9.0620   -3.7260 O.3    31  DG31       -0.3327
    626  C3'       -9.2960   -7.8830   -3.1730 C.3    31  DG31        0.1558
    627  O3'      -10.5120   -8.1090   -2.4680 O.3    31  DG31       -0.3138
    628  C2'       -8.1780   -7.3950   -2.2640 C.3    31  DG31        0.0865
    629  C1'       -6.9200   -7.9290   -2.9720 C.3    31  DG31        0.2094
    630  N9        -6.2450   -6.9890   -3.8690 N.ar   31  DG31       -0.2713
    631  C8        -6.4880   -6.7900   -5.2060 C.ar   31  DG31        0.1816
    632  N7        -5.8620   -5.7540   -5.6950 N.ar   31  DG31       -0.2173
    633  C5        -5.1620   -5.2380   -4.6200 C.ar   31  DG31        0.1748
    634  C6        -4.3030   -4.1120   -4.5330 C.ar   31  DG31        0.3023
    635  O6        -3.9820   -3.3220   -5.4300 O.2    31  DG31       -0.2633
    636  N1        -3.7980   -3.9410   -3.2470 N.ar   31  DG31       -0.1709
    637  C2        -4.0860   -4.7530   -2.1770 C.ar   31  DG31        0.2606
    638  N2        -3.5030   -4.4290   -1.0150 N.pl3  31  DG31       -0.0859
    639  N3        -4.8830   -5.8020   -2.2420 N.ar   31  DG31       -0.1918
    640  C4        -5.3850   -5.9870   -3.4820 C.ar   31  DG31        0.1722
    641  P        -11.7450   -6.8440   -2.2790 P.3    32  DC32        0.2141
    642  OP1      -13.0550   -7.3380   -1.8020 O.3    32  DC32       -0.4373
    643  OP2      -11.6820   -5.6150   -3.1040 O.2    32  DC32       -0.5172
    644  O5'      -10.7820   -6.6600   -1.0170 O.3    32  DC32       -0.3114
    645  C5'      -10.7530   -5.4190   -0.3310 C.3    32  DC32        0.1811
    646  C4'       -9.5250   -5.2740    0.5500 C.3    32  DC32        0.1746
    647  O4'       -8.2800   -5.4310   -0.1850 O.3    32  DC32       -0.3327
    648  C3'       -9.4880   -3.8460    1.0310 C.3    32  DC32        0.1558
    649  O3'      -10.3250   -3.7120    2.1480 O.3    32  DC32       -0.3138
    650  C2'       -8.0220   -3.5650    1.2710 C.3    32  DC32        0.0866
    651  C1'       -7.3760   -4.3810    0.1500 C.3    32  DC32        0.2106
    652  N1        -7.1140   -3.7590   -0.9870 N.ar   32  DC32       -0.2556
    653  C2        -6.2130   -2.6890   -0.9610 C.ar   32  DC32        0.3531
    654  O2        -5.5800   -2.4650    0.0850 O.2    32  DC32       -0.2443
    655  N3        -6.0580   -1.9300   -2.0730 N.ar   32  DC32       -0.1739
    656  C4        -6.7590   -2.2070   -3.1730 C.ar   32  DC32        0.1759
    657  N4        -6.5720   -1.4320   -4.2440 N.pl3  32  DC32       -0.1070
    658  C5        -7.6770   -3.2870   -3.2190 C.ar   32  DC32        0.0566
    659  C6        -7.8270   -4.0340   -2.1200 C.ar   32  DC32        0.0849
    660  P        -11.4750   -2.4100    2.1800 P.3    33  DG33        0.2141
    661  OP1      -12.9530   -2.4100    2.2630 O.3    33  DG33       -0.4373
    662  OP2      -10.8050   -2.1840    0.8820 O.2    33  DG33       -0.5172
    663  O5'      -10.8950   -1.2590    3.1320 O.3    33  DG33       -0.3114
    664  C5'       -9.4890   -1.1220    3.2660 C.3    33  DG33        0.1811
    665  C4'       -9.0600    0.3030    3.5020 C.3    33  DG33        0.1767
    666  O4'       -7.8890    0.5740    2.7020 O.3    33  DG33       -0.3154
    667  C3'      -10.0790    1.3880    3.1760 C.3    33  DG33        0.1581
    668  O3'      -10.6140    1.8600    4.4040 O.3    33  DG33       -0.3138
    669  C2'       -9.3260    2.4700    2.3980 C.3    33  DG33        0.1126
    670  C1'       -7.9150    1.8940    2.2170 C.3    33  DG33        0.2911
    671  N9        -7.2990    1.4290    0.9790 N.pl3  33  DG33       -0.1302
    672  C8        -8.0130    0.7400    0.0280 C.2    33  DG33        0.2799
    673  N7        -8.0150    1.3250   -1.1390 N.2    33  DG33       -0.2096
    674  C5        -7.2580    2.4670   -0.9520 C.3    33  DG33        0.3072
    675  C6        -6.9080    3.5010   -1.8580 C.2    33  DG33        0.3535
    676  O6        -7.2120    3.6090   -3.0520 O.2    33  DG33       -0.2506
    677  N1        -6.1230    4.4790   -1.2530 N.am   33  DG33        0.0136
    678  C2        -5.7250    4.4620    0.0620 C.2    33  DG33        0.5244
    679  N2        -4.9690    5.4940    0.4640 N.pl3  33  DG33        0.1572
    680  N3        -6.0430    3.5090    0.9160 N.2    33  DG33        0.0290
    681  C4        -6.8060    2.5490    0.3510 C.2    33  DG33        0.3467
    682  P        -12.0700    2.6350    4.6100 P.3    34  DC34        0.2141
    683  OP1      -13.0300    2.6660    5.7410 O.3    34  DC34       -0.4373
    684  OP2      -12.3420    1.7620    3.4430 O.2    34  DC34       -0.5172
    685  O5'      -11.8260    4.1180    4.0820 O.3    34  DC34       -0.3114
    686  C5'      -11.3120    5.1110    4.9700 C.3    34  DC34        0.1811
    687  C4'      -10.6320    6.2180    4.2070 C.3    34  DC34        0.1746
    688  O4'       -9.5770    5.6790    3.3710 O.3    34  DC34       -0.3327
    689  C3'      -11.4580    7.0040    3.2080 C.3    34  DC34        0.1558
    690  O3'      -12.3010    7.9480    3.8470 O.3    34  DC34       -0.3138
    691  C2'      -10.3590    7.7040    2.4240 C.3    34  DC34        0.0866
    692  C1'       -9.3060    6.5990    2.3280 C.3    34  DC34        0.2106
    693  N1        -9.4510    5.8870    1.1020 N.ar   34  DC34       -0.2556
    694  C2        -8.9530    6.4730   -0.0680 C.ar   34  DC34        0.3531
    695  O2        -8.3720    7.5680    0.0130 O.2    34  DC34       -0.2443
    696  N3        -9.1210    5.8320   -1.2500 N.ar   34  DC34       -0.1739
    697  C4        -9.7520    4.6580   -1.2890 C.ar   34  DC34        0.1759
    698  N4        -9.8940    4.0640   -2.4760 N.pl3  34  DC34       -0.1070
    699  C5       -10.2640    4.0480   -0.1150 C.ar   34  DC34        0.0566
    700  C6       -10.0960    4.6840    1.0500 C.ar   34  DC34        0.0849
    701  P        -13.7520    8.3680    3.1500 P.3    35  DT35        0.2141
    702  OP1      -14.7480    8.6590    4.2060 O.3    35  DT35       -0.4373
    703  OP2      -14.0420    7.3640    2.1110 O.2    35  DT35       -0.5172
    704  O5'      -13.3730    9.7440    2.4380 O.3    35  DT35       -0.3114
    705  C5'      -12.3210   10.5060    2.9720 C.3    35  DT35        0.1811
    706  C4'      -11.6000   11.2180    1.8540 C.3    35  DT35        0.1746
    707  O4'      -10.5890   10.3590    1.2780 O.3    35  DT35       -0.3327
    708  C3'      -12.4810   11.5450    0.6730 C.3    35  DT35        0.1558
    709  O3'      -13.2790   12.6850    0.9560 O.3    35  DT35       -0.3138
    710  C2'      -11.4220   11.8060   -0.3930 C.3    35  DT35        0.0866
    711  C1'      -10.3880   10.7280   -0.0730 C.3    35  DT35        0.2106
    712  N1       -10.6230    9.5690   -0.9020 N.ar   35  DT35       -0.2559
    713  C2       -10.0910    9.5400   -2.1770 C.ar   35  DT35        0.3545
    714  O2        -9.4190   10.4460   -2.6360 O.2    35  DT35       -0.2443
    715  N3       -10.3780    8.4080   -2.9010 N.ar   35  DT35       -0.1533
    716  C4       -11.1250    7.3250   -2.4860 C.ar   35  DT35        0.2804
    717  O4       -11.2950    6.3790   -3.2510 O.2    35  DT35       -0.2654
    718  C5       -11.6430    7.4300   -1.1510 C.ar   35  DT35        0.0534
    719  C6       -11.3800    8.5200   -0.4260 C.ar   35  DT35        0.0824
    720  C7       -12.4700    6.3020   -0.6080 C.3    35  DT35        0.0377
    721  P        -14.4090   12.6750    0.3060 P.3    36  DC36        0.2141
    722  OP1      -15.4400   13.3060    1.1600 O.3    36  DC36       -0.4373
    723  OP2      -14.8400   11.6980   -0.7180 O.2    36  DC36       -0.5172
    724  O5'      -13.5260   13.8030   -0.4110 O.3    36  DC36       -0.3114
    725  C5'      -14.0590   14.4510   -1.5450 C.3    36  DC36        0.1811
    726  C4'      -13.2500   14.2070   -2.8070 C.3    36  DC36        0.1746
    727  O4'      -12.4430   13.0040   -2.7640 O.3    36  DC36       -0.3327
    728  C3'      -14.0640   13.9430   -4.0620 C.3    36  DC36        0.1558
    729  O3'      -14.8250   15.0710   -4.4430 O.3    36  DC36       -0.3138
    730  C2'      -12.9340   13.5550   -5.0140 C.3    36  DC36        0.0866
    731  C1'      -12.2760   12.5290   -4.0970 C.3    36  DC36        0.2106
    732  N1       -12.8520   11.1670   -4.4140 N.ar   36  DC36       -0.2556
    733  C2       -12.5480   10.4260   -5.5620 C.ar   36  DC36        0.3531
    734  O2       -12.0640   11.0160   -6.5430 O.2    36  DC36       -0.2443
    735  N3       -12.7910    9.0940   -5.5700 N.ar   36  DC36       -0.1739
    736  C4       -13.3130    8.5040   -4.4940 C.ar   36  DC36        0.1759
    737  N4       -13.5350    7.1890   -4.5480 N.pl3  36  DC36       -0.1070
    738  C5       -13.6280    9.2370   -3.3210 C.ar   36  DC36        0.0566
    739  C6       -13.3860   10.5520   -3.3170 C.ar   36  DC36        0.0849
    740  P        -16.4650   15.1090   -4.5650 P.3    37  DA37        0.2141
    741  OP1      -17.5140   15.5120   -3.5910 O.3    37  DA37       -0.4373
    742  OP2      -16.8030   14.1470   -5.6480 O.2    37  DA37       -0.5172
    743  O5'      -15.9320   16.4250   -5.2730 O.3    37  DA37       -0.3114
    744  C5'      -15.9740   16.5350   -6.6810 C.3    37  DA37        0.1811
    745  C4'      -14.5870   16.4150   -7.2510 C.3    37  DA37        0.1746
    746  O4'      -13.9390   15.2200   -6.7370 O.3    37  DA37       -0.3327
    747  C3'      -14.5680   16.2170   -8.7510 C.3    37  DA37        0.1558
    748  O3'      -14.7250   17.4310   -9.4560 O.3    37  DA37       -0.3138
    749  C2'      -13.2160   15.5580   -8.9760 C.3    37  DA37        0.0865
    750  C1'      -13.1380   14.6370   -7.7580 C.3    37  DA37        0.2094
    751  N9       -13.6880   13.3240   -8.0800 N.ar   37  DA37       -0.2714
    752  C8       -14.7140   12.8020   -7.3360 C.ar   37  DA37        0.1815
    753  N7       -14.8840   11.5110   -7.5020 N.ar   37  DA37       -0.2193
    754  C5       -13.9040   11.1620   -8.4180 C.ar   37  DA37        0.1518
    755  C6       -13.5550    9.9350   -9.0090 C.ar   37  DA37        0.1919
    756  N6       -14.1820    8.7860   -8.7500 N.pl3  37  DA37       -0.1054
    757  N1       -12.5270    9.9310   -9.8840 N.ar   37  DA37       -0.2040
    758  C2       -11.8980   11.0830  -10.1410 C.ar   37  DA37        0.2016
    759  N3       -12.1330   12.2980   -9.6500 N.ar   37  DA37       -0.2048
    760  C4       -13.1610   12.2680   -8.7840 C.ar   37  DA37        0.1691
    761  P        -15.0610   17.3080  -10.3570 P.3    38  DA38        0.2141
    762  OP1      -15.1930   18.7800  -10.4130 O.2    38  DA38       -0.5172
    763  OP2      -16.2590   16.4500  -10.2070 O.3    38  DA38       -0.4373
    764  O5'      -14.3800   16.7970  -11.7110 O.3    38  DA38       -0.3114
    765  C5'      -12.9650   16.7650  -11.8320 C.3    38  DA38        0.1811
    766  C4'      -12.5220   15.6620  -12.7600 C.3    38  DA38        0.1746
    767  O4'      -12.4620   14.3940  -12.0560 O.3    38  DA38       -0.3327
    768  C3'      -13.4350   15.3910  -13.9460 C.3    38  DA38        0.1558
    769  O3'      -13.2290   16.3110  -15.0060 O.3    38  DA38       -0.3138
    770  C2'      -13.1040   13.9470  -14.3100 C.3    38  DA38        0.0865
    771  C1'      -12.7700   13.3400  -12.9460 C.3    38  DA38        0.2093
    772  N9       -13.8700   12.5080  -12.3910 N.ar   38  DA38       -0.2732
    773  C8       -14.7330   12.8350  -11.3780 C.ar   38  DA38        0.1815
    774  N7       -15.5990   11.8900  -11.0950 N.ar   38  DA38       -0.2147
    775  C5       -15.2840   10.8750  -11.9840 C.ar   38  DA38        0.2049
    776  C6       -15.8340    9.5980  -12.1950 C.2    38  DA38        0.4209
    777  N6       -16.8590    9.1100  -11.4930 N.2    38  DA38        0.0793
    778  N1       -15.2870    8.8320  -13.1630 N.2    38  DA38       -0.0079
    779  C2       -14.2590    9.3220  -13.8650 C.2    38  DA38        0.3282
    780  N3       -13.6550   10.5040  -13.7590 N.pl3  38  DA38       -0.1483
    781  C4       -14.2220   11.2410  -12.7890 C.ar   38  DA38        0.1651
    782  P        -14.2270   16.4400  -16.2650 P.3    39  DT39        0.2141
    783  OP1      -13.9240   17.7440  -16.9010 O.2    39  DT39       -0.5172
    784  OP2      -15.1930   16.3420  -15.1460 O.3    39  DT39       -0.4373
    785  O5'      -14.7830   15.4150  -17.3560 O.3    39  DT39       -0.3114
    786  C5'      -13.8440   14.7430  -18.1790 C.3    39  DT39        0.1811
    787  C4'      -14.4350   13.4740  -18.7260 C.3    39  DT39        0.1746
    788  O4'      -14.4300   12.4700  -17.6830 O.3    39  DT39       -0.3327
    789  C3'      -15.8950   13.5700  -19.1390 C.3    39  DT39        0.1558
    790  O3'      -16.0840   14.1240  -20.4300 O.3    39  DT39       -0.3138
    791  C2'      -16.3750   12.1320  -18.9990 C.3    39  DT39        0.0866
    792  C1'      -15.5980   11.6850  -17.7650 C.3    39  DT39        0.2106
    793  N1       -16.4210   11.8070  -16.5010 N.ar   39  DT39       -0.2559
    794  C2       -17.3730   10.8390  -16.2430 C.ar   39  DT39        0.3545
    795  O2       -17.5530    9.8740  -16.9650 O.2    39  DT39       -0.2443
    796  N3       -18.1130   11.0420  -15.1030 N.ar   39  DT39       -0.1533
    797  C4       -17.9990   12.0910  -14.2160 C.ar   39  DT39        0.2804
    798  O4       -18.7350   12.1360  -13.2330 O.2    39  DT39       -0.2654
    799  C5       -16.9890   13.0550  -14.5540 C.ar   39  DT39        0.0534
    800  C6       -16.2550   12.8820  -15.6560 C.ar   39  DT39        0.0824
    801  C7       -16.7880   14.2350  -13.6510 C.3    39  DT39        0.0377
    802  P        -17.4270   15.1010  -20.8150 P.3    40  DG40        0.2141
    803  OP1      -17.1690   15.6450  -22.1740 O.2    40  DG40       -0.5172
    804  OP2      -17.9190   16.1320  -19.8670 O.3    40  DG40       -0.4373
    805  O5'      -18.4110   13.8600  -20.9160 O.3    40  DG40       -0.3114
    806  C5'      -18.1050   12.6950  -21.6770 C.3    40  DG40        0.1811
    807  C4'      -19.2190   11.6760  -21.5540 C.3    40  DG40        0.1746
    808  O4'      -18.9860   10.8530  -20.3680 O.3    40  DG40       -0.3327
    809  C3'      -20.6280   12.2180  -21.2970 C.3    40  DG40        0.1558
    810  O3'      -21.2890   12.6350  -22.4630 O.3    40  DG40       -0.3138
    811  C2'      -21.3170   10.9860  -20.6980 C.3    40  DG40        0.0865
    812  C1'      -20.2150   10.5040  -19.7520 C.3    40  DG40        0.2094
    813  N9       -20.2870   11.0900  -18.4290 N.ar   40  DG40       -0.2713
    814  C8       -19.7850   12.2850  -17.9730 C.ar   40  DG40        0.1816
    815  N7       -20.2150   12.6030  -16.7830 N.ar   40  DG40       -0.2173
    816  C5       -21.0490   11.5590  -16.4280 C.ar   40  DG40        0.1748
    817  C6       -21.8070   11.3420  -15.2490 C.ar   40  DG40        0.3023
    818  O6       -21.8880   12.0640  -14.2470 O.2    40  DG40       -0.2633
    819  N1       -22.5200   10.1480  -15.3000 N.ar   40  DG40       -0.1709
    820  C2       -22.5050    9.2700  -16.3580 C.ar   40  DG40        0.2606
    821  N2       -23.2570    8.1700  -16.2230 N.pl3  40  DG40       -0.0859
    822  N3       -21.8070    9.4580  -17.4600 N.ar   40  DG40       -0.1918
    823  C4       -21.1070   10.6120  -17.4330 C.ar   40  DG40        0.1722
    824  P        -22.6620   13.7430  -22.5000 P.3    41  DG41        0.2141
    825  OP1      -23.0900   14.3500  -23.7840 O.2    41  DG41       -0.5172
    826  OP2      -22.4010   14.6120  -21.3280 O.3    41  DG41       -0.4373
    827  O5'      -23.7440   12.6900  -21.9520 O.3    41  DG41       -0.3114
    828  C5'      -23.7390   11.3240  -22.3470 C.3    41  DG41        0.1811
    829  C4'      -24.5520   10.4480  -21.4170 C.3    41  DG41        0.1746
    830  O4'      -23.8810   10.3040  -20.1370 O.3    41  DG41       -0.3327
    831  C3'      -25.9370   10.9480  -21.0390 C.3    41  DG41        0.1558
    832  O3'      -26.9110   10.6910  -22.0310 O.3    41  DG41       -0.3138
    833  C2'      -26.2130   10.1840  -19.7530 C.3    41  DG41        0.0865
    834  C1'      -24.8330   10.1630  -19.1040 C.3    41  DG41        0.2094
    835  N9       -24.6340   11.2050  -18.1640 N.ar   41  DG41       -0.2713
    836  C8       -23.9600   12.3800  -18.3960 C.ar   41  DG41        0.1816
    837  N7       -23.9620   13.1850  -17.3690 N.ar   41  DG41       -0.2173
    838  C5       -24.6750   12.5050  -16.4000 C.ar   41  DG41        0.1748
    839  C6       -25.0120   12.8740  -15.0720 C.ar   41  DG41        0.3023
    840  O6       -24.7300   13.9190  -14.4720 O.2    41  DG41       -0.2633
    841  N1       -25.7520   11.8860  -14.4290 N.ar   41  DG41       -0.1709
    842  C2       -26.1220   10.6900  -14.9960 C.ar   41  DG41        0.2606
    843  N2       -26.8340    9.8630  -14.2180 N.pl3  41  DG41       -0.0859
    844  N3       -25.8180   10.3330  -16.2280 N.ar   41  DG41       -0.1918
    845  C4       -25.1000   11.2780  -16.8720 C.ar   41  DG41        0.1722
    846  P        -28.0180   11.3660  -21.9420 P.3    42  DG42        0.2141
    847  OP1      -28.6320   10.9010  -23.2060 O.2    42  DG42       -0.5172
    848  OP2      -27.5230   12.7600  -21.8520 O.3    42  DG42       -0.4373
    849  O5'      -29.0410   11.1250  -20.7220 O.3    42  DG42       -0.3114
    850  C5'      -29.6830    9.8550  -20.5940 C.3    42  DG42        0.1811
    851  C4'      -30.3910    9.6830  -19.2680 C.3    42  DG42        0.1746
    852  O4'      -29.4600    9.8490  -18.1760 O.3    42  DG42       -0.3327
    853  C3'      -31.4760   10.7030  -18.9970 C.3    42  DG42        0.1558
    854  O3'      -32.6630   10.2680  -19.6090 O.3    42  DG42       -0.3138
    855  C2'      -31.5590   10.6850  -17.4700 C.3    42  DG42        0.0865
    856  C1'      -30.0960   10.5030  -17.0870 C.3    42  DG42        0.2094
    857  N9       -29.4050   11.7900  -16.7980 N.ar   42  DG42       -0.2713
    858  C8       -28.5300   12.4730  -17.6090 C.ar   42  DG42        0.1816
    859  N7       -28.0560   13.5570  -17.0580 N.ar   42  DG42       -0.2173
    860  C5       -28.6480   13.5940  -15.8090 C.ar   42  DG42        0.1748
    861  C6       -28.5220   14.5370  -14.7560 C.ar   42  DG42        0.3023
    862  O6       -27.8320   15.5630  -14.7250 O.2    42  DG42       -0.2633
    863  N1       -29.3040   14.1950  -13.6560 N.ar   42  DG42       -0.1709
    864  C2       -30.1070   13.0820  -13.5800 C.ar   42  DG42        0.2606
    865  N2       -30.7850   12.9200  -12.4350 N.pl3  42  DG42       -0.0859
    866  N3       -30.2350   12.1990  -14.5500 N.ar   42  DG42       -0.1918
    867  C4       -29.4860   12.5110  -15.6290 C.ar   42  DG42        0.1722
    868  P        -33.5490   11.3000  -20.1790 P.3    43  DA43        0.2141
    869  OP1      -34.7040   11.1950  -21.1120 O.2    43  DA43       -0.5172
    870  OP2      -32.4300   12.2240  -20.5160 O.3    43  DA43       -0.4373
    871  O5'      -34.0910   11.6380  -18.7040 O.3    43  DA43       -0.3114
    872  C5'      -35.4940   11.5590  -18.3590 C.3    43  DA43        0.1811
    873  C4'      -35.7460   11.9450  -16.8880 C.3    43  DA43        0.1746
    874  O4'      -34.5280   11.7870  -16.1060 O.3    43  DA43       -0.3327
    875  C3'      -36.2140   13.3680  -16.5570 C.3    43  DA43        0.1558
    876  O3'      -37.6150   13.5830  -16.6730 O.3    43  DA43       -0.3138
    877  C2'      -35.8100   13.5250  -15.1030 C.3    43  DA43        0.0865
    878  C1'      -34.4940   12.7580  -15.0710 C.3    43  DA43        0.2094
    879  N9       -33.4190   13.8190  -15.2900 N.ar   43  DA43       -0.2714
    880  C8       -32.7250   14.1230  -16.4320 C.ar   43  DA43        0.1815
    881  N7       -31.8180   15.0570  -16.2680 N.ar   43  DA43       -0.2193
    882  C5       -31.9240   15.3900  -14.9270 C.ar   43  DA43        0.1518
    883  C6       -31.2350   16.3180  -14.1250 C.ar   43  DA43        0.1919
    884  N6       -30.2630   17.1110  -14.5810 N.pl3  43  DA43       -0.1054
    885  N1       -31.5850   16.4020  -12.8240 N.ar   43  DA43       -0.2040
    886  C2       -32.5590   15.6060  -12.3680 C.ar   43  DA43        0.2016
    887  N3       -33.2770   14.6960  -13.0220 N.ar   43  DA43       -0.2048
    888  C4       -32.9060   14.6370  -14.3120 C.ar   43  DA43        0.1691
    889  P        -37.9770   14.7340  -17.2400 P.3    44  DG44        0.2141
    890  OP1      -39.4130   14.7240  -17.5880 O.3    44  DG44       -0.4373
    891  OP2      -36.9540   15.1280  -18.2310 O.2    44  DG44       -0.5172
    892  O5'      -37.7790   15.8100  -16.0730 O.3    44  DG44       -0.3114
    893  C5'      -38.6750   15.8690  -14.9730 C.3    44  DG44        0.1811
    894  C4'      -38.1880   16.8070  -13.8930 C.3    44  DG44        0.1746
    895  O4'      -36.8280   16.5000  -13.4750 O.3    44  DG44       -0.3327
    896  C3'      -38.0780   18.2590  -14.3030 C.3    44  DG44        0.1558
    897  O3'      -39.3310   18.8920  -14.4280 O.3    44  DG44       -0.3138
    898  C2'      -37.2040   18.8190  -13.1960 C.3    44  DG44        0.0865
    899  C1'      -36.1760   17.6940  -13.0790 C.3    44  DG44        0.2094
    900  N9       -35.0440   17.9430  -14.0720 N.ar   44  DG44       -0.2713
    901  C8       -34.7790   17.1700  -15.1760 C.ar   44  DG44        0.1816
    902  N7       -33.6740   17.5040  -15.7850 N.ar   44  DG44       -0.2173
    903  C5       -33.1760   18.5570  -15.0410 C.ar   44  DG44        0.1748
    904  C6       -32.0030   19.3350  -15.2120 C.ar   44  DG44        0.3023
    905  O6       -31.1400   19.2370  -16.0940 O.2    44  DG44       -0.2633
    906  N1       -31.8760   20.3100  -14.2270 N.ar   44  DG44       -0.1709
    907  C2       -32.7700   20.5100  -13.2020 C.ar   44  DG44        0.2606
    908  N2       -32.4770   21.5000  -12.3470 N.pl3  44  DG44       -0.0859
    909  N3       -33.8650   19.7960  -13.0300 N.ar   44  DG44       -0.1918
    910  C4       -34.0090   18.8440  -13.9760 C.ar   44  DG44        0.1722
    911  P        -39.5470   19.4250  -15.8080 P.3    45  DA45        0.2141
    912  OP1      -41.0020   19.6330  -15.9950 O.3    45  DA45       -0.4373
    913  OP2      -38.7360   18.9580  -16.9560 O.2    45  DA45       -0.5172
    914  O5'      -38.9310   20.7880  -15.2450 O.3    45  DA45       -0.3114
    915  C5'      -39.6820   21.6060  -14.3600 C.3    45  DA45        0.1811
    916  C4'      -38.8330   22.7550  -13.8440 C.3    45  DA45        0.1746
    917  O4'      -37.5110   22.2800  -13.4800 O.3    45  DA45       -0.3327
    918  C3'      -38.5400   23.8120  -14.8880 C.3    45  DA45        0.1558
    919  O3'      -39.5920   24.7450  -14.9890 O.3    45  DA45       -0.3138
    920  C2'      -37.2490   24.4470  -14.3950 C.3    45  DA45        0.0865
    921  C1'      -36.5230   23.2390  -13.8150 C.3    45  DA45        0.2094
    922  N9       -35.5910   22.6930  -14.7110 N.ar   45  DA45       -0.2714
    923  C8       -35.7080   21.5030  -15.3800 C.ar   45  DA45        0.1815
    924  N7       -34.6520   21.1910  -16.0930 N.ar   45  DA45       -0.2193
    925  C5       -33.7830   22.2490  -15.8790 C.ar   45  DA45        0.1518
    926  C6       -32.4880   22.5210  -16.3540 C.ar   45  DA45        0.1919
    927  N6       -31.8180   21.7120  -17.1780 N.pl3  45  DA45       -0.1054
    928  N1       -31.8990   23.6670  -15.9490 N.ar   45  DA45       -0.2040
    929  C2       -32.5710   24.4760  -15.1220 C.ar   45  DA45        0.2016
    930  N3       -33.7900   24.3290  -14.6080 N.ar   45  DA45       -0.2048
    931  C4       -34.3480   23.1820  -15.0310 C.ar   45  DA45        0.1691
    932  P        -39.8950   25.2350  -16.5080 P.3    46  DC46        0.2141
    933  OP1      -41.1070   26.0350  -16.8040 O.3    46  DC46       -0.4373
    934  OP2      -39.5260   24.0820  -17.3600 O.2    46  DC46       -0.5172
    935  O5'      -38.6010   26.1820  -16.5420 O.3    46  DC46       -0.3114
    936  C5'      -38.6720   27.4910  -15.9930 C.3    46  DC46        0.1811
    937  C4'      -37.3210   28.0410  -15.6000 C.3    46  DC46        0.1746
    938  O4'      -36.4660   26.9780  -15.0990 O.3    46  DC46       -0.3327
    939  C3'      -36.4790   28.6630  -16.7050 C.3    46  DC46        0.1558
    940  O3'      -36.9090   29.9540  -17.0990 O.3    46  DC46       -0.3138
    941  C2'      -35.0900   28.6450  -16.0780 C.3    46  DC46        0.0866
    942  C1'      -35.1160   27.2860  -15.3800 C.3    46  DC46        0.2106
    943  N1       -34.5450   26.2900  -16.3240 N.ar   46  DC46       -0.2556
    944  C2       -33.1610   26.1860  -16.5080 C.ar   46  DC46        0.3531
    945  O2       -32.4220   27.0380  -15.9860 O.2    46  DC46       -0.2443
    946  N3       -32.6700   25.1630  -17.2480 N.ar   46  DC46       -0.1739
    947  C4       -33.5000   24.2720  -17.7900 C.ar   46  DC46        0.1759
    948  N4       -32.9700   23.2820  -18.5110 N.pl3  46  DC46       -0.1070
    949  C5       -34.9050   24.3600  -17.6150 C.ar   46  DC46        0.0566
    950  C6       -35.3870   25.3710  -16.8840 C.ar   46  DC46        0.0849
    951  P        -37.0660   30.2000  -18.5160 P.3    47  DT47        0.2141
    952  OP1      -37.7070   31.4490  -19.0070 O.2    47  DT47       -0.5172
    953  OP2      -37.6180   28.8760  -18.9290 O.3    47  DT47       -0.4373
    954  O5'      -35.5370   30.2400  -18.9420 O.3    47  DT47       -0.3114
    955  C5'      -34.7370   31.3650  -18.6210 C.3    47  DT47        0.1811
    956  C4'      -33.5710   31.4290  -19.5540 C.3    47  DT47        0.1746
    957  O4'      -32.5880   30.4510  -19.1320 O.3    47  DT47       -0.3327
    958  C3'      -33.9130   31.0570  -20.9870 C.3    47  DT47        0.1558
    959  O3'      -34.4690   32.1280  -21.7580 O.3    47  DT47       -0.3138
    960  C2'      -32.5750   30.5600  -21.5090 C.3    47  DT47        0.0866
    961  C1'      -31.9890   29.8650  -20.2710 C.3    47  DT47        0.2106
    962  N1       -32.2800   28.2520  -20.2510 N.ar   47  DT47       -0.2559
    963  C2       -31.1930   27.4160  -20.4250 C.ar   47  DT47        0.3545
    964  O2       -30.0420   27.8150  -20.4320 O.2    47  DT47       -0.2443
    965  N3       -31.5030   26.0880  -20.5920 N.ar   47  DT47       -0.1533
    966  C4       -32.7620   25.5250  -20.6030 C.ar   47  DT47        0.2804
    967  O4       -32.8810   24.3120  -20.7630 O.2    47  DT47       -0.2654
    968  C5       -33.8380   26.4580  -20.4170 C.ar   47  DT47        0.0534
    969  C6       -33.5650   27.7550  -20.2530 C.ar   47  DT47        0.0824
    970  C7       -35.2470   25.9430  -20.4140 C.3    47  DT47        0.0377
    971  P        -35.4170   31.8920  -23.0030 P.3    48  DT48        0.2141
    972  OP1      -36.0980   33.1780  -23.3350 O.3    48  DT48       -0.4373
    973  OP2      -35.9810   30.6150  -23.5000 O.2    48  DT48       -0.5172
    974  O5'      -33.8990   31.9940  -23.4710 O.3    48  DT48       -0.3114
    975  C5'      -33.4490   31.2950  -24.6070 C.3    48  DT48        0.1811
    976  C4'      -31.9490   31.3480  -24.6940 C.3    48  DT48        0.1746
    977  O4'      -31.3550   30.7620  -23.5080 O.3    48  DT48       -0.3327
    978  C3'      -31.4710   30.4780  -25.8250 C.3    48  DT48        0.1558
    979  O3'      -31.6260   31.1500  -27.0370 O.3    48  DT48       -0.3138
    980  C2'      -30.1040   29.9950  -25.3800 C.3    48  DT48        0.0866
    981  C1'      -30.3580   29.8110  -23.8840 C.3    48  DT48        0.2106
    982  N1       -31.0360   28.1490  -23.8640 N.ar   48  DT48       -0.2559
    983  C2       -30.1870   27.0980  -24.1570 C.ar   48  DT48        0.3545
    984  O2       -29.0790   27.2540  -24.6390 O.2    48  DT48       -0.2443
    985  N3       -30.6850   25.8510  -23.8660 N.ar   48  DT48       -0.1533
    986  C4       -31.9180   25.5550  -23.3240 C.ar   48  DT48        0.2804
    987  O4       -32.2240   24.3830  -23.1180 O.2    48  DT48       -0.2654
    988  C5       -32.7410   26.6990  -23.0480 C.ar   48  DT48        0.0534
    989  C6       -32.2820   27.9230  -23.3220 C.ar   48  DT48        0.0824
    990  C7       -34.1020   26.4810  -22.4570 C.3    48  DT48        0.0377
    991  P        -32.5510   30.2570  -28.4560 P.3    49  DT49        0.2141
    992  OP1      -32.5610   31.4570  -29.3190 O.2    49  DT49       -0.5172
    993  OP2      -33.7650   29.9150  -27.6820 O.3    49  DT49       -0.4373
    994  O5'      -32.1480   28.9960  -29.3610 O.3    49  DT49       -0.3114
    995  C5'      -31.3110   29.1350  -30.5130 C.3    49  DT49        0.1811
    996  C4'      -30.2950   28.0080  -30.6050 C.3    49  DT49        0.1746
    997  O4'      -29.9570   27.5260  -29.2800 O.3    49  DT49       -0.3327
    998  C3'      -30.7610   26.7650  -31.3470 C.3    49  DT49        0.1558
    999  O3'      -30.5970   26.9210  -32.7460 O.3    49  DT49       -0.3138
   1000  C2'      -29.8480   25.6850  -30.7770 C.3    49  DT49        0.0866
   1001  C1'      -29.6760   26.1400  -29.3310 C.3    49  DT49        0.2106
   1002  N1       -30.5690   25.3690  -28.4300 N.ar   49  DT49       -0.2559
   1003  C2       -30.1540   24.1820  -27.8580 C.ar   49  DT49        0.3545
   1004  O2       -29.0840   23.6590  -28.1130 O.2    49  DT49       -0.2443
   1005  N3       -31.0430   23.6240  -26.9700 N.ar   49  DT49       -0.1533
   1006  C4       -32.2760   24.1230  -26.6070 C.ar   49  DT49        0.2804
   1007  O4       -32.9620   23.5070  -25.7950 O.2    49  DT49       -0.2654
   1008  C5       -32.6350   25.3580  -27.2450 C.ar   49  DT49        0.0534
   1009  C6       -31.7900   25.9220  -28.1120 C.ar   49  DT49        0.0824
   1010  C7       -33.9590   25.9820  -26.9160 C.3    49  DT49        0.0377
   1011  P        -31.5020   26.1260  -33.3470 P.3    50  DA50        0.2141
   1012  OP1      -31.3080   27.1260  -34.4280 O.2    50  DA50       -0.5172
   1013  OP2      -32.8770   25.7050  -32.9570 O.3    50  DA50       -0.4373
   1014  O5'      -30.6860   24.8210  -33.7520 O.3    50  DA50       -0.3114
   1015  C5'      -31.1450   23.5310  -33.3900 C.3    50  DA50        0.1811
   1016  C4'      -29.9940   22.5560  -33.3590 C.3    50  DA50        0.1761
   1017  O4'      -28.9570   22.9980  -34.2680 O.3    50  DA50       -0.3343
   1018  C3'      -29.3580   22.2900  -32.0030 C.3    50  DA50        0.1725
   1019  O3'      -29.3660   20.9000  -31.7600 O.3    50  DA50       -0.3122
   1020  C2'      -27.9170   22.7960  -32.1070 C.3    50  DA50        0.1427
   1021  C1'      -27.7360   23.1740  -33.5800 C.3    50  DA50        0.2043
   1022  N9       -27.0720   24.1090  -32.9070 N.pl3  50  DA50       -0.2808
   1023  C8       -27.6260   25.3620  -32.8720 C.2    50  DA50        0.1554
   1024  N7       -26.7940   26.2970  -32.4810 N.2    50  DA50       -0.2231
   1025  C5       -25.6130   25.6120  -32.2420 C.ar   50  DA50        0.1480
   1026  C6       -24.3460   26.0340  -31.8040 C.ar   50  DA50        0.1916
   1027  N6       -24.0480   27.3040  -31.5180 N.pl3  50  DA50       -0.1054
   1028  N1       -23.3850   25.0960  -31.6680 N.ar   50  DA50       -0.2040
   1029  C2       -23.6840   23.8240  -31.9550 C.ar   50  DA50        0.2014
   1030  N3       -24.8350   23.3050  -32.3750 N.ar   50  DA50       -0.2083
   1031  C4       -25.7700   24.2630  -32.4990 C.ar   50  DA50        0.1468
   1032  P        -29.8150   20.2890  -30.8980 P.3    51  DG51        0.2141
   1033  OP1      -30.7740   19.1930  -30.6190 O.2    51  DG51       -0.5172
   1034  OP2      -29.3570   21.1120  -29.7770 O.3    51  DG51       -0.4373
   1035  O5'      -28.5830   19.6190  -31.6560 O.3    51  DG51       -0.3114
   1036  C5'      -27.7130   18.8390  -30.8700 C.3    51  DG51        0.1811
   1037  C4'      -26.2670   19.2840  -30.9830 C.3    51  DG51        0.1746
   1038  O4'      -26.1640   20.6070  -31.5440 O.3    51  DG51       -0.3327
   1039  C3'      -25.5690   19.4370  -29.6370 C.3    51  DG51        0.1558
   1040  O3'      -25.3050   18.1900  -28.9670 O.3    51  DG51       -0.3138
   1041  C2'      -24.3520   20.2110  -30.1040 C.3    51  DG51        0.0865
   1042  C1'      -24.9490   21.1930  -31.0890 C.3    51  DG51        0.2094
   1043  N9       -25.2630   22.4350  -30.3390 N.ar   51  DG51       -0.2713
   1044  C8       -26.5250   22.9760  -30.3760 C.ar   51  DG51        0.1816
   1045  N7       -26.5680   24.2140  -29.9640 N.ar   51  DG51       -0.2173
   1046  C5       -25.2580   24.5120  -29.6370 C.ar   51  DG51        0.1748
   1047  C6       -24.6810   25.7060  -29.1320 C.ar   51  DG51        0.3023
   1048  O6       -25.2440   26.7750  -28.8660 O.2    51  DG51       -0.2633
   1049  N1       -23.3090   25.5790  -28.9380 N.ar   51  DG51       -0.1709
   1050  C2       -22.5810   24.4420  -29.1980 C.ar   51  DG51        0.2606
   1051  N2       -21.2670   24.5110  -28.9480 N.pl3  51  DG51       -0.0859
   1052  N3       -23.1030   23.3260  -29.6670 N.ar   51  DG51       -0.1918
   1053  C4       -24.4350   23.4250  -29.8620 C.ar   51  DG51        0.1722
   1054  P        -25.5910   18.1650  -27.3250 P.3    52  DC52        0.2141
   1055  OP1      -25.3850   16.7660  -26.8890 O.3    52  DC52       -0.4373
   1056  OP2      -26.8790   18.8540  -27.0740 O.2    52  DC52       -0.5172
   1057  O5'      -24.5020   19.0850  -26.5970 O.3    52  DC52       -0.3114
   1058  C5'      -23.1820   18.6090  -26.3800 C.3    52  DC52        0.1811
   1059  C4'      -22.2260   19.7540  -26.1770 C.3    52  DC52        0.1746
   1060  O4'      -22.6450   20.8570  -27.0180 O.3    52  DC52       -0.3327
   1061  C3'      -22.1760   20.3490  -24.7780 C.3    52  DC52        0.1558
   1062  O3'      -21.3160   19.6420  -23.9020 O.3    52  DC52       -0.3138
   1063  C2'      -21.7310   21.7830  -25.0330 C.3    52  DC52        0.0866
   1064  C1'      -22.4220   22.0830  -26.3600 C.3    52  DC52        0.2106
   1065  N1       -23.7310   22.7700  -26.1710 N.ar   52  DC52       -0.2556
   1066  C2       -23.7490   24.0320  -25.5670 C.ar   52  DC52        0.3531
   1067  O2       -22.6690   24.5510  -25.2350 O.2    52  DC52       -0.2443
   1068  N3       -24.9370   24.6490  -25.3610 N.ar   52  DC52       -0.1739
   1069  C4       -26.0710   24.0530  -25.7330 C.ar   52  DC52        0.1759
   1070  N4       -27.2180   24.6990  -25.5100 N.pl3  52  DC52       -0.1070
   1071  C5       -26.0750   22.7740  -26.3470 C.ar   52  DC52        0.0566
   1072  C6       -24.8990   22.1690  -26.5480 C.ar   52  DC52        0.0849
   1073  P        -21.5530   19.9410  -22.4100 P.3    53  DT53        0.2141
   1074  OP1      -20.5410   18.9920  -21.8860 O.3    53  DT53       -0.4373
   1075  OP2      -22.9920   19.7510  -22.0700 O.2    53  DT53       -0.5172
   1076  O5'      -21.1400   21.3870  -21.9180 O.3    53  DT53       -0.3114
   1077  C5'      -21.9610   22.0900  -21.0170 C.3    53  DT53        0.1811
   1078  C4'      -21.8040   23.5510  -21.2530 C.3    53  DT53        0.1746
   1079  O4'      -22.7660   23.9690  -22.2570 O.3    53  DT53       -0.3327
   1080  C3'      -22.1890   24.3630  -20.0370 C.3    53  DT53        0.1558
   1081  O3'      -21.0650   24.4340  -19.1560 O.3    53  DT53       -0.3138
   1082  C2'      -22.5080   25.7120  -20.6580 C.3    53  DT53        0.0866
   1083  C1'      -23.1640   25.3000  -21.9800 C.3    53  DT53        0.2106
   1084  N1       -24.5920   25.0860  -22.0480 N.ar   53  DT53       -0.2559
   1085  C2       -25.3290   26.2000  -21.6930 C.ar   53  DT53        0.3545
   1086  O2       -24.8320   27.3000  -21.5300 O.2    53  DT53       -0.2443
   1087  N3       -26.6760   25.9790  -21.5350 N.ar   53  DT53       -0.1533
   1088  C4       -27.3450   24.7830  -21.6920 C.ar   53  DT53        0.2804
   1089  O4       -28.5600   24.7420  -21.5160 O.2    53  DT53       -0.2654
   1090  C5       -26.5110   23.6740  -22.0600 C.ar   53  DT53        0.0534
   1091  C6       -25.1980   23.8600  -22.2200 C.ar   53  DT53        0.0824
   1092  C7       -27.1460   22.3290  -22.2540 C.3    53  DT53        0.0377
   1093  P        -20.9500   23.3310  -17.8180 P.3    54  DG54        0.2141
   1094  OP1      -19.8090   23.3200  -16.8750 O.3    54  DG54       -0.4373
   1095  OP2      -21.7320   22.1050  -18.0940 O.2    54  DG54       -0.5172
   1096  O5'      -22.0240   24.4110  -17.3370 O.3    54  DG54       -0.3114
   1097  C5'      -21.6470   25.7750  -17.4560 C.3    54  DG54        0.1811
   1098  C4'      -22.5850   26.6520  -16.6830 C.3    54  DG54        0.1746
   1099  O4'      -23.6520   27.1240  -17.5380 O.3    54  DG54       -0.3327
   1100  C3'      -23.2920   25.9230  -15.5650 C.3    54  DG54        0.1558
   1101  O3'      -22.4510   25.8030  -14.4330 O.3    54  DG54       -0.3138
   1102  C2'      -24.5560   26.7510  -15.3850 C.3    54  DG54        0.0865
   1103  C1'      -24.8710   27.1070  -16.8330 C.3    54  DG54        0.2094
   1104  N9       -25.7590   26.1250  -17.5570 N.ar   54  DG54       -0.2713
   1105  C8       -25.4490   25.0140  -18.3040 C.ar   54  DG54        0.1816
   1106  N7       -26.4930   24.2950  -18.6150 N.ar   54  DG54       -0.2173
   1107  C5       -27.5560   24.9680  -18.0440 C.ar   54  DG54        0.1748
   1108  C6       -28.9430   24.6700  -18.0400 C.ar   54  DG54        0.3023
   1109  O6       -29.5220   23.7110  -18.5650 O.2    54  DG54       -0.2633
   1110  N1       -29.6780   25.6210  -17.3370 N.ar   54  DG54       -0.1709
   1111  C2       -29.1430   26.7230  -16.7150 C.ar   54  DG54        0.2606
   1112  N2       -30.0120   27.5280  -16.0880 N.pl3  54  DG54       -0.0859
   1113  N3       -27.8570   27.0130  -16.7100 N.ar   54  DG54       -0.1918
   1114  C4       -27.1240   26.1030  -17.3850 C.ar   54  DG54        0.1722
   1115  P        -22.9300   24.7090  -12.6350 P.3    55  DC55        0.2141
   1116  OP1      -21.8880   24.9370  -11.6100 O.3    55  DC55       -0.4373
   1117  OP2      -22.9390   23.4530  -13.4130 O.2    55  DC55       -0.5172
   1118  O5'      -24.3660   24.8730  -11.9480 O.3    55  DC55       -0.3114
   1119  C5'      -24.5830   25.9210  -11.0060 C.3    55  DC55        0.1811
   1120  C4'      -26.0650   26.1130  -10.7490 C.3    55  DC55        0.1746
   1121  O4'      -26.7480   26.3460  -12.0060 O.3    55  DC55       -0.3327
   1122  C3'      -26.8020   24.9140  -10.1810 C.3    55  DC55        0.1558
   1123  O3'      -26.5950   24.7990   -8.7910 O.3    55  DC55       -0.3138
   1124  C2'      -28.2320   25.3160  -10.5050 C.3    55  DC55        0.0866
   1125  C1'      -28.0500   25.7930  -11.9440 C.3    55  DC55        0.2106
   1126  N1       -28.1450   24.5190  -12.8800 N.ar   55  DC55       -0.2556
   1127  C2       -29.3690   23.9150  -13.1920 C.ar   55  DC55        0.3531
   1128  O2       -30.3630   24.1840  -12.4950 O.2    55  DC55       -0.2443
   1129  N3       -29.4340   23.0580  -14.2390 N.ar   55  DC55       -0.1739
   1130  C4       -28.3410   22.7990  -14.9570 C.ar   55  DC55        0.1759
   1131  N4       -28.4530   21.9480  -15.9800 N.pl3  55  DC55       -0.1070
   1132  C5       -27.0920   23.4010  -14.6580 C.ar   55  DC55        0.0566
   1133  C6       -27.0320   24.2460  -13.6230 C.ar   55  DC55        0.0849
   1134  P        -25.9490   23.5420   -8.3370 P.3    56  DC56        0.2141
   1135  OP1      -25.3290   23.7900   -7.0060 O.3    56  DC56       -0.4373
   1136  OP2      -25.1620   22.8290   -9.3980 O.2    56  DC56       -0.5172
   1137  O5'      -27.3110   22.7510   -8.0990 O.3    56  DC56       -0.3114
   1138  C5'      -28.2270   23.2060   -7.1270 C.3    56  DC56        0.1811
   1139  C4'      -29.4270   22.3120   -7.1100 C.3    56  DC56        0.1746
   1140  O4'      -30.1530   22.4890   -8.3480 O.3    56  DC56       -0.3327
   1141  C3'      -29.1490   20.8240   -7.0170 C.3    56  DC56        0.1558
   1142  O3'      -28.9310   20.4070   -5.6670 O.3    56  DC56       -0.3138
   1143  C2'      -30.4130   20.2250   -7.6370 C.3    56  DC56        0.0866
   1144  C1'      -30.7770   21.2730   -8.6980 C.3    56  DC56        0.2106
   1145  N1       -30.4590   20.8760  -10.0750 N.ar   56  DC56       -0.2556
   1146  C2       -31.3060   19.9650  -10.7180 C.ar   56  DC56        0.3531
   1147  O2       -32.3600   19.6280  -10.1520 O.2    56  DC56       -0.2443
   1148  N3       -30.9530   19.4790  -11.9310 N.ar   56  DC56       -0.1739
   1149  C4       -29.8120   19.8690  -12.5000 C.ar   56  DC56        0.1759
   1150  N4       -29.5050   19.3640  -13.6970 N.pl3  56  DC56       -0.1070
   1151  C5       -28.9400   20.7910  -11.8650 C.ar   56  DC56        0.0566
   1152  C6       -29.2920   21.2680  -10.6670 C.ar   56  DC56        0.0849
   1153  P        -28.0310   18.9880   -5.3250 P.3    57  DC57        0.2141
   1154  OP1      -27.7310   18.8380   -3.8840 O.3    57  DC57       -0.4373
   1155  OP2      -26.9410   19.2770   -6.2800 O.2    57  DC57       -0.5172
   1156  O5'      -28.7890   17.6720   -5.8280 O.3    57  DC57       -0.3114
   1157  C5'      -29.7870   17.0730   -5.0050 C.3    57  DC57        0.1811
   1158  C4'      -30.6080   16.0740   -5.7960 C.3    57  DC57        0.1746
   1159  O4'      -31.1690   16.7260   -6.9620 O.3    57  DC57       -0.3327
   1160  C3'      -29.8410   14.9090   -6.3950 C.3    57  DC57        0.1558
   1161  O3'      -29.5920   13.9120   -5.4310 O.3    57  DC57       -0.3138
   1162  C2'      -30.8490   14.4480   -7.4350 C.3    57  DC57        0.0866
   1163  C1'      -31.2520   15.7960   -8.0270 C.3    57  DC57        0.2106
   1164  N1       -30.2660   16.1240   -9.1040 N.ar   57  DC57       -0.2556
   1165  C2       -30.1780   15.4450  -10.3250 C.ar   57  DC57        0.3531
   1166  O2       -30.8200   14.3900  -10.4700 O.2    57  DC57       -0.2443
   1167  N3       -29.3990   15.9540  -11.3090 N.ar   57  DC57       -0.1739
   1168  C4       -28.7270   17.0890  -11.1080 C.ar   57  DC57        0.1759
   1169  N4       -27.9720   17.5530  -12.1060 N.pl3  57  DC57       -0.1070
   1170  C5       -28.8030   17.7920   -9.8780 C.ar   57  DC57        0.0566
   1171  C6       -29.5730   17.2860   -8.9090 C.ar   57  DC57        0.0849
   1172  P        -28.1540   13.4720   -5.2780 P.3    58  DC58        0.2141
   1173  OP1      -27.9490   12.6400   -4.0700 O.3    58  DC58       -0.4373
   1174  OP2      -27.0330   14.1960   -5.9180 O.2    58  DC58       -0.5172
   1175  O5'      -28.7420   12.5240   -6.4300 O.3    58  DC58       -0.3114
   1176  C5'      -29.4390   11.3210   -6.1240 C.3    58  DC58        0.1811
   1177  C4'      -29.5890   10.4060   -7.3230 C.3    58  DC58        0.1746
   1178  O4'      -29.9620   11.1700   -8.5000 O.3    58  DC58       -0.3327
   1179  C3'      -28.3640    9.5990   -7.7430 C.3    58  DC58        0.1558
   1180  O3'      -28.2800    8.3800   -7.0190 O.3    58  DC58       -0.3138
   1181  C2'      -28.5710    9.3940   -9.2400 C.3    58  DC58        0.0866
   1182  C1'      -29.3280   10.6560   -9.6510 C.3    58  DC58        0.2106
   1183  N1       -28.2430   11.6180  -10.1580 N.ar   58  DC58       -0.2556
   1184  C2       -27.8940   11.5220  -11.5110 C.ar   58  DC58        0.3531
   1185  O2       -28.4440   10.6550  -12.2100 O.2    58  DC58       -0.2443
   1186  N3       -26.9700   12.3750  -12.0150 N.ar   58  DC58       -0.1739
   1187  C4       -26.4050   13.2890  -11.2270 C.ar   58  DC58        0.1759
   1188  N4       -25.5000   14.1080  -11.7680 N.pl3  58  DC58       -0.1070
   1189  C5       -26.7450   13.4020   -9.8540 C.ar   58  DC58        0.0566
   1190  C6       -27.6570   12.5590   -9.3600 C.ar   58  DC58        0.0849
   1191  P        -27.1940    7.2870   -7.1440 P.3    59  DC59        0.2141
   1192  OP1      -27.5360    6.1300   -6.2860 O.3    59  DC59       -0.4373
   1193  OP2      -26.1410    8.2280   -6.7020 O.2    59  DC59       -0.5172
   1194  O5'      -26.8400    6.7320   -8.6160 O.3    59  DC59       -0.3114
   1195  C5'      -27.7270    5.8050   -9.3090 C.3    59  DC59        0.1811
   1196  C4'      -27.3090    5.5800  -10.7540 C.3    59  DC59        0.1746
   1197  O4'      -27.3300    6.8360  -11.4780 O.3    59  DC59       -0.3327
   1198  C3'      -25.8680    5.1420  -10.9420 C.3    59  DC59        0.1558
   1199  O3'      -25.7090    3.7550  -10.7120 O.3    59  DC59       -0.3138
   1200  C2'      -25.5940    5.5420  -12.3860 C.3    59  DC59        0.0866
   1201  C1'      -26.2860    6.8940  -12.4400 C.3    59  DC59        0.2106
   1202  N1       -25.3850    7.9700  -12.1100 N.ar   59  DC59       -0.2556
   1203  C2       -24.5930    8.5120  -13.1290 C.ar   59  DC59        0.3531
   1204  O2       -24.6540    8.0110  -14.2650 O.2    59  DC59       -0.2443
   1205  N3       -23.7850    9.5630  -12.8480 N.ar   59  DC59       -0.1739
   1206  C4       -23.7520   10.0680  -11.6150 C.ar   59  DC59        0.1759
   1207  N4       -22.9410   11.1030  -11.3850 N.pl3  59  DC59       -0.1070
   1208  C5       -24.5470    9.5330  -10.5690 C.ar   59  DC59        0.0566
   1209  C6       -25.3430    8.4960  -10.8500 C.ar   59  DC59        0.0849
   1210  P        -24.4180    3.2720   -9.9020 P.3    60  DA60        0.2141
   1211  OP1      -24.8070    1.9320   -9.4020 O.2    60  DA60       -0.5172
   1212  OP2      -23.8110    4.2580   -8.9690 O.3    60  DA60       -0.4373
   1213  O5'      -23.4260    3.0830  -11.1310 O.3    60  DA60       -0.3114
   1214  C5'      -23.7950    2.2670  -12.2250 C.3    60  DA60        0.1811
   1215  C4'      -23.1090    2.7360  -13.4760 C.3    60  DA60        0.1746
   1216  O4'      -23.2990    4.1630  -13.6160 O.3    60  DA60       -0.3327
   1217  C3'      -21.5990    2.6180  -13.5040 C.3    60  DA60        0.1558
   1218  O3'      -21.1910    1.2810  -13.7640 O.3    60  DA60       -0.3138
   1219  C2'      -21.2520    3.5540  -14.6530 C.3    60  DA60        0.0865
   1220  C1'      -22.2490    4.6910  -14.4140 C.3    60  DA60        0.2094
   1221  N9       -21.7190    5.7820  -13.7020 N.ar   60  DA60       -0.2714
   1222  C8       -22.1270    6.1200  -12.4380 C.ar   60  DA60        0.1815
   1223  N7       -21.5880    7.2280  -11.9860 N.ar   60  DA60       -0.2193
   1224  C5       -20.7700    7.6460  -13.0240 C.ar   60  DA60        0.1518
   1225  C6       -19.9230    8.7590  -13.1720 C.ar   60  DA60        0.1919
   1226  N6       -19.7570    9.6910  -12.2310 N.pl3  60  DA60       -0.1054
   1227  N1       -19.2460    8.8810  -14.3340 N.ar   60  DA60       -0.2040
   1228  C2       -19.4140    7.9460  -15.2760 C.ar   60  DA60        0.2016
   1229  N3       -20.1810    6.8580  -15.2540 N.ar   60  DA60       -0.2048
   1230  C4       -20.8390    6.7650  -14.0870 C.ar   60  DA60        0.1691
   1231  P        -19.9840    0.6850  -12.9840 P.3    61  DC61        0.2141
   1232  OP1      -20.0540   -0.7780  -13.2250 O.2    61  DC61       -0.5172
   1233  OP2      -19.6820    1.1900  -11.6120 O.3    61  DC61       -0.4373
   1234  O5'      -18.8880    1.3100  -13.9390 O.3    61  DC61       -0.3114
   1235  C5'      -18.9500    1.1120  -15.3340 C.3    61  DC61        0.1811
   1236  C4'      -17.8840    1.9370  -16.0030 C.3    61  DC61        0.1746
   1237  O4'      -18.2840    3.3310  -16.0180 O.3    61  DC61       -0.3327
   1238  C3'      -16.5160    1.9340  -15.3400 C.3    61  DC61        0.1558
   1239  O3'      -15.7530    0.7700  -15.6660 O.3    61  DC61       -0.3138
   1240  C2'      -15.9110    3.2360  -15.8530 C.3    61  DC61        0.0866
   1241  C1'      -17.1400    4.1510  -15.9320 C.3    61  DC61        0.2106
   1242  N1       -17.3300    5.0640  -14.6990 N.ar   61  DC61       -0.2556
   1243  C2       -16.5900    6.2520  -14.6950 C.ar   61  DC61        0.3532
   1244  O2       -16.0320    6.6130  -15.7450 O.2    61  DC61       -0.2443
   1245  N3       -16.5020    6.9700  -13.5500 N.ar   61  DC61       -0.1716
   1246  C4       -17.1170    6.5440  -12.4460 C.ar   61  DC61        0.2031
   1247  N4       -17.0020    7.2840  -11.3410 N.pl3  61  DC61        0.0162
   1248  C5       -17.8720    5.3430  -12.4300 C.ar   61  DC61        0.0589
   1249  C6       -17.9560    4.6370  -13.5620 C.ar   61  DC61        0.0850
   1250  P        -14.3490    0.4550  -14.8770 P.3    62  DC62        0.2141
   1251  OP1      -14.0290   -0.8180  -15.5550 O.2    62  DC62       -0.5172
   1252  OP2      -14.6440    0.4540  -13.4270 O.3    62  DC62       -0.4373
   1253  O5'      -13.1100    1.4480  -15.0440 O.3    62  DC62       -0.3114
   1254  C5'      -12.6220    1.7160  -16.3500 C.3    62  DC62        0.1811
   1255  C4'      -11.9730    3.0730  -16.4340 C.3    62  DC62        0.1746
   1256  O4'      -12.9690    4.1110  -16.2310 O.3    62  DC62       -0.3327
   1257  C3'      -10.9420    3.3840  -15.3650 C.3    62  DC62        0.1558
   1258  O3'       -9.6960    2.7370  -15.5640 O.3    62  DC62       -0.3138
   1259  C2'      -10.8910    4.9020  -15.4550 C.3    62  DC62        0.0866
   1260  C1'      -12.3790    5.2190  -15.5910 C.3    62  DC62        0.2106
   1261  N1       -12.9710    5.4330  -14.2510 N.ar   62  DC62       -0.2556
   1262  C2       -12.8410    6.6950  -13.6590 C.ar   62  DC62        0.3531
   1263  O2       -12.2520    7.5910  -14.2860 O.2    62  DC62       -0.2443
   1264  N3       -13.3590    6.9000  -12.4240 N.ar   62  DC62       -0.1739
   1265  C4       -13.9840    5.9080  -11.7890 C.ar   62  DC62        0.1759
   1266  N4       -14.4780    6.1570  -10.5740 N.pl3  62  DC62       -0.1070
   1267  C5       -14.1260    4.6220  -12.3720 C.ar   62  DC62        0.0566
   1268  C6       -13.6130    4.4240  -13.5910 C.ar   62  DC62        0.0849
   1269  P         -9.0320    2.2380  -14.3930 P.3    63  DT63        0.2141
   1270  OP1       -8.1780    1.5000  -15.3560 O.2    63  DT63       -0.5172
   1271  OP2       -9.3780    1.6540  -13.0760 O.3    63  DT63       -0.4373
   1272  O5'       -8.3790    3.6590  -14.0450 O.3    63  DT63       -0.3114
   1273  C5'       -8.0120    4.5020  -15.1330 C.3    63  DT63        0.1811
   1274  C4'       -7.7430    5.9390  -14.7420 C.3    63  DT63        0.1746
   1275  O4'       -9.0180    6.5880  -14.4760 O.3    63  DT63       -0.3327
   1276  C3'       -6.8880    6.1490  -13.4940 C.3    63  DT63        0.1558
   1277  O3'       -5.5590    6.5850  -13.7540 O.3    63  DT63       -0.3138
   1278  C2'       -7.5950    7.2300  -12.6860 C.3    63  DT63        0.0866
   1279  C1'       -8.9640    7.3860  -13.3130 C.3    63  DT63        0.2106
   1280  N1        -9.8850    6.9510  -12.3530 N.ar   63  DT63       -0.2559
   1281  C2       -10.3150    7.8950  -11.4400 C.ar   63  DT63        0.3545
   1282  O2       -10.0230    9.0750  -11.5180 O.2    63  DT63       -0.2443
   1283  N3       -11.1010    7.4060  -10.4240 N.ar   63  DT63       -0.1533
   1284  C4       -11.4930    6.0970  -10.2350 C.ar   63  DT63        0.2804
   1285  O4       -12.2030    5.8110   -9.2740 O.2    63  DT63       -0.2654
   1286  C5       -11.0060    5.1770  -11.2240 C.ar   63  DT63        0.0534
   1287  C6       -10.2390    5.6260  -12.2220 C.ar   63  DT63        0.0824
   1288  C7       -11.3770    3.7290  -11.1050 C.3    63  DT63        0.0377
   1289  P         -4.5530    5.7910  -12.7440 P.3    64  DA64        0.2141
   1290  OP1       -3.3220    6.2600  -13.4090 O.2    64  DA64       -0.5172
   1291  OP2       -4.5670    4.5600  -11.9240 O.3    64  DA64       -0.4373
   1292  O5'       -4.9920    7.0370  -11.8710 O.3    64  DA64       -0.3114
   1293  C5'       -4.3140    8.2510  -12.1130 C.3    64  DA64        0.1811
   1294  C4'       -4.7230    9.2230  -11.0360 C.3    64  DA64        0.1746
   1295  O4'       -6.1380    9.1040  -10.7720 O.3    64  DA64       -0.3327
   1296  C3'       -4.1040    8.8710   -9.7090 C.3    64  DA64        0.1558
   1297  O3'       -2.8010    9.3400   -9.7550 O.3    64  DA64       -0.3138
   1298  C2'       -4.9870    9.6940   -8.7940 C.3    64  DA64        0.0865
   1299  C1'       -6.3540    9.4660   -9.4220 C.3    64  DA64        0.2094
   1300  N9        -7.0450    8.3500   -8.7610 N.ar   64  DA64       -0.2714
   1301  C8        -7.2130    7.1050   -9.3070 C.ar   64  DA64        0.1815
   1302  N7        -7.9800    6.3140   -8.5950 N.ar   64  DA64       -0.2193
   1303  C5        -8.3400    7.0930   -7.5060 C.ar   64  DA64        0.1518
   1304  C6        -9.1460    6.8350   -6.3830 C.ar   64  DA64        0.1919
   1305  N6        -9.7600    5.6690   -6.1660 N.pl3  64  DA64       -0.1054
   1306  N1        -9.3000    7.8270   -5.4820 N.ar   64  DA64       -0.2040
   1307  C2        -8.6850    8.9950   -5.7010 C.ar   64  DA64        0.2016
   1308  N3        -7.9050    9.3570   -6.7160 N.ar   64  DA64       -0.2048
   1309  C4        -7.7710    8.3490   -7.5940 C.ar   64  DA64        0.1691
   1310  P         -1.8810    8.5850   -8.9180 P.3    65  DT65        0.2141
   1311  OP1       -0.4800    9.0450   -9.1220 O.3    65  DT65       -0.4373
   1312  OP2       -2.2750    7.2050   -9.3200 O.2    65  DT65       -0.5172
   1313  O5'       -2.3310    8.7480   -7.4020 O.3    65  DT65       -0.3114
   1314  C5'       -2.0430    9.9340   -6.6790 C.3    65  DT65        0.1811
   1315  C4'       -2.2320    9.6870   -5.2040 C.3    65  DT65        0.1746
   1316  O4'       -3.6480    9.5410   -4.9320 O.3    65  DT65       -0.3327
   1317  C3'       -1.5980    8.4150   -4.6690 C.3    65  DT65        0.1558
   1318  O3'       -0.2180    8.5740   -4.3420 O.3    65  DT65       -0.3138
   1319  C2'       -2.4620    8.1000   -3.4560 C.3    65  DT65        0.0866
   1320  C1'       -3.8390    8.5820   -3.9140 C.3    65  DT65        0.2106
   1321  N1        -4.6760    7.5000   -4.4980 N.ar   65  DT65       -0.2559
   1322  C2        -5.3740    6.7410   -3.5790 C.ar   65  DT65        0.3545
   1323  O2        -5.4050    7.0010   -2.3890 O.2    65  DT65       -0.2443
   1324  N3        -6.0390    5.6590   -4.1030 N.ar   65  DT65       -0.1533
   1325  C4        -6.0740    5.2680   -5.4260 C.ar   65  DT65        0.2804
   1326  O4        -6.7170    4.2710   -5.7450 O.2    65  DT65       -0.2654
   1327  C5        -5.3240    6.1060   -6.3180 C.ar   65  DT65        0.0534
   1328  C6        -4.6680    7.1650   -5.8350 C.ar   65  DT65        0.0824
   1329  C7        -5.3000    5.7630   -7.7780 C.3    65  DT65        0.0377
   1330  P          0.8010    7.2510   -4.2770 P.3    66  DG66        0.2141
   1331  OP1        2.1040    7.9430   -4.2430 O.3    66  DG66       -0.4373
   1332  OP2        0.4940    6.3810   -5.4210 O.2    66  DG66       -0.5172
   1333  O5'        0.6410    6.3650   -2.9590 O.3    66  DG66       -0.3114
   1334  C5'        0.8900    6.8580   -1.6630 C.3    66  DG66        0.1811
   1335  C4'        0.1400    6.0000   -0.6620 C.3    66  DG66        0.1746
   1336  O4'       -1.2790    5.9900   -0.9680 O.3    66  DG66       -0.3327
   1337  C3'        0.4740    4.5200   -0.6820 C.3    66  DG66        0.1558
   1338  O3'        1.7210    4.2810   -0.0350 O.3    66  DG66       -0.3138
   1339  C2'       -0.7400    3.9650    0.0760 C.3    66  DG66        0.0865
   1340  C1'       -1.8700    4.7550   -0.5730 C.3    66  DG66        0.2094
   1341  N9        -2.3680    4.0270   -1.7170 N.ar   66  DG66       -0.2713
   1342  C8        -2.2070    4.2480   -3.0640 C.ar   66  DG66        0.1816
   1343  N7        -2.7850    3.3440   -3.8070 N.ar   66  DG66       -0.2173
   1344  C5        -3.3640    2.4750   -2.9010 C.ar   66  DG66        0.1748
   1345  C6        -4.1260    1.2970   -3.1110 C.ar   66  DG66        0.3023
   1346  O6        -4.4500    0.7750   -4.1850 O.2    66  DG66       -0.2633
   1347  N1        -4.5230    0.7130   -1.9100 N.ar   66  DG66       -0.1709
   1348  C2        -4.2220    1.2040   -0.6630 C.ar   66  DG66        0.2606
   1349  N2        -4.6930    0.5030    0.3780 N.pl3  66  DG66       -0.0859
   1350  N3        -3.5140    2.2970   -0.4520 N.ar   66  DG66       -0.1918
   1351  C4        -3.1180    2.8800   -1.6040 C.ar   66  DG66        0.1722
   1352  P          2.6640    2.9950   -0.3780 P.3    67  DC67        0.2141
   1353  OP1        4.0090    2.9970    0.2320 O.3    67  DC67       -0.4373
   1354  OP2        2.4830    3.1270   -1.8450 O.2    67  DC67       -0.5172
   1355  O5'        1.9290    1.7110    0.2090 O.3    67  DC67       -0.3114
   1356  C5'        2.1180    1.4100    1.5810 C.3    67  DC67        0.1811
   1357  C4'        1.3230    0.1830    1.9650 C.3    67  DC67        0.1746
   1358  O4'       -0.0240    0.3410    1.4770 O.3    67  DC67       -0.3327
   1359  C3'        1.7800   -1.0820    1.2880 C.3    67  DC67        0.1558
   1360  O3'        2.8390   -1.6650    1.9810 O.3    67  DC67       -0.3138
   1361  C2'        0.5290   -1.9190    1.4040 C.3    67  DC67        0.0866
   1362  C1'       -0.5410   -0.9030    1.0550 C.3    67  DC67        0.2106
   1363  N1        -0.8590   -0.8560   -0.3670 N.ar   67  DC67       -0.2556
   1364  C2        -1.7490   -1.7800   -0.9270 C.ar   67  DC67        0.3531
   1365  O2        -2.1270   -2.7410   -0.2350 O.2    67  DC67       -0.2443
   1366  N3        -2.1690   -1.6020   -2.2020 N.ar   67  DC67       -0.1739
   1367  C4        -1.7360   -0.5560   -2.9070 C.ar   67  DC67        0.1759
   1368  N4        -2.1770   -0.4210   -4.1600 N.pl3  67  DC67       -0.1070
   1369  C5        -0.8340    0.3920   -2.3580 C.ar   67  DC67        0.0566
   1370  C6        -0.4220    0.2120   -1.0980 C.ar   67  DC67        0.0849
   1371  P          4.0280   -2.1430    1.2740 P.3    68  DG68        0.2141
   1372  OP1        4.6290   -2.6810    2.5180 O.3    68  DG68       -0.4373
   1373  OP2        4.8250   -1.2310    0.4140 O.2    68  DG68       -0.5172
   1374  O5'        3.5420   -3.3700    0.3830 O.3    68  DG68       -0.3114
   1375  C5'        2.4620   -4.1990    0.8070 C.3    68  DG68        0.1811
   1376  C4'        2.0760   -5.1530   -0.3000 C.3    68  DG68        0.1746
   1377  O4'        1.4110   -4.4470   -1.3810 O.3    68  DG68       -0.3327
   1378  C3'        3.2600   -5.8430   -0.9560 C.3    68  DG68        0.1558
   1379  O3'        3.6260   -6.9780   -0.1870 O.3    68  DG68       -0.3138
   1380  C2'        2.7190   -6.1940   -2.3390 C.3    68  DG68        0.0865
   1381  C1'        1.8140   -4.9920   -2.6290 C.3    68  DG68        0.2094
   1382  N9         2.4320   -3.8850   -3.3490 N.ar   68  DG68       -0.2713
   1383  C8         3.0850   -2.7990   -2.8180 C.ar   68  DG68        0.1816
   1384  N7         3.5920   -2.0090   -3.7240 N.ar   68  DG68       -0.2173
   1385  C5         3.2540   -2.6030   -4.9250 C.ar   68  DG68        0.1748
   1386  C6         3.5290   -2.2090   -6.2600 C.ar   68  DG68        0.3023
   1387  O6         4.1520   -1.2140   -6.6520 O.2    68  DG68       -0.2633
   1388  N1         3.0010   -3.1040   -7.1870 N.ar   68  DG68       -0.1709
   1389  C2         2.2950   -4.2380   -6.8670 C.ar   68  DG68        0.2606
   1390  N2         1.8640   -4.9770   -7.8980 N.pl3  68  DG68       -0.0859
   1391  N3         2.0320   -4.6180   -5.6320 N.ar   68  DG68       -0.1918
   1392  C4         2.5360   -3.7650   -4.7150 C.ar   68  DG68        0.1722
   1393  P          5.0550   -7.8140   -0.5320 P.3    69  DT69        0.2141
   1394  OP1        5.2310   -8.9600    0.3890 O.3    69  DT69       -0.4373
   1395  OP2        5.9340   -6.6240   -0.4070 O.2    69  DT69       -0.5172
   1396  O5'        5.1390   -8.3050   -2.0450 O.3    69  DT69       -0.3114
   1397  C5'        4.4170   -9.4540   -2.4830 C.3    69  DT69        0.1811
   1398  C4'        4.4580   -9.5740   -3.9950 C.3    69  DT69        0.1746
   1399  O4'        3.9730   -8.3340   -4.5660 O.3    69  DT69       -0.3327
   1400  C3'        5.8010   -9.8070   -4.6810 C.3    69  DT69        0.1558
   1401  O3'        6.2120  -11.1750   -4.7310 O.3    69  DT69       -0.3138
   1402  C2'        5.5490   -9.2670   -6.0820 C.3    69  DT69        0.0866
   1403  C1'        4.6200   -8.0890   -5.8020 C.3    69  DT69        0.2106
   1404  N1         5.3760   -6.8530   -5.6640 N.ar   69  DT69       -0.2559
   1405  C2         5.9660   -6.2610   -6.7650 C.ar   69  DT69        0.3545
   1406  O2         5.9570   -6.7640   -7.8740 O.2    69  DT69       -0.2443
   1407  N3         6.5720   -5.0530   -6.5190 N.ar   69  DT69       -0.1533
   1408  C4         6.6450   -4.3920   -5.3110 C.ar   69  DT69        0.2804
   1409  O4         7.2240   -3.3100   -5.2470 O.2    69  DT69       -0.2654
   1410  C5         6.0100   -5.0710   -4.2170 C.ar   69  DT69        0.0534
   1411  C6         5.4130   -6.2470   -4.4270 C.ar   69  DT69        0.0824
   1412  C7         6.0360   -4.4320   -2.8600 C.3    69  DT69        0.0377
   1413  P          7.8180  -11.5260   -4.7220 P.3    70  DG70        0.2141
   1414  OP1        7.7070  -12.9750   -5.0010 O.2    70  DG70       -0.5172
   1415  OP2        8.5170  -11.0440   -3.5100 O.3    70  DG70       -0.4373
   1416  O5'        8.5880  -10.8350   -5.9400 O.3    70  DG70       -0.3114
   1417  C5'        8.1660  -11.1540   -7.2560 C.3    70  DG70        0.1811
   1418  C4'        8.9820  -10.4190   -8.2840 C.3    70  DG70        0.1746
   1419  O4'        8.5870   -9.0240   -8.3080 O.3    70  DG70       -0.3327
   1420  C3'       10.4760  -10.3510   -8.0160 C.3    70  DG70        0.1558
   1421  O3'       11.1780  -11.5320   -8.3470 O.3    70  DG70       -0.3138
   1422  C2'       10.8840   -9.1500   -8.8500 C.3    70  DG70        0.0865
   1423  C1'        9.7180   -8.2130   -8.5450 C.3    70  DG70        0.2094
   1424  N9         9.9620   -7.4010   -7.3060 N.ar   70  DG70       -0.2713
   1425  C8         9.1270   -7.4050   -6.2150 C.ar   70  DG70        0.1816
   1426  N7         9.4120   -6.4760   -5.3440 N.ar   70  DG70       -0.2173
   1427  C5        10.4980   -5.8170   -5.8900 C.ar   70  DG70        0.1748
   1428  C6        11.2510   -4.7180   -5.4020 C.ar   70  DG70        0.3023
   1429  O6        11.0930   -4.0890   -4.3480 O.2    70  DG70       -0.2633
   1430  N1        12.2770   -4.3620   -6.2730 N.ar   70  DG70       -0.1709
   1431  C2        12.5440   -4.9880   -7.4670 C.ar   70  DG70        0.2606
   1432  N2        13.5750   -4.5010   -8.1720 N.pl3  70  DG70       -0.0859
   1433  N3        11.8540   -6.0100   -7.9330 N.ar   70  DG70       -0.1918
   1434  C4        10.8540   -6.3740   -7.1030 C.ar   70  DG70        0.1722
   1435  P         12.2290  -11.9200   -7.2730 P.3    71  DC71        0.2141
   1436  OP1       12.2250  -13.3550   -7.6600 O.2    71  DC71       -0.5172
   1437  OP2       12.3880  -11.5490   -5.8410 O.3    71  DC71       -0.4373
   1438  O5'       13.3550  -11.1760   -8.1290 O.3    71  DC71       -0.3114
   1439  C5'       14.7470  -11.3440   -7.8110 C.3    71  DC71        0.1811
   1440  C4'       15.5500  -10.1470   -8.2660 C.3    71  DC71        0.1746
   1441  O4'       14.8010   -8.9180   -8.0770 O.3    71  DC71       -0.3327
   1442  C3'       16.8330   -9.9430   -7.4830 C.3    71  DC71        0.1558
   1443  O3'       17.8690  -10.7570   -8.0150 O.3    71  DC71       -0.3138
   1444  C2'       17.1010   -8.4470   -7.6430 C.3    71  DC71        0.0866
   1445  C1'       15.6800   -7.8770   -7.6680 C.3    71  DC71        0.2106
   1446  N1        15.0730   -7.4190   -6.4510 N.ar   71  DC71       -0.2556
   1447  C2        15.5660   -6.2150   -5.9350 C.ar   71  DC71        0.3531
   1448  O2        16.3670   -5.5550   -6.6200 O.2    71  DC71       -0.2443
   1449  N3        15.1600   -5.8060   -4.7100 N.ar   71  DC71       -0.1739
   1450  C4        14.2990   -6.5470   -4.0110 C.ar   71  DC71        0.1759
   1451  N4        13.9270   -6.1040   -2.8080 N.pl3  71  DC71       -0.1070
   1452  C5        13.7870   -7.7700   -4.5160 C.ar   71  DC71        0.0566
   1453  C6        14.1920   -8.1700   -5.7260 C.ar   71  DC71        0.0849
   1454  P         19.1360  -11.3440   -7.0360 P.3    72  DT72        0.2141
   1455  OP1       20.1730  -12.1680   -7.6990 O.2    72  DT72       -0.5172
   1456  OP2       18.3940  -11.8840   -5.8730 O.3    72  DT72       -0.4373
   1457  O5'       19.7740   -9.9730   -6.5420 O.3    72  DT72       -0.3114
   1458  C5'       20.3040   -9.0170   -7.4780 C.3    72  DT72        0.1811
   1459  C4'       20.8120   -7.8050   -6.7380 C.3    72  DT72        0.1746
   1460  O4'       19.7090   -6.9300   -6.3670 O.3    72  DT72       -0.3327
   1461  C3'       21.4840   -8.1200   -5.4160 C.3    72  DT72        0.1558
   1462  O3'       22.8230   -8.5570   -5.5380 O.3    72  DT72       -0.3138
   1463  C2'       21.3580   -6.8120   -4.6430 C.3    72  DT72        0.0866
   1464  C1'       20.0060   -6.2880   -5.1320 C.3    72  DT72        0.2106
   1465  N1        18.9860   -6.5910   -4.1260 N.ar   72  DT72       -0.2559
   1466  C2        18.9140   -5.6750   -3.0940 C.ar   72  DT72        0.3545
   1467  O2        19.5070   -4.6100   -3.1080 O.2    72  DT72       -0.2443
   1468  N3        18.1210   -6.0510   -2.0370 N.ar   72  DT72       -0.1533
   1469  C4        17.4080   -7.2250   -1.9120 C.ar   72  DT72        0.2804
   1470  O4        16.7380   -7.4220   -0.9010 O.2    72  DT72       -0.2654
   1471  C5        17.5340   -8.1250   -3.0240 C.ar   72  DT72        0.0534
   1472  C6        18.2990   -7.7830   -4.0650 C.ar   72  DT72        0.0824
   1473  C7        16.7960   -9.4300   -2.9820 C.3    72  DT72        0.0377
   1474  P         23.3930   -9.4820   -4.5560 P.3    73  DA73        0.2141
   1475  OP1       23.8400  -10.8440   -4.9280 O.2    73  DA73       -0.5172
   1476  OP2       22.3360   -9.3410   -3.5310 O.3    73  DA73       -0.4373
   1477  O5'       24.6510   -8.5960   -4.1120 O.3    73  DA73       -0.3114
   1478  C5'       25.1700   -8.7730   -2.8120 C.3    73  DA73        0.1811
   1479  C4'       25.0560   -7.5280   -1.9490 C.3    73  DA73        0.1746
   1480  O4'       24.0220   -6.6070   -2.3790 O.3    73  DA73       -0.3327
   1481  C3'       24.6250   -7.7680   -0.5120 C.3    73  DA73        0.1558
   1482  O3'       25.5880   -8.5100    0.2090 O.3    73  DA73       -0.3138
   1483  C2'       24.4340   -6.3200   -0.0650 C.3    73  DA73        0.0865
   1484  C1'       23.5620   -5.8870   -1.2390 C.3    73  DA73        0.2094
   1485  N9        22.1680   -6.1380   -0.8680 N.ar   73  DA73       -0.2714
   1486  C8        21.3910   -6.8050   -1.7780 C.ar   73  DA73        0.1815
   1487  N7        20.1020   -6.6770   -1.5680 N.ar   73  DA73       -0.2193
   1488  C5        20.0280   -5.8730   -0.4410 C.ar   73  DA73        0.1518
   1489  C6        18.9390   -5.3680    0.2910 C.ar   73  DA73        0.1919
   1490  N6        17.6630   -5.6110   -0.0200 N.pl3  73  DA73       -0.1054
   1491  N1        19.2100   -4.5960    1.3650 N.ar   73  DA73       -0.2040
   1492  C2        20.4880   -4.3520    1.6740 C.ar   73  DA73        0.2016
   1493  N3        21.5950   -4.7690    1.0630 N.ar   73  DA73       -0.2048
   1494  C4        21.2920   -5.5340    0.0020 C.ar   73  DA73        0.1691
   1495  P         25.1780   -9.8410    0.3940 P.3    74  DC74        0.2141
   1496  OP1       26.1570  -10.9380    0.6310 O.3    74  DC74       -0.4373
   1497  OP2       23.9920  -10.0840   -0.4780 O.2    74  DC74       -0.5172
   1498  O5'       24.6760   -9.3180    1.8180 O.3    74  DC74       -0.3114
   1499  C5'       25.6100   -8.7740    2.7810 C.3    74  DC74        0.1811
   1500  C4'       24.9540   -7.6930    3.6310 C.3    74  DC74        0.1746
   1501  O4'       24.0050   -6.9370    2.8250 O.3    74  DC74       -0.3327
   1502  C3'       24.1310   -8.1170    4.8410 C.3    74  DC74        0.1558
   1503  O3'       24.9150   -8.3650    5.9960 O.3    74  DC74       -0.3138
   1504  C2'       23.2520   -6.8990    5.0710 C.3    74  DC74        0.0866
   1505  C1'       22.9500   -6.4610    3.6420 C.3    74  DC74        0.2106
   1506  N1        21.6870   -7.0490    3.1480 N.ar   74  DC74       -0.2556
   1507  C2        20.4690   -6.5470    3.6190 C.ar   74  DC74        0.3531
   1508  O2        20.4840   -5.6780    4.5090 O.2    74  DC74       -0.2443
   1509  N3        19.3130   -7.0200    3.0950 N.ar   74  DC74       -0.1739
   1510  C4        19.3450   -7.9530    2.1430 C.ar   74  DC74        0.1759
   1511  N4        18.1810   -8.3890    1.6570 N.pl3  74  DC74       -0.1070
   1512  C5        20.5690   -8.4750    1.6520 C.ar   74  DC74        0.0566
   1513  C6        21.7080   -8.0050    2.1720 C.ar   74  DC74        0.0849
   1514  P         24.3250   -9.1690    7.0670 P.3    75  DC75        0.2141
   1515  OP1       25.5670   -9.6140    7.7420 O.3    75  DC75       -0.4373
   1516  OP2       23.6030  -10.0840    6.1520 O.2    75  DC75       -0.5172
   1517  O5'       23.2100   -8.7280    8.1270 O.3    75  DC75       -0.3114
   1518  C5'       23.5810   -7.7330    9.0690 C.3    75  DC75        0.1811
   1519  C4'       22.4990   -6.7080    9.2890 C.3    75  DC75        0.1746
   1520  O4'       21.7850   -6.4510    8.0520 O.3    75  DC75       -0.3327
   1521  C3'       21.3890   -7.1010   10.2480 C.3    75  DC75        0.1558
   1522  O3'       21.7630   -7.0410   11.6120 O.3    75  DC75       -0.3138
   1523  C2'       20.2980   -6.1120    9.8720 C.3    75  DC75        0.0866
   1524  C1'       20.4420   -6.1170    8.3500 C.3    75  DC75        0.2106
   1525  N1        19.4950   -7.2230    7.8740 N.ar   75  DC75       -0.2556
   1526  C2        18.0990   -7.1300    7.8940 C.ar   75  DC75        0.3531
   1527  O2        17.5690   -6.2410    8.5830 O.2    75  DC75       -0.2443
   1528  N3        17.3690   -8.0090    7.1670 N.ar   75  DC75       -0.1739
   1529  C4        17.9810   -8.9470    6.4440 C.ar   75  DC75        0.1759
   1530  N4        17.2200   -9.7910    5.7430 N.pl3  75  DC75       -0.1070
   1531  C5        19.3950   -9.0580    6.4100 C.ar   75  DC75        0.0566
   1532  C6        20.1120   -8.1880    7.1300 C.ar   75  DC75        0.0849
   1533  P         21.4050   -8.2920   12.5090 P.3    76  DG76        0.2141
   1534  OP1       22.0570   -8.1070   13.8290 O.3    76  DG76       -0.4373
   1535  OP2       21.8560   -9.3920   11.6210 O.2    76  DG76       -0.5172
   1536  O5'       19.8200   -8.3790   12.7220 O.3    76  DG76       -0.3114
   1537  C5'       19.2220   -7.7620   13.8560 C.3    76  DG76        0.1811
   1538  C4'       17.7170   -7.8690   13.7720 C.3    76  DG76        0.1746
   1539  O4'       17.3010   -7.7050   12.3960 O.3    76  DG76       -0.3327
   1540  C3'       17.1670   -9.2320   14.1200 C.3    76  DG76        0.1558
   1541  O3'       17.0920   -9.4100   15.5130 O.3    76  DG76       -0.3138
   1542  C2'       15.7840   -9.1490   13.4870 C.3    76  DG76        0.0865
   1543  C1'       16.0840   -8.3970   12.1980 C.3    76  DG76        0.2094
   1544  N9        16.2010   -9.2020   11.0470 N.ar   76  DG76       -0.2713
   1545  C8        17.3530   -9.6930   10.4810 C.ar   76  DG76        0.1816
   1546  N7        17.1310  -10.5100    9.4880 N.ar   76  DG76       -0.2173
   1547  C5        15.7530  -10.5630    9.3880 C.ar   76  DG76        0.1748
   1548  C6        14.9190  -11.2860    8.4970 C.ar   76  DG76        0.3023
   1549  O6        15.2540  -12.0510    7.5840 O.2    76  DG76       -0.2633
   1550  N1        13.5680  -11.0540    8.7440 N.ar   76  DG76       -0.1709
   1551  C2        13.0820  -10.2270    9.7290 C.ar   76  DG76        0.2606
   1552  N2        11.7480  -10.1300    9.8120 N.pl3  76  DG76       -0.0859
   1553  N3        13.8440   -9.5500   10.5640 N.ar   76  DG76       -0.1918
   1554  C4        15.1590   -9.7610   10.3440 C.ar   76  DG76        0.1722
   1555  P         16.2030  -10.8290   16.0810 P.3    77  DT77        0.2141
   1556  OP1       15.9480  -11.0260   17.5230 O.3    77  DT77       -0.4373
   1557  OP2       17.0360  -11.8120   15.3440 O.2    77  DT77       -0.5172
   1558  O5'       14.7770  -10.7470   15.3400 O.3    77  DT77       -0.3114
   1559  C5'       13.5990  -10.2250   15.9720 C.3    77  DT77        0.1811
   1560  C4'       12.3410  -10.7150   15.2740 C.3    77  DT77        0.1746
   1561  O4'       12.3770  -10.3170   13.8820 O.3    77  DT77       -0.3327
   1562  C3'       12.1630  -12.2280   15.1560 C.3    77  DT77        0.1558
   1563  O3'       11.7030  -12.8730   16.3200 O.3    77  DT77       -0.3138
   1564  C2'       11.1450  -12.3260   14.0220 C.3    77  DT77        0.0866
   1565  C1'       11.8210  -11.3510   13.0700 C.3    77  DT77        0.2106
   1566  N1        12.8920  -11.9680   12.2230 N.ar   77  DT77       -0.2559
   1567  C2        12.4300  -12.7980   11.2180 C.ar   77  DT77        0.3545
   1568  O2        11.2520  -12.8900   10.9220 O.2    77  DT77       -0.2443
   1569  N3        13.4020  -13.5220   10.5700 N.ar   77  DT77       -0.1533
   1570  C4        14.7580  -13.5000   10.8190 C.ar   77  DT77        0.2804
   1571  O4        15.5080  -14.2070   10.1510 O.2    77  DT77       -0.2654
   1572  C5        15.1590  -12.6150   11.8770 C.ar   77  DT77        0.0534
   1573  C6        14.2350  -11.8990   12.5240 C.ar   77  DT77        0.0824
   1574  C7        16.6150  -12.5210   12.2250 C.3    77  DT77        0.0377
   1575  P         12.2140  -14.3130   16.5540 P.3    78  DG78        0.2141
   1576  OP1       11.4740  -14.6210   17.8000 O.3    78  DG78       -0.4373
   1577  OP2       13.6330  -13.8820   16.6230 O.2    78  DG78       -0.5172
   1578  O5'       12.2170  -15.5750   15.5640 O.3    78  DG78       -0.3114
   1579  C5'       11.0190  -16.2270   15.1580 C.3    78  DG78        0.1811
   1580  C4'       11.3220  -17.4960   14.3960 C.3    78  DG78        0.1746
   1581  O4'       11.9370  -17.1500   13.1290 O.3    78  DG78       -0.3327
   1582  C3'       12.3130  -18.4540   15.0500 C.3    78  DG78        0.1558
   1583  O3'       11.7260  -19.3380   15.9900 O.3    78  DG78       -0.3138
   1584  C2'       12.9470  -19.1740   13.8660 C.3    78  DG78        0.0865
   1585  C1'       12.9660  -18.0670   12.8140 C.3    78  DG78        0.2094
   1586  N9        14.2350  -17.3410   12.8040 N.ar   78  DG78       -0.2713
   1587  C8        14.5710  -16.1810   13.4600 C.ar   78  DG78        0.1816
   1588  N7        15.8360  -15.8780   13.3540 N.ar   78  DG78       -0.2173
   1589  C5        16.3690  -16.8930   12.5820 C.ar   78  DG78        0.1748
   1590  C6        17.6960  -17.1110   12.1320 C.ar   78  DG78        0.3023
   1591  O6        18.6990  -16.4150   12.3380 O.2    78  DG78       -0.2633
   1592  N1        17.8040  -18.2710   11.3700 N.ar   78  DG78       -0.1709
   1593  C2        16.7610  -19.1170   11.0770 C.ar   78  DG78        0.2606
   1594  N2        17.0600  -20.1860   10.3270 N.pl3  78  DG78       -0.0859
   1595  N3        15.5230  -18.9280   11.4890 N.ar   78  DG78       -0.1918
   1596  C4        15.3950  -17.8080   12.2320 C.ar   78  DG78        0.1722
   1597  P         12.7840  -20.1320   17.4140 P.3    79  DA79        0.2141
   1598  OP1       11.7120  -20.7720   18.2340 O.3    79  DA79       -0.4373
   1599  OP2       13.5680  -18.9770   17.9600 O.2    79  DA79       -0.5172
   1600  O5'       13.8000  -21.2710   16.8910 O.3    79  DA79       -0.3114
   1601  C5'       13.4000  -22.5000   16.1890 C.3    79  DA79        0.1812
   1602  C4'       14.5960  -23.1210   15.4560 C.3    79  DA79        0.1775
   1603  O4'       15.0980  -22.2370   14.4090 O.3    79  DA79       -0.3326
   1604  C3'       15.8470  -23.3800   16.2780 C.3    79  DA79        0.1864
   1605  O3'       15.7020  -24.5520   17.0300 O.3    79  DA79       -0.1496
   1606  C2'       16.9210  -23.4800   15.1980 C.3    79  DA79        0.0894
   1607  C1'       16.4740  -22.4370   14.1890 C.3    79  DA79        0.2095
   1608  N9        17.1620  -21.2170   14.4890 N.ar   79  DA79       -0.2714
   1609  C8        16.6180  -20.1190   15.1010 C.ar   79  DA79        0.1815
   1610  N7        17.4510  -19.1110   15.2170 N.ar   79  DA79       -0.2193
   1611  C5        18.6220  -19.5810   14.6430 C.ar   79  DA79        0.1518
   1612  C6        19.8840  -18.9920   14.4520 C.ar   79  DA79        0.1919
   1613  N6        20.1850  -17.7490   14.8360 N.pl3  79  DA79       -0.1054
   1614  N1        20.8360  -19.7330   13.8460 N.ar   79  DA79       -0.2040
   1615  C2        20.5320  -20.9780   13.4610 C.ar   79  DA79        0.2016
   1616  N3        19.3840  -21.6390   13.5850 N.ar   79  DA79       -0.2048
   1617  C4        18.4600  -20.8770   14.1910 C.ar   79  DA79        0.1691
   1618  P         15.3930  -24.8070   17.1370 P.3    80  DA80        0.3939
   1619  OP1       15.1340  -25.7100   18.2900 O.3    80  DA80       -0.1425
   1620  OP2       15.3530  -23.3310   17.3330 O.3    80  DA80       -0.2133
   1621  O5'       16.8030  -25.1690   16.4860 O.3    80  DA80       -0.2926
   1622  C5'       17.9750  -25.1790   17.2860 C.3    80  DA80        0.1828
   1623  C4'       19.0850  -25.9440   16.6060 C.3    80  DA80        0.1754
   1624  O4'       19.7160  -25.1020   15.5990 O.3    80  DA80       -0.3510
   1625  C3'       20.2100  -26.2880   17.5670 C.3    80  DA80        0.1839
   1626  O3'       19.9300  -27.4860   18.2760 O.3    80  DA80       -0.2204
   1627  C2'       21.4300  -26.3590   16.6590 C.3    80  DA80        0.0676
   1628  C1'       21.1290  -25.2270   15.6750 C.3    80  DA80        0.1450
   1629  N9        20.4530  -22.9030   16.3540 N.ar   80  DA80       -0.2032
   1630  C8        19.3930  -22.2460   16.9220 C.ar   80  DA80        0.2005
   1631  N7        19.6730  -21.0230   17.3050 N.ar   80  DA80       -0.2179
   1632  C5        21.0080  -20.8670   16.9680 C.ar   80  DA80        0.1534
   1633  C6        21.9010  -19.7900   17.1120 C.ar   80  DA80        0.1919
   1634  N6        21.5650  -18.6190   17.6580 N.pl3  80  DA80       -0.1054
   1635  N1        23.1660  -19.9610   16.6720 N.ar   80  DA80       -0.2040
   1636  C2        23.5010  -21.1350   16.1240 C.ar   80  DA80        0.2016
   1637  N3        22.7520  -22.2180   15.9320 N.ar   80  DA80       -0.2031
   1638  C4        21.5020  -22.0160   16.3820 C.ar   80  DA80        0.1862
@<TRIPOS>BOND
     1  1012  1011    2
     2  1017  1021    1
     3  1017  1016    1
     4  1014  1015    1
     5  1014  1011    1
     6  1021  1022    1
     7  1021  1020    1
     8  1015  1016    1
     9  1016  1018    1
    10  1011  1013    1
    11  1011   999    1
    12  1022  1023    1
    13  1022  1031    1
    14  1022  1020    1
    15  1023  1024    2
    16   999   998    1
    17  1031  1030   ar
    18  1031  1025   ar
    19  1024  1025    1
    20  1030  1029   ar
    21  1025  1026   ar
    22  1020  1018    1
    23  1018  1019    1
    24  1029  1028   ar
    25  1026  1028   ar
    26  1026  1027    1
    27  1019  1032    1
    28  1035  1032    1
    29  1035  1036    1
    30  1038  1042    1
    31  1038  1037    1
    32   998  1000    1
    33   998   996    1
    34  1042  1043    1
    35  1042  1041    1
    36  1037  1036    1
    37  1037  1039    1
    38  1032  1033    2
    39  1032  1034    1
    40  1000  1001    1
    41   996   995    1
    42   996   997    1
    43   995   994    1
    44  1044  1043   ar
    45  1044  1045   ar
    46  1043  1053   ar
    47  1041  1039    1
    48  1045  1046   ar
    49  1053  1052   ar
    50  1053  1046   ar
    51  1052  1050   ar
    52  1046  1047   ar
    53  1039  1040    1
    54   994   991    1
    55  1001   997    1
    56  1001  1002    1
    57   992   991    2
    58  1050  1051    1
    59  1050  1049   ar
    60  1047  1049   ar
    61  1047  1048    2
    62  1040  1054    1
    63   991   993    1
    64   991   979    1
    65  1002  1009   ar
    66  1002  1003   ar
    67  1004  1003    2
    68  1009  1008   ar
    69  1003  1005   ar
    70  1054  1056    2
    71  1054  1055    1
    72  1054  1057    1
    73  1008  1010    1
    74  1008  1006   ar
    75   979   978    1
    76  1060  1064    1
    77  1060  1059    1
    78  1005  1006   ar
    79  1006  1007    2
    80  1057  1058    1
    81  1072  1071   ar
    82  1072  1065   ar
    83  1058  1059    1
    84  1064  1065    1
    85  1064  1063    1
    86  1071  1069   ar
    87  1059  1061    1
    88  1065  1066   ar
    89   978   980    1
    90   978   976    1
    91  1069  1070    1
    92  1069  1068   ar
    93  1066  1068   ar
    94  1066  1067    2
    95   980   981    1
    96  1063  1061    1
    97  1061  1062    1
    98   976   975    1
    99   976   977    1
   100   984   983    2
   101   975   974    1
   102   983   985   ar
   103   983   982   ar
   104  1062  1073    1
   105   981   982    1
   106   981   977    1
   107   985   986   ar
   108   982   989   ar
   109   825   824    2
   110   973   971    2
   111   974   971    1
   112   972   971    1
   113   986   987    2
   114   986   988   ar
   115   989   988   ar
   116   847   846    2
   117   988   990    1
   118   971   959    1
   119   824   810    1
   120   824   827    1
   121   824   826    1
   122   810   809    1
   123  1073  1075    2
   124  1073  1076    1
   125  1073  1074    1
   126   828   827    1
   127   828   829    1
   128  1079  1083    1
   129  1079  1078    1
   130  1092  1090    1
   131  1091  1090   ar
   132  1091  1084   ar
   133   803   802    2
   134  1090  1088   ar
   135  1084  1083    1
   136  1084  1085   ar
   137   832   846    1
   138   832   831    1
   139  1083  1082    1
   140   846   848    1
   141   846   849    1
   142  1076  1077    1
   143   959   958    1
   144  1085  1087   ar
   145  1085  1086    2
   146  1088  1087   ar
   147  1088  1089    2
   148   806   807    1
   149   806   805    1
   150   807   809    1
   151   807   808    1
   152   960   958    1
   153   960   961    1
   154   829   831    1
   155   829   830    1
   156   809   811    1
   157  1078  1077    1
   158  1078  1080    1
   159   869   868    2
   160   831   833    1
   161   958   956    1
   162   805   802    1
   163   802   790    1
   164   802   804    1
   165   967   966    2
   166   849   850    1
   167   811   812    1
   168  1082  1080    1
   169   966   965   ar
   170   966   968   ar
   171   850   851    1
   172   965   963   ar
   173   870   868    1
   174   964   963    2
   175   790   789    1
   176   963   962   ar
   177   968   970    1
   178   968   969   ar
   179   808   812    1
   180   961   962    1
   181   961   957    1
   182   969   962   ar
   183   868   854    1
   184   868   871    1
   185   830   834    1
   186  1080  1081    1
   187   833   834    1
   188   812   813    1
   189   854   853    1
   190   956   957    1
   191   956   955    1
   192   851   853    1
   193   851   852    1
   194  1081  1093    1
   195   789   791    1
   196   789   787    1
   197   834   835    1
   198   952   951    2
   199   791   792    1
   200   853   855    1
   201   954   955    1
   202   954   951    1
   203   953   951    1
   204   787   786    1
   205   787   788    1
   206   871   872    1
   207  1106  1105   ar
   208  1106  1107   ar
   209  1109  1108    2
   210   951   940    1
   211   948   947    1
   212   813   814   ar
   213   813   823   ar
   214   836   835   ar
   215   836   837   ar
   216   872   873    1
   217  1105  1104   ar
   218   891   889    2
   219   786   785    1
   220   852   856    1
   221   835   845   ar
   222  1095  1093    2
   223  1107  1108   ar
   224  1107  1114   ar
   225  1108  1110   ar
   226   814   815   ar
   227  1093  1096    1
   228  1093  1094    1
   229   947   949   ar
   230   947   946   ar
   231   792   788    1
   232   792   793    1
   233   560   559    2
   234   949   950   ar
   235   858   859   ar
   236   858   857   ar
   237   890   889    1
   238  1104  1114   ar
   239  1104  1103    1
   240  1099  1103    1
   241  1099  1098    1
   242   855   856    1
   243   822   823   ar
   244   822   820   ar
   245  1097  1096    1
   246  1097  1098    1
   247   823   816   ar
   248  1114  1113   ar
   249   837   838   ar
   250   934   932    2
   251   785   782    1
   252  1110  1111   ar
   253   946   944   ar
   254   889   876    1
   255   889   892    1
   256   927   926    1
   257   540   539    2
   258   940   939    1
   259   856   857    1
   260   859   860   ar
   261   795   794    2
   262   913   911    2
   263   783   782    2
   264   873   875    1
   265   873   874    1
   266   950   943   ar
   267   845   838   ar
   268   845   844   ar
   269  1103  1102    1
   270   933   932    1
   271   857   867   ar
   272   815   816   ar
   273  1111  1113   ar
   274  1111  1112    1
   275   939   941    1
   276   939   937    1
   277  1098  1100    1
   278   876   875    1
   279   875   877    1
   280   935   932    1
   281   935   936    1
   282   932   919    1
   283   944   943   ar
   284   944   945    2
   285   793   794   ar
   286   793   800   ar
   287   559   547    1
   288   559   562    1
   289   559   561    1
   290  1255  1254    1
   291  1255  1256    1
   292  1255  1257    1
   293   880   881   ar
   294   880   879   ar
   295   816   817   ar
   296   838   839   ar
   297   820   821    1
   298   820   819   ar
   299   926   928   ar
   300   926   925   ar
   301  1254  1253    1
   302   943   942    1
   303   881   882   ar
   304   782   784    1
   305   782   769    1
   306   794   796   ar
   307  1256  1260    1
   308   844   842   ar
   309   547   546    1
   310   562   563    1
   311   874   878    1
   312   543   542    1
   313   543   544    1
   314   905   904    2
   315   924   925   ar
   316   924   923   ar
   317   941   942    1
   318   892   893    1
   319  1237  1236    1
   320  1237  1241    1
   321  1236  1238    1
   322  1236  1235    1
   323   912   911    1
   324   936   937    1
   325  1131  1130    1
   326   928   929   ar
   327  1241  1240    1
   328  1241  1242    1
   329   925   931   ar
   330   563   564    1
   331  1240  1238    1
   332   860   867   ar
   333   860   861   ar
   334   911   914    1
   335   911   897    1
   336   902   901   ar
   337   902   903   ar
   338  1244  1243    2
   339   539   542    1
   340   539   526    1
   341   539   541    1
   342  1239  1238    1
   343  1239  1250    1
   344   800   799   ar
   345   867   866   ar
   346   937   938    1
   347  1260  1259    1
   348  1260  1261    1
   349  1100  1102    1
   350  1100  1101    1
   351  1258  1257    1
   352  1258  1269    1
   353  1251  1250    2
   354  1259  1257    1
   355   526   525    1
   356   942   938    1
   357   923   922   ar
   358   544   546    1
   359   544   545    1
   360  1270  1269    2
   361  1235  1234    1
   362   819   817   ar
   363   879   878    1
   364   879   888   ar
   365  1228  1229   ar
   366  1228  1227   ar
   367  1229  1230   ar
   368   817   818    2
   369   914   915    1
   370   904   903   ar
   371   904   906   ar
   372   901   900   ar
   373  1273  1274    1
   374  1273  1272    1
   375   929   930   ar
   376   877   878    1
   377   796   797   ar
   378   839   840    2
   379   839   841   ar
   380   546   548    1
   381  1253  1250    1
   382   903   910   ar
   383   931   922   ar
   384   931   930   ar
   385   769   768    1
   386   842   841   ar
   387   842   843    1
   388   919   918    1
   389   893   894    1
   390  1130  1132   ar
   391  1130  1129   ar
   392   579   578    2
   393   882   888   ar
   394   882   883   ar
   395   918   920    1
   396   918   916    1
   397  1250  1252    1
   398   564   566    1
   399   564   565    1
   400   861   862    2
   401   861   863   ar
   402  1274  1275    1
   403  1274  1276    1
   404   922   921    1
   405  1242  1243   ar
   406  1242  1249   ar
   407  1243  1245   ar
   408  1132  1133   ar
   409  1219  1220    1
   410  1219  1217    1
   411   884   883    1
   412   799   797   ar
   413   799   801    1
   414   567   566    1
   415   567   578    1
   416   866   864   ar
   417  1275  1279    1
   418  1101  1115    1
   419   897   896    1
   420  1220  1221    1
   421  1220  1216    1
   422   920   921    1
   423  1269  1272    1
   424  1269  1271    1
   425   915   916    1
   426  1227  1225   ar
   427   888   887   ar
   428   770   768    1
   429   770   771    1
   430   896   894    1
   431   896   898    1
   432  1263  1262    2
   433  1204  1203    2
   434  1261  1262   ar
   435  1261  1268   ar
   436  1129  1127   ar
   437   906   907   ar
   438   797   798    2
   439   883   885   ar
   440  1230  1221   ar
   441  1230  1224   ar
   442   525   523    1
   443   525   527    1
   444   900   910   ar
   445   900   899    1
   446   545   549    1
   447   582   581    1
   448   582   583    1
   449   910   909   ar
   450   566   568    1
   451   768   766    1
   452  1234  1231    1
   453   548   549    1
   454   578   581    1
   455   578   580    1
   456   523   522    1
   457   523   524    1
   458   894   895    1
   459   779   780    1
   460   779   778    2
   461   916   917    1
   462   921   917    1
   463   565   569    1
   464  1218  1217    1
   465  1218  1231    1
   466   780   781    1
   467  1277  1276    1
   468  1277  1289    1
   469  1221  1222   ar
   470  1150  1149    1
   471  1262  1264   ar
   472   863   864   ar
   473   522   521    1
   474  1133  1126   ar
   475  1216  1215    1
   476   527   528    1
   477  1268  1267   ar
   478   864   865    1
   479  1249  1248   ar
   480  1245  1246   ar
   481   519   518    2
   482  1217  1215    1
   483  1276  1278    1
   484  1215  1214    1
   485   895   899    1
   486  1117  1115    2
   487  1290  1289    2
   488  1279  1278    1
   489  1279  1280    1
   490  1232  1231    2
   491   907   909   ar
   492   907   908    1
   493   898   899    1
   494  1127  1126   ar
   495  1127  1128    2
   496  1225  1224   ar
   497  1225  1226    1
   498   778   776    1
   499   549   550    1
   500  1203  1205   ar
   501  1203  1202   ar
   502   583   584    1
   503   583   585    1
   504  1224  1223   ar
   505   887   886   ar
   506  1231  1233    1
   507   771   772    1
   508   771   767    1
   509  1126  1125    1
   510  1205  1206   ar
   511   885   886   ar
   512   781   772   ar
   513   781   775   ar
   514   524   528    1
   515   766   767    1
   516   766   765    1
   517  1289  1291    1
   518  1289  1292    1
   519  1115  1118    1
   520  1115  1116    1
   521   568   569    1
   522   584   588    1
   523  1149  1148   ar
   524  1149  1151   ar
   525   521   518    1
   526   569   570    1
   527   528   529    1
   528  1246  1248   ar
   529  1246  1247    1
   530  1201  1200    1
   531  1201  1202    1
   532  1201  1197    1
   533  1222  1223   ar
   534  1264  1265   ar
   535   772   773   ar
   536  1200  1198    1
   537  1267  1265   ar
   538  1280  1287   ar
   539  1280  1281   ar
   540   577   570   ar
   541   577   576   ar
   542   518   506    1
   543   518   520    1
   544  1214  1213    1
   545  1287  1286   ar
   546  1185  1184    2
   547   557   550   ar
   548   557   556   ar
   549   776   775    1
   550   776   777    2
   551   600   599    2
   552  1293  1292    1
   553  1293  1294    1
   554  1202  1209   ar
   555  1169  1168    1
   556   550   551   ar
   557   586   585    1
   558   586   599    1
   559  1186  1184   ar
   560  1186  1187   ar
   561  1121  1125    1
   562  1121  1120    1
   563   775   774   ar
   564  1118  1119    1
   565  1125  1124    1
   566  1148  1146   ar
   567   506   505    1
   568  1151  1152   ar
   569   585   587    1
   570   765   764    1
   571  1265  1266    1
   572  1188  1187    1
   573   764   761    1
   574   570   571   ar
   575  1206  1207    1
   576  1206  1208   ar
   577   576   574   ar
   578   599   601    1
   579   599   602    1
   580  1282  1281    2
   581  1184  1183   ar
   582   777  1247    1
   583  1197  1196    1
   584  1281  1283   ar
   585   558   556    1
   586   773   774   ar
   587  1167  1168   ar
   588  1167  1165   ar
   589   588   587    1
   590   588   589    1
   591   556   554   ar
   592  1187  1189   ar
   593  1286  1288    1
   594  1286  1284   ar
   595   529   530   ar
   596   529   538   ar
   597  1213  1210    1
   598  1168  1170   ar
   599  1294  1295    1
   600  1294  1296    1
   601  1119  1120    1
   602  1198  1196    1
   603  1198  1199    1
   604   551   552    2
   605   551   553   ar
   606  1209  1208   ar
   607  1295  1299    1
   608   530   531   ar
   609  1196  1195    1
   610  1120  1122    1
   611  1146  1147    2
   612  1146  1145   ar
   613  1199  1210    1
   614  1152  1145   ar
   615   505   507    1
   616   505   503    1
   617  1124  1122    1
   618  1166  1165    2
   619   507   508    1
   620  1283  1284   ar
   621   762   761    2
   622   761   763    1
   623   761   748    1
   624  1165  1164   ar
   625   603   602    1
   626   603   604    1
   627   537   538   ar
   628   537   536   ar
   629   571   572    2
   630   571   573   ar
   631   538   532   ar
   632   590   589   ar
   633   590   591   ar
   634  1284  1285    2
   635  1122  1123    1
   636  1183  1182    1
   637  1183  1190   ar
   638   589   598   ar
   639   758   757   ar
   640   758   759   ar
   641   574   573   ar
   642   574   575    1
   643   503   502    1
   644   503   504    1
   645  1145  1144    1
   646   554   553   ar
   647   554   555    2
   648  1210  1211    2
   649  1210  1212    1
   650   757   755   ar
   651  1170  1171   ar
   652  1189  1190   ar
   653  1297  1296    1
   654  1297  1310    1
   655  1296  1298    1
   656  1182  1181    1
   657  1182  1178    1
   658   759   760   ar
   659   531   532   ar
   660   502   501    1
   661   748   747    1
   662  1299  1298    1
   663  1299  1300    1
   664  1136  1134    2
   665   532   533   ar
   666  1312  1310    2
   667  1195  1194    1
   668  1301  1300   ar
   669  1301  1302   ar
   670  1181  1179    1
   671   536   535   ar
   672   508   504    1
   673   508   509    1
   674   591   592   ar
   675  1311  1310    1
   676  1164  1171   ar
   677  1164  1163    1
   678   755   756    1
   679   755   754   ar
   680   604   605    1
   681   604   606    1
   682   749   747    1
   683   749   750    1
   684   618   616    1
   685  1310  1313    1
   686   598   597   ar
   687   598   592   ar
   688  1422  1423    1
   689  1422  1420    1
   690  1123  1134    1
   691   760   754   ar
   692   760   751   ar
   693  1300  1309   ar
   694   747   745    1
   695  1144  1140    1
   696  1144  1143    1
   697   605   609    1
   698  1194  1191    1
   699  1302  1303   ar
   700  1423  1419    1
   701  1423  1424    1
   702  1178  1177    1
   703   501   498    1
   704   754   753   ar
   705   511   510    2
   706  1140  1139    1
   707  1421  1420    1
   708  1421  1435    1
   709  1134  1137    1
   710  1134  1135    1
   711  1419  1418    1
   712   597   596   ar
   713  1418  1420    1
   714  1418  1417    1
   715   592   593   ar
   716  1440  1441    1
   717  1440  1439    1
   718  1440  1442    1
   719   533   535   ar
   720   533   534    1
   721   499   498    2
   722  1432  1431    1
   723  1438  1439    1
   724  1438  1435    1
   725  1137  1138    1
   726   751   750    1
   727   751   752   ar
   728  1441  1445    1
   729  1163  1162    1
   730  1163  1159    1
   731   617   616   ar
   732   617   610   ar
   733   509   510   ar
   734   509   516   ar
   735  1443  1442    1
   736  1443  1454    1
   737  1433  1431   ar
   738  1433  1434   ar
   739  1390  1389    1
   740  1406  1405    2
   741   616   614   ar
   742   606   607    1
   743   606   608    1
   744   621   619    2
   745  1329  1327    1
   746   750   746    1
   747  1179  1177    1
   748  1179  1180    1
   749   510   512   ar
   750  1455  1454    2
   751   607   619    1
   752  1445  1444    1
   753  1445  1446    1
   754  1436  1435    2
   755  1444  1442    1
   756  1143  1141    1
   757  1309  1303   ar
   758  1309  1308   ar
   759  1303  1304   ar
   760   753   752   ar
   761  1458  1459    1
   762  1458  1457    1
   763  1431  1430   ar
   764  1162  1160    1
   765   498   487    1
   766   498   500    1
   767  1313  1314    1
   768   487   486    1
   769  1177  1176    1
   770  1424  1434   ar
   771  1424  1425   ar
   772  1435  1437    1
   773   609   610    1
   774   609   608    1
   775  1417  1416    1
   776   745   746    1
   777   745   744    1
   778   516   515   ar
   779   619   620    1
   780   619   622    1
   781  1388  1389   ar
   782  1388  1386   ar
   783  1191  1180    1
   784  1191  1193    2
   785  1191  1192    1
   786  1138  1139    1
   787  1139  1141    1
   788  1434  1427   ar
   789   610   611   ar
   790   596   595   ar
   791  1454  1457    1
   792  1454  1456    1
   793  1141  1142    1
   794  1159  1158    1
   795   593   595   ar
   796   593   594    1
   797  1389  1391   ar
   798   488   486    1
   799   488   489    1
   800  1405  1407   ar
   801  1405  1404   ar
   802  1459  1460    1
   803  1459  1461    1
   804  1308  1307   ar
   805   744   743    1
   806  1314  1315    1
   807  1387  1386    2
   808   512   513   ar
   809  1448  1447    2
   810   614   615    2
   811   614   613   ar
   812   734   733    2
   813  1407  1408   ar
   814  1446  1447   ar
   815  1446  1453   ar
   816   492   491    2
   817  1175  1176    1
   818  1175  1172    1
   819  1160  1158    1
   820  1160  1161    1
   821  1304  1305    1
   822  1304  1306   ar
   823  1460  1464    1
   824   486   484    1
   825  1327  1328   ar
   826  1327  1325   ar
   827  1155  1153    2
   828  1430  1428   ar
   829  1386  1385   ar
   830  1425  1426   ar
   831   515   513   ar
   832   515   517    1
   833  1402  1403    1
   834  1402  1400    1
   835  1416  1413    1
   836  1447  1449   ar
   837  1174  1172    2
   838   622   623    1
   839  1427  1428   ar
   840  1427  1426   ar
   841  1328  1321   ar
   842  1156  1153    1
   843  1156  1157    1
   844   611   613   ar
   845   611   612    2
   846   513   514    2
   847  1403  1404    1
   848  1403  1399    1
   849  1158  1157    1
   850  1326  1325    2
   851  1453  1452   ar
   852  1307  1306   ar
   853   632   631   ar
   854   632   633   ar
   855  1142  1153    1
   856  1404  1411   ar
   857   742   740    2
   858  1391  1392   ar
   859   484   485    1
   860   484   483    1
   861   489   490    1
   862   489   485    1
   863   735   733   ar
   864   735   736   ar
   865   733   732   ar
   866  1462  1461    1
   867  1462  1474    1
   868  1161  1172    1
   869   635   634    2
   870  1325  1324   ar
   871  1332  1330    2
   872  1461  1463    1
   873  1428  1429    2
   874   491   490   ar
   875   491   493   ar
   876  1153  1154    1
   877  1408  1409    2
   878  1408  1410   ar
   879  1172  1173    1
   880   743   740    1
   881   631   630   ar
   882  1315  1316    1
   883  1315  1317    1
   884  1464  1463    1
   885  1464  1465    1
   886   476   475    1
   887   623   624    1
   888   730   731    1
   889   730   728    1
   890  1414  1413    2
   891   490   497   ar
   892  1316  1320    1
   893  1475  1474    2
   894  1385  1392   ar
   895  1385  1384   ar
   896  1401  1413    1
   897  1401  1400    1
   898  1413  1415    1
   899   483   482    1
   900  1392  1382   ar
   901  1449  1450   ar
   902  1400  1398    1
   903  1317  1318    1
   904  1317  1319    1
   905   633   634   ar
   906   633   640   ar
   907  1399  1398    1
   908   740   729    1
   909   740   741    1
   910   493   494   ar
   911  1474  1477    1
   912  1474  1476    1
   913   737   736    1
   914   634   636   ar
   915  1452  1450   ar
   916  1321  1320    1
   917  1321  1322   ar
   918   736   738   ar
   919   729   728    1
   920  1411  1410   ar
   921   732   731    1
   922   732   739   ar
   923  1318  1330    1
   924  1330  1331    1
   925  1330  1333    1
   926   657   656    1
   927  1410  1412    1
   928  1346  1345    2
   929  1368  1367    1
   930  1465  1472   ar
   931  1465  1466   ar
   932  1477  1478    1
   933  1324  1322   ar
   934   731   727    1
   935  1472  1471   ar
   936   728   726    1
   937  1450  1451    1
   938  1398  1397    1
   939   475   474   ar
   940   475   477   ar
   941  1320  1319    1
   942   482   479    1
   943   630   640   ar
   944   630   629    1
   945  1343  1342   ar
   946  1343  1344   ar
   947   497   496   ar
   948   625   624    1
   949   625   629    1
   950  1384  1383   ar
   951   624   626    1
   952  1322  1323    2
   953   474   472   ar
   954   640   639   ar
   955   494   496   ar
   956   494   495    1
   957   477   478   ar
   958  1382  1383   ar
   959  1382  1381    1
   960   738   739   ar
   961   717   716    2
   962   636   637   ar
   963   658   656   ar
   964   658   659   ar
   965   626   627    1
   966   626   628    1
   967   656   655   ar
   968  1345  1344   ar
   969  1345  1347   ar
   970  1467  1466    2
   971   643   641    2
   972  1466  1468   ar
   973  1342  1341   ar
   974   676   675    2
   975  1471  1473    1
   976  1471  1469   ar
   977   629   628    1
   978  1333  1334    1
   979  1367  1369   ar
   980  1367  1366   ar
   981   715   716   ar
   982   715   713   ar
   983  1344  1351   ar
   984  1478  1479    1
   985   726   727    1
   986   726   725    1
   987   714   713    2
   988  1381  1380    1
   989  1381  1377    1
   990   466   467    1
   991   466   464    1
   992   716   718   ar
   993  1397  1396    1
   994   698   697    1
   995   627   641    1
   996   472   473    2
   997   472   471   ar
   998  1480  1479    1
   999  1480  1484    1
  1000  1369  1370   ar
  1001  1380  1378    1
  1002   478   471   ar
  1003   478   468   ar
  1004   479   465    1
  1005   479   480    2
  1006   479   481    1
  1007   641   642    1
  1008   641   644    1
  1009   639   637   ar
  1010  1366  1364   ar
  1011   637   638    1
  1012   713   712   ar
  1013   659   652   ar
  1014   655   653   ar
  1015  1396  1393    1
  1016  1468  1469   ar
  1017  1479  1481    1
  1018  1469  1470    2
  1019  1347  1348   ar
  1020   675   677    1
  1021   675   674    1
  1022  1354  1352    2
  1023   465   464    1
  1024  1486  1487   ar
  1025  1486  1485   ar
  1026   471   470   ar
  1027  1341  1351   ar
  1028  1341  1340    1
  1029   467   468    1
  1030   467   463    1
  1031  1334  1335    1
  1032  1351  1350   ar
  1033  1487  1488   ar
  1034   725   724    1
  1035   468   469   ar
  1036   464   462    1
  1037  1377  1376    1
  1038   697   696   ar
  1039   697   699   ar
  1040   677   678    2
  1041   696   694   ar
  1042  1484  1485    1
  1043  1484  1483    1
  1044   718   720    1
  1045   718   719   ar
  1046   673   674    1
  1047   673   672    2
  1048  1370  1363   ar
  1049   644   645    1
  1050   652   653   ar
  1051   652   651    1
  1052  1336  1335    1
  1053  1336  1340    1
  1054   653   654    2
  1055  1378  1376    1
  1056  1378  1379    1
  1057   674   681    1
  1058  1364  1363   ar
  1059  1364  1365    2
  1060   712   719   ar
  1061   712   711    1
  1062  1485  1494   ar
  1063   723   721    2
  1064  1337  1335    1
  1065  1337  1338    1
  1066  1337  1339    1
  1067  1348  1350   ar
  1068  1348  1349    1
  1069   470   469   ar
  1070  1340  1339    1
  1071  1393  1395    2
  1072  1393  1379    1
  1073  1393  1394    1
  1074  1481  1483    1
  1075  1481  1482    1
  1076  1497  1495    2
  1077  1488  1494   ar
  1078  1488  1489   ar
  1079   724   721    1
  1080   710   711    1
  1081   710   708    1
  1082   463   462    1
  1083  1352  1338    1
  1084  1352  1355    1
  1085  1352  1353    1
  1086  1363  1362    1
  1087   645   646    1
  1088  1376  1375    1
  1089   462   461    1
  1090   647   651    1
  1091   647   646    1
  1092   699   700   ar
  1093   711   707    1
  1094   694   695    2
  1095   694   693   ar
  1096  1490  1489    1
  1097   353   352    2
  1098  1494  1493   ar
  1099   672   671    1
  1100   678   679    1
  1101   678   680    1
  1102   651   650    1
  1103  1482  1495    1
  1104  1355  1356    1
  1105  1489  1491   ar
  1106   721   709    1
  1107   721   722    1
  1108   681   680    2
  1109   681   671    1
  1110  1374  1375    1
  1111  1374  1371    1
  1112  1495  1496    1
  1113  1495  1498    1
  1114  1373  1371    2
  1115   646   648    1
  1116   331   330    2
  1117   708   709    1
  1118   708   706    1
  1119   662   660    2
  1120   671   670    1
  1121   648   650    1
  1122   648   649    1
  1123   700   693   ar
  1124  1362  1361    1
  1125  1362  1358    1
  1126  1493  1492   ar
  1127   693   692    1
  1128   461   460    1
  1129   460   457    1
  1130   375   373    2
  1131  1371  1360    1
  1132  1371  1372    1
  1133   707   706    1
  1134  1359  1361    1
  1135  1359  1357    1
  1136  1359  1360    1
  1137  1491  1492   ar
  1138   453   452    2
  1139   374   373    1
  1140   352   355    1
  1141   352   354    1
  1142   352   338    1
  1143  1358  1357    1
  1144  1356  1357    1
  1145  1512  1510   ar
  1146  1512  1513   ar
  1147  1511  1510    1
  1148  1498  1499    1
  1149   706   705    1
  1150   355   356    1
  1151   330   332    1
  1152   330   333    1
  1153   330   317    1
  1154   459   457    2
  1155   373   360    1
  1156   373   376    1
  1157   452   451   ar
  1158   452   454   ar
  1159   451   449   ar
  1160   703   701    2
  1161   356   357    1
  1162  1510  1509   ar
  1163   649   660    1
  1164  1513  1506   ar
  1165   660   661    1
  1166   660   663    1
  1167   670   669    1
  1168   670   666    1
  1169   310   309    2
  1170   692   691    1
  1171   692   688    1
  1172   338   337    1
  1173   457   458    1
  1174   457   445    1
  1175   669   667    1
  1176   691   689    1
  1177   704   705    1
  1178   704   701    1
  1179   360   359    1
  1180   666   665    1
  1181   450   449    2
  1182   449   448   ar
  1183  1499  1500    1
  1184  1501  1500    1
  1185  1501  1505    1
  1186   454   456    1
  1187   454   455   ar
  1188   334   333    1
  1189   334   335    1
  1190   431   430    2
  1191   317   316    1
  1192   395   393    2
  1193  1509  1507   ar
  1194   663   664    1
  1195  1506  1507   ar
  1196  1506  1505    1
  1197   701   690    1
  1198   701   702    1
  1199   667   665    1
  1200   667   668    1
  1201   689   690    1
  1202   689   687    1
  1203   664   665    1
  1204   311   309    1
  1205   357   359    1
  1206   357   358    1
  1207   688   687    1
  1208   359   361    1
  1209   684   682    2
  1210   376   377    1
  1211   309   312    1
  1212   309   298    1
  1213   448   455   ar
  1214   448   447    1
  1215   337   335    1
  1216   337   339    1
  1217   394   393    1
  1218   445   444    1
  1219  1507  1508    2
  1220  1500  1502    1
  1221  1505  1504    1
  1222   446   444    1
  1223   446   447    1
  1224   335   336    1
  1225   392   390    1
  1226   444   442    1
  1227   417   415    2
  1228   430   432   ar
  1229   430   429   ar
  1230   393   396    1
  1231   393   381    1
  1232   685   682    1
  1233   685   686    1
  1234   316   314    1
  1235   316   318    1
  1236   377   378    1
  1237   687   686    1
  1238   432   433   ar
  1239   668   682    1
  1240   447   443    1
  1241   312   313    1
  1242   358   362    1
  1243   428   429   ar
  1244   428   427   ar
  1245   682   683    1
  1246   396   397    1
  1247   429   436   ar
  1248   313   314    1
  1249   298   297    1
  1250   339   340    1
  1251  1502  1504    1
  1252  1502  1503    1
  1253   361   362    1
  1254   381   380    1
  1255   439   437    2
  1256   314   315    1
  1257   390   391   ar
  1258   390   388   ar
  1259   318   319    1
  1260   336   340    1
  1261   291   290    2
  1262   415   416    1
  1263   415   418    1
  1264   415   401    1
  1265   364   365   ar
  1266   364   363   ar
  1267   440   441    1
  1268   440   437    1
  1269   409   408    2
  1270   442   443    1
  1271   442   441    1
  1272   380   378    1
  1273   380   382    1
  1274   406   405   ar
  1275   406   407   ar
  1276   433   434    1
  1277   433   435   ar
  1278   378   379    1
  1279   391   384   ar
  1280   362   363    1
  1281   427   426   ar
  1282   389   388    2
  1283   397   398    1
  1284   365   366   ar
  1285  1530  1529    1
  1286   436   435   ar
  1287   436   426   ar
  1288   388   387   ar
  1289   340   341    1
  1290   405   404   ar
  1291   363   372   ar
  1292   418   419    1
  1293   437   438    1
  1294   437   423    1
  1295  1503  1514    1
  1296   408   407   ar
  1297   408   410   ar
  1298   297   295    1
  1299   297   299    1
  1300   407   414   ar
  1301   342   341   ar
  1302   342   343   ar
  1303  1516  1514    2
  1304   426   425    1
  1305   379   383    1
  1306   294   293    1
  1307   294   295    1
  1308   290   292    1
  1309   290   293    1
  1310   290   278    1
  1311   401   400    1
  1312   321   322   ar
  1313   321   320   ar
  1314   315   319    1
  1315   400   398    1
  1316   400   402    1
  1317  1531  1529   ar
  1318  1531  1532   ar
  1319  1529  1528   ar
  1320   341   351   ar
  1321   319   320    1
  1322   384   383    1
  1323   384   385   ar
  1324   422   423    1
  1325   422   424    1
  1326   422   420    1
  1327   295   296    1
  1328   366   372   ar
  1329   366   367   ar
  1330   322   323   ar
  1331   382   383    1
  1332   398   399    1
  1333   343   344   ar
  1334   320   329   ar
  1335   372   371   ar
  1336   404   414   ar
  1337   404   403    1
  1338   387   385   ar
  1339   410   411   ar
  1340   299   300    1
  1341   424   425    1
  1342  1514  1515    1
  1343  1514  1517    1
  1344   414   413   ar
  1345  1532  1525   ar
  1346  1528  1526   ar
  1347   419   420    1
  1348   399   403    1
  1349   425   421    1
  1350   385   386    2
  1351   351   344   ar
  1352   351   350   ar
  1353   271   270    2
  1354   402   403    1
  1355   323   329   ar
  1356   323   324    1
  1357  1549  1548    2
  1358   329   328    1
  1359   368   367    1
  1360   420   421    1
  1361   367   369   ar
  1362   278   277    1
  1363   344   345   ar
  1364   371   370   ar
  1365  1525  1526   ar
  1366  1525  1524    1
  1367  1526  1527    2
  1368   411   413   ar
  1369   411   412    1
  1370   350   348   ar
  1371  1520  1524    1
  1372  1520  1519    1
  1373  1517  1518    1
  1374   296   300    1
  1375   324   325    1
  1376   324   326    1
  1377   328   327    2
  1378  1524  1523    1
  1379   300   301    1
  1380  1548  1550   ar
  1381  1548  1547   ar
  1382   369   370   ar
  1383   308   301   ar
  1384   308   307   ar
  1385   345   346    1
  1386   345   347   ar
  1387   272   270    1
  1388   270   273    1
  1389   270   256    1
  1390  1550  1551   ar
  1391   301   302   ar
  1392   327   326    2
  1393   327   346    1
  1394   277   279    1
  1395   277   275    1
  1396   348   347   ar
  1397   348   349    1
  1398   307   305   ar
  1399  1518  1519    1
  1400  1519  1521    1
  1401  1547  1546   ar
  1402  1547  1554   ar
  1403  1546  1545   ar
  1404   273   274    1
  1405   274   275    1
  1406   302   303    2
  1407   302   304   ar
  1408  1551  1552    1
  1409  1551  1553   ar
  1410   279   280    1
  1411   305   304   ar
  1412   305   306    1
  1413   275   276    1
  1414  1523  1521    1
  1415  1571  1570    2
  1416   256   255    1
  1417  1521  1522    1
  1418  1594  1593    1
  1419  1554  1553   ar
  1420  1554  1544   ar
  1421  1545  1544   ar
  1422   249   248    2
  1423  1569  1570   ar
  1424  1569  1567   ar
  1425  1570  1572   ar
  1426  1568  1567    2
  1427  1544  1543    1
  1428  1593  1592   ar
  1429  1593  1595   ar
  1430   276   280    1
  1431   280   281    1
  1432  1567  1566   ar
  1433   250   248    1
  1434  1592  1590   ar
  1435   248   251    1
  1436   248   234    1
  1437  1595  1596   ar
  1438   255   253    1
  1439   255   257    1
  1440   251   252    1
  1441   288   281   ar
  1442   288   287   ar
  1443   281   282   ar
  1444  1522  1533    1
  1445  1535  1533    2
  1446   289   287    1
  1447   252   253    1
  1448   287   285   ar
  1449  1572  1574    1
  1450  1572  1573   ar
  1451   282   283    2
  1452   282   284   ar
  1453  1590  1591    2
  1454  1590  1589   ar
  1455  1543  1539    1
  1456  1543  1542    1
  1457  1566  1573   ar
  1458  1566  1565    1
  1459   253   254    1
  1460  1596  1589   ar
  1461  1596  1586   ar
  1462   285   284   ar
  1463   285   286    2
  1464  1539  1538    1
  1465  1533  1536    1
  1466  1533  1534    1
  1467   257   258    1
  1468  1589  1588   ar
  1469  1536  1537    1
  1470  1586  1585    1
  1471  1586  1587   ar
  1472  1585  1581    1
  1473  1585  1584    1
  1474   234   233    1
  1475  1565  1561    1
  1476  1565  1564    1
  1477  1581  1580    1
  1478  1588  1587   ar
  1479  1615  1616   ar
  1480  1615  1614   ar
  1481  1542  1540    1
  1482  1616  1617   ar
  1483   254   258    1
  1484  1538  1537    1
  1485  1538  1540    1
  1486   258   259    1
  1487  1614  1612   ar
  1488  1584  1582    1
  1489  1561  1560    1
  1490  1564  1562    1
  1491   260   259   ar
  1492   260   261   ar
  1493  1540  1541    1
  1494   259   269   ar
  1495  1607  1603    1
  1496  1607  1608    1
  1497  1607  1606    1
  1498  1617  1608   ar
  1499  1617  1611   ar
  1500   233   235    1
  1501   233   231    1
  1502   261   262   ar
  1503  1580  1582    1
  1504  1580  1579    1
  1505  1603  1602    1
  1506  1612  1611   ar
  1507  1612  1613    1
  1508  1608  1609   ar
  1509  1611  1610   ar
  1510   269   262   ar
  1511   269   268   ar
  1512   262   263   ar
  1513   268   266   ar
  1514   230   231    1
  1515   230   229    1
  1516   227   226    2
  1517  1582  1583    1
  1518   235   236    1
  1519  1609  1610   ar
  1520   231   232    1
  1521  1562  1560    1
  1522  1562  1563    1
  1523  1579  1578    1
  1524  1606  1604    1
  1525   263   264    2
  1526   263   265   ar
  1527  1560  1559    1
  1528  1558  1559    1
  1529  1558  1555    1
  1530  1557  1555    2
  1531   229   226    1
  1532   266   265   ar
  1533   266   267    1
  1534  1602  1601    1
  1535  1602  1604    1
  1536  1541  1555    1
  1537  1578  1575    1
  1538  1624  1628    1
  1539  1624  1623    1
  1540  1628  1627    1
  1541  1637  1636   ar
  1542  1637  1638   ar
  1543   226   228    1
  1544   226   213    1
  1545  1583  1597    1
  1546  1555  1556    1
  1547  1636  1635   ar
  1548  1601  1600    1
  1549  1604  1620    1
  1550  1563  1575    1
  1551  1629  1638   ar
  1552  1629  1630   ar
  1553  1638  1632    1
  1554   232   236    1
  1555   236   237    1
  1556  1621  1618    1
  1557  1621  1622    1
  1558  1575  1577    2
  1559  1575  1576    1
  1560  1623  1622    1
  1561  1623  1625    1
  1562  1627  1625    1
  1563  1635  1633   ar
  1564  1600  1597    1
  1565  1630  1631   ar
  1566  1632  1633   ar
  1567  1632  1631   ar
  1568  1605  1618    1
  1569  1605  1620    1
  1570  1633  1634    1
  1571  1618  1619    1
  1572   237   238   ar
  1573   237   247   ar
  1574   213   212    1
  1575   238   239   ar
  1576  1597  1599    2
  1577  1597  1598    1
  1578   247   246   ar
  1579   247   240   ar
  1580  1625  1626    1
  1581   246   244   ar
  1582   239   240   ar
  1583   240   241   ar
  1584   244   245    1
  1585   244   243   ar
  1586   241   243   ar
  1587   241   242    2
  1588   212   214    1
  1589   212   210    1
  1590   214   215    1
  1591   209   210    1
  1592   209   208    1
  1593   210   211    1
  1594   206   205    2
  1595   207   205    1
  1596   215   211    1
  1597   215   216    1
  1598   208   205    1
  1599   205   191    1
  1600   216   225   ar
  1601   216   217   ar
  1602   224   225   ar
  1603   224   223   ar
  1604   225   219   ar
  1605   223   222   ar
  1606   217   218   ar
  1607   219   218   ar
  1608   219   220   ar
  1609   222   220   ar
  1610   220   221    1
  1611   191   190    1
  1612   190   192    1
  1613   190   188    1
  1614   192   193    1
  1615   184   183    2
  1616   185   183    1
  1617   188   187    1
  1618   188   189    1
  1619   187   186    1
  1620   186   183    1
  1621   183   170    1
  1622   202   201    1
  1623   201   200   ar
  1624   201   203   ar
  1625   200   198   ar
  1626   203   204   ar
  1627   198   199    2
  1628   198   197   ar
  1629   193   194    1
  1630   193   189    1
  1631   204   197   ar
  1632   204   194   ar
  1633   197   196   ar
  1634   194   195   ar
  1635   196   195   ar
  1636   170   169    1
  1637   164   162    2
  1638   163   162    1
  1639   169   171    1
  1640   169   167    1
  1641   162   165    1
  1642   162   151    1
  1643   171   172    1
  1644   144   143    2
  1645   145   143    1
  1646   178   177    1
  1647   175   174   ar
  1648   175   176   ar
  1649   165   166    1
  1650   167   166    1
  1651   167   168    1
  1652   143   146    1
  1653   143   130    1
  1654   174   173   ar
  1655   177   176   ar
  1656   177   179   ar
  1657   176   182   ar
  1658   151   150    1
  1659   146   147    1
  1660   173   182   ar
  1661   173   172    1
  1662   179   180   ar
  1663   182   181   ar
  1664   172   168    1
  1665   147   148    1
  1666   180   181   ar
  1667   130   129    1
  1668   126   125    1
  1669   126   127    1
  1670   123   122    2
  1671   150   148    1
  1672   150   152    1
  1673   125   122    1
  1674   148   149    1
  1675   129   127    1
  1676   129   131    1
  1677   122   124    1
  1678   122   111    1
  1679   127   128    1
  1680   160   161   ar
  1681   160   158   ar
  1682   161   154   ar
  1683   152   153    1
  1684   149   153    1
  1685   158   159    1
  1686   158   157   ar
  1687   154   153    1
  1688   154   155   ar
  1689   131   132    1
  1690   128   132    1
  1691   111   110    1
  1692   157   155   ar
  1693   155   156    2
  1694   104   103    2
  1695   134   133   ar
  1696   134   135   ar
  1697   132   133    1
  1698   133   142   ar
  1699   135   136   ar
  1700   105   103    1
  1701   110   112    1
  1702   110   108    1
  1703   103   106    1
  1704   103    89    1
  1705   107   106    1
  1706   107   108    1
  1707   142   136   ar
  1708   142   141   ar
  1709   136   137   ar
  1710   112   113    1
  1711   108   109    1
  1712   141   140   ar
  1713   137   138    1
  1714   137   139   ar
  1715    89    88    1
  1716   109   113    1
  1717   140   139   ar
  1718   113   114    1
  1719   121   120   ar
  1720   121   114   ar
  1721   120   118   ar
  1722   114   115   ar
  1723    88    90    1
  1724    88    86    1
  1725   118   117   ar
  1726   118   119    1
  1727   115   116    2
  1728   115   117   ar
  1729    85    86    1
  1730    85    84    1
  1731    82    81    2
  1732    90    91    1
  1733    86    87    1
  1734    84    81    1
  1735    83    81    1
  1736    81    68    1
  1737    87    91    1
  1738    91    92    1
  1739    93    92   ar
  1740    93    94   ar
  1741    92   102   ar
  1742    94    95   ar
  1743   102    95   ar
  1744   102   101   ar
  1745    68    67    1
  1746    95    96   ar
  1747   101    99   ar
  1748    96    97    2
  1749    96    98   ar
  1750    99    98   ar
  1751    99   100    1
  1752    67    69    1
  1753    67    65    1
  1754    69    70    1
  1755    65    64    1
  1756    65    66    1
  1757    64    63    1
  1758    70    66    1
  1759    70    71    1
  1760    79    78   ar
  1761    79    80   ar
  1762    78    77   ar
  1763    80    71   ar
  1764    80    74   ar
  1765    71    72   ar
  1766    77    75   ar
  1767    74    75   ar
  1768    74    73   ar
  1769    72    73   ar
  1770    62    60    1
  1771    75    76    1
  1772    63    60    1
  1773    60    61    1
  1774    61    49    1
  1775    49    48    1
  1776    54    53    2
  1777    50    48    1
  1778    50    51    1
  1779    48    46    1
  1780    53    55   ar
  1781    53    52   ar
  1782    55    56   ar
  1783    51    52    1
  1784    51    47    1
  1785    52    59   ar
  1786    56    57    1
  1787    56    58   ar
  1788    46    47    1
  1789    46    45    1
  1790    59    58   ar
  1791    38    37    1
  1792    45    44    1
  1793    36    37   ar
  1794    36    34   ar
  1795    44    41    1
  1796    35    34    2
  1797    37    39   ar
  1798    34    33   ar
  1799    43    41    2
  1800    42    41    1
  1801    41    27    1
  1802    39    40   ar
  1803    33    40   ar
  1804    33    32   ar
  1805    40    30   ar
  1806    27    26    1
  1807    32    31   ar
  1808    26    28    1
  1809    26    24    1
  1810    28    29    1
  1811    30    31   ar
  1812    30    29    1
  1813    14    13    1
  1814    29    25    1
  1815    24    23    1
  1816    24    25    1
  1817    13    15   ar
  1818    13    12   ar
  1819    23    22    1
  1820    15    16   ar
  1821    11    12   ar
  1822    11    10   ar
  1823    12    18   ar
  1824    21    19    2
  1825    16    17   ar
  1826    22    19    1
  1827    10     9   ar
  1828    18    17   ar
  1829    18     9   ar
  1830    19    20    1
  1831    19     6    1
  1832     9     8    1
  1833     1     2    1
  1834     5     7    1
  1835     5     6    1
  1836     5     3    1
  1837     7     8    1
  1838     8     4    1
  1839     2     3    1
  1840     3     4    1
