FB1.pdb
  RxDock  09112019103D
librxdock.so/0.1.0
 59 58  0  0  0  0  0  0  0  0999 V2000
    6.8075    2.5155    7.7274 C   0  0  0  0  0  0
    6.5488    2.6844    6.2321 C   0  0  0  0  0  0
    5.9076    1.4282    5.6197 C   0  0  0  0  0  0
    4.4346    1.2148    6.0490 C   0  0  0  0  0  0
    3.4602    2.3857    5.6746 C   0  0  0  0  0  0
    2.0245    1.8168    5.5980 C   0  0  0  0  0  0
    3.5313    3.6138    6.6769 C   0  0  0  0  0  0
    3.3523    5.0758    6.0471 C   0  0  0  0  0  0
    2.1885    5.5079    5.0535 C   0  0  0  0  0  0
    2.1270    4.6624    3.6384 C   0  0  0  0  0  0
    0.9210    5.1473    2.8356 C   0  0  0  0  0  0
    3.4349    4.7210    2.7269 C   0  0  0  0  0  0
    4.9057    4.2593    3.2192 C   0  0  0  0  0  0
    6.1349    4.1960    2.2491 C   0  0  0  0  0  0
    6.6036    5.5430    1.5315 C   0  0  0  0  0  0
    7.0242    6.8583    2.2981 C   0  0  0  0  0  0
    8.1998    6.8110    3.3096 C   0  0  0  0  0  0
    9.5865    6.3010    2.7564 C   0  0  0  0  0  0
   10.2647    7.1859    1.7030 C   0  0  0  0  0  0
   11.2997    6.5305    0.7452 C   0  0  0  0  0  0
   12.4821    5.6907    1.3126 C   0  0  0  0  0  0
   13.5519    5.2669    0.3159 C   0  0  0  0  0  0
   13.0856    6.3564    2.4827 N   0  0  0  0  0  0
   10.5248    5.5979   -0.0508 O   0  0  0  0  0  0
   10.4775    6.1521    3.8671 O   0  0  0  0  0  0
    5.2737    5.2137    4.2293 O   0  0  0  0  0  0
    3.2241    5.9892    7.1703 O   0  0  0  0  0  0
    4.3082    6.1317    7.9764 C   0  0  0  0  0  0
    5.4010    5.6245    7.8087 O   0  0  0  0  0  0
    3.9655    7.1090    9.0667 C   0  0  0  0  0  0
    3.3381    8.4029    8.5239 C   0  0  0  0  0  0
    2.7542    9.2851    9.6348 C   0  0  0  0  0  0
    1.2522    9.1394    9.7137 C   0  0  0  0  0  0
    0.4663    9.9978    9.3274 O   0  0  0  0  0  0
    0.8556    7.9748   10.2477 O   0  0  0  0  0  0
    4.4681    9.1485    7.8005 C   0  0  0  0  0  0
    5.6470    8.8517    7.9209 O   0  0  0  0  0  0
    4.0594   10.1883    7.0604 O   0  0  0  0  0  0
    2.6448    3.4019    7.8470 O   0  0  0  0  0  0
    3.0912    2.5856    8.8728 C   0  0  0  0  0  0
    4.1170    1.9187    8.8358 O   0  0  0  0  0  0
    2.1501    2.6033   10.0846 C   0  0  0  0  0  0
    2.7505    3.1901   11.3999 C   0  0  0  0  0  0
    3.8785    2.4046   12.0935 C   0  0  0  0  0  0
    3.4412    1.0507   12.5734 C   0  0  0  0  0  0
    3.4750    0.6591   13.7319 O   0  0  0  0  0  0
    2.9723    0.2808   11.5796 O   0  0  0  0  0  0
    3.2127    4.6487   11.2946 C   0  0  0  0  0  0
    4.3842    4.9686   11.2515 O   0  0  0  0  0  0
    2.2279    5.5591   11.1439 O   0  0  0  0  0  0
   13.4982    7.2405    2.1880 H   0  0  0  0  0  0
   13.8744    5.7932    2.8082 H   0  0  0  0  0  0
    9.8751    6.1586   -0.5248 H   0  0  0  0  0  0
   11.3533    5.8977    3.5226 H   0  0  0  0  0  0
    6.1311    4.9444    4.5994 H   0  0  0  0  0  0
    1.5760    7.3762   10.5238 H   0  0  0  0  0  0
    4.7866   10.6710    6.5946 H   0  0  0  0  0  0
    2.7051   -0.5707   11.9856 H   0  0  0  0  0  0
    1.3209    5.1877   11.0690 H   0  0  0  0  0  0
  1  2  1  0  0  0
  2  3  1  0  0  0
  3  4  1  0  0  0
  4  5  1  0  0  0
  5  6  1  0  0  0
  5  7  1  0  0  0
  7  8  1  0  0  0
  7 39  1  0  0  0
  8  9  1  0  0  0
  8 27  1  0  0  0
  9 10  1  0  0  0
 10 11  1  0  0  0
 10 12  1  0  0  0
 12 13  1  0  0  0
 13 14  1  0  0  0
 13 26  1  0  0  0
 14 15  1  0  0  0
 15 16  1  0  0  0
 16 17  1  0  0  0
 17 18  1  0  0  0
 18 19  1  0  0  0
 18 25  1  0  0  0
 19 20  1  0  0  0
 20 21  1  0  0  0
 20 24  1  0  0  0
 21 22  1  0  0  0
 21 23  1  0  0  0
 23 51  1  0  0  0
 23 52  1  0  0  0
 24 53  1  0  0  0
 25 54  1  0  0  0
 26 55  1  0  0  0
 27 28  1  0  0  0
 28 29  2  0  0  0
 28 30  1  0  0  0
 30 31  1  0  0  0
 31 32  1  0  0  0
 31 36  1  0  0  0
 32 33  1  0  0  0
 33 34  2  0  0  0
 33 35  1  0  0  0
 35 56  1  0  0  0
 36 37  2  0  0  0
 36 38  1  0  0  0
 38 57  1  0  0  0
 39 40  1  0  0  0
 40 41  2  0  0  0
 40 42  1  0  0  0
 42 43  1  0  0  0
 43 44  1  0  0  0
 43 48  1  0  0  0
 44 45  1  0  0  0
 45 46  2  0  0  0
 45 47  1  0  0  0
 47 58  1  0  0  0
 48 49  2  0  0  0
 48 50  1  0  0  0
 50 59  1  0  0  0
M  END
>  <AUTHOR>
    GENERATED BY OPEN BABEL 2.4.1

>  <CHROM.1>
71.29769337,59.35577444,156.17240550,144.28325917,49.05006478,79.76868067
-59.99730628,65.57881216,177.16400753,57.81383447,173.63675001,60.59573953
176.38196771,57.39500161,58.71567834,56.83790775,65.82690702,-157.11182697
-176.06766115,-52.02627945,-171.18704641,61.40383273,-64.32014025,4.28151195
-49.51932039,169.42865767,-101.23155569,-13.50071794,-106.35977114,0.54823039
179.90475759,-7.20114334,-115.71980848,-67.57370762,-63.29163811,-106.28870004
-120.75011860,-179.42035312,-3.13711578,5.06972289,5.09064901,6.54807004
-2.75406121,0.80082070,-0.33597538

>  <COMPND>
    UNNAMED

>  <MASTER>
        0    0    0    0    0    0    0    0  109    0  109    0

>  <Name>
FB1.pdb

>  <RI>
0

>  <Rbt.Current_Directory>
/home/fc/tossine/AF_1/p3/0_clust09

>  <Rbt.Executable>
rbdock/0.1.0

>  <Rbt.Library>
librxdock.so/0.1.0

>  <Rbt.Parameter_File>
/cluster/rxdock/data/scripts/dock.prm

>  <Rbt.Receptor>
rx15.prm

>  <SCORE>
11.5281

>  <SCORE.INTER>
28.0455

>  <SCORE.INTER.CONST>
1

>  <SCORE.INTER.POLAR>
-0.72111

>  <SCORE.INTER.REPUL>
0

>  <SCORE.INTER.ROT>
32

>  <SCORE.INTER.VDW>
-6.90276

>  <SCORE.INTER.norm>
0.560909

>  <SCORE.INTRA>
-16.5173

>  <SCORE.INTRA.DIHEDRAL>
-19.2937

>  <SCORE.INTRA.DIHEDRAL.0>
47.3121

>  <SCORE.INTRA.POLAR>
-0.521923

>  <SCORE.INTRA.POLAR.0>
-1.47808

>  <SCORE.INTRA.REPUL>
0

>  <SCORE.INTRA.REPUL.0>
0

>  <SCORE.INTRA.VDW>
-5.09596

>  <SCORE.INTRA.VDW.0>
-2.78316

>  <SCORE.INTRA.norm>
-0.330347

>  <SCORE.RESTR>
0

>  <SCORE.RESTR.CAVITY>
0

>  <SCORE.RESTR.norm>
0

>  <SCORE.SYSTEM>
0

>  <SCORE.SYSTEM.CONST>
0

>  <SCORE.SYSTEM.DIHEDRAL>
0

>  <SCORE.SYSTEM.norm>
0

>  <SCORE.heavy>
50

>  <SCORE.norm>
0.230563

$$$$
