FB1.pdb
  RxDock  10062017233D
librxdock.so/0.1.0
 59 58  0  0  0  0  0  0  0  0999 V2000
  -12.9869   -7.2871   10.8498 C   0  0  0  0  0  0
  -12.4376   -6.3918    9.7416 C   0  0  0  0  0  0
  -13.4540   -5.3173    9.3215 C   0  0  0  0  0  0
  -12.8533   -3.8909    9.2561 C   0  0  0  0  0  0
  -11.6602   -3.7209    8.2521 C   0  0  0  0  0  0
  -12.2130   -3.8532    6.8142 C   0  0  0  0  0  0
  -10.8699   -2.3568    8.4329 C   0  0  0  0  0  0
  -11.4253   -1.0849    7.6330 C   0  0  0  0  0  0
  -10.9186    0.4099    7.8257 C   0  0  0  0  0  0
   -9.6824    0.5962    8.9020 C   0  0  0  0  0  0
   -8.4556   -0.1380    8.3634 C   0  0  0  0  0  0
   -9.2890    2.0983    9.2678 C   0  0  0  0  0  0
  -10.1886    3.0717   10.1960 C   0  0  0  0  0  0
  -10.0108    3.1498   11.7511 C   0  0  0  0  0  0
   -9.2602    4.4184   12.3648 C   0  0  0  0  0  0
   -7.6929    4.6134   12.3566 C   0  0  0  0  0  0
   -6.9005    4.3816   11.0429 C   0  0  0  0  0  0
   -5.6422    5.3034   10.8059 C   0  0  0  0  0  0
   -4.6738    4.8605    9.7020 C   0  0  0  0  0  0
   -3.2539    5.4939    9.6690 C   0  0  0  0  0  0
   -2.0804    4.8473   10.4628 C   0  0  0  0  0  0
   -1.0420    5.8023   11.0347 C   0  0  0  0  0  0
   -2.5900    3.9365   11.5054 N   0  0  0  0  0  0
   -2.8512    5.4210    8.2775 O   0  0  0  0  0  0
   -6.1113    6.6205   10.4978 O   0  0  0  0  0  0
   -9.9092    4.3989    9.7193 O   0  0  0  0  0  0
  -11.2017   -1.3617    6.2238 O   0  0  0  0  0  0
  -12.1026   -0.8515    5.3444 C   0  0  0  0  0  0
  -12.3298    0.3275    5.1499 O   0  0  0  0  0  0
  -12.7083   -1.9891    4.5696 C   0  0  0  0  0  0
  -14.2400   -1.8947    4.4826 C   0  0  0  0  0  0
  -14.9207   -3.2661    4.5794 C   0  0  0  0  0  0
  -14.4613   -4.1823    3.4690 C   0  0  0  0  0  0
  -15.1548   -4.4757    2.5012 O   0  0  0  0  0  0
  -13.2149   -4.6467    3.6407 O   0  0  0  0  0  0
  -14.6754   -1.0081    5.6575 C   0  0  0  0  0  0
  -15.0977    0.1292    5.5140 O   0  0  0  0  0  0
  -14.5079   -1.5671    6.8639 O   0  0  0  0  0  0
  -10.6448   -2.0545    9.8674 O   0  0  0  0  0  0
  -10.1654   -3.0634   10.6862 C   0  0  0  0  0  0
   -9.3529   -3.9120   10.3427 O   0  0  0  0  0  0
  -10.7683   -3.0070   12.0961 C   0  0  0  0  0  0
  -12.0731   -3.8359   12.3085 C   0  0  0  0  0  0
  -12.2641   -4.5508   13.6586 C   0  0  0  0  0  0
  -11.0894   -5.4037   14.0420 C   0  0  0  0  0  0
  -10.1170   -5.6373   13.3375 O   0  0  0  0  0  0
  -11.1956   -5.8938   15.2866 O   0  0  0  0  0  0
  -13.3694   -3.0711   12.0135 C   0  0  0  0  0  0
  -14.4396   -3.6235   11.8517 O   0  0  0  0  0  0
  -13.2695   -1.7257   12.0501 O   0  0  0  0  0  0
   -3.1328    3.1949   11.0649 H   0  0  0  0  0  0
   -3.2613    4.4459   12.0844 H   0  0  0  0  0  0
   -3.4814    6.0067    7.8073 H   0  0  0  0  0  0
   -5.3361    7.2011   10.3860 H   0  0  0  0  0  0
   -8.9453    4.5229    9.7229 H   0  0  0  0  0  0
  -12.5070   -4.0892    3.2644 H   0  0  0  0  0  0
  -14.3626   -2.5455    6.8459 H   0  0  0  0  0  0
  -10.3159   -6.2573   15.5218 H   0  0  0  0  0  0
  -14.1075   -1.2381   11.8881 H   0  0  0  0  0  0
  1  2  1  0  0  0
  2  3  1  0  0  0
  3  4  1  0  0  0
  4  5  1  0  0  0
  5  6  1  0  0  0
  5  7  1  0  0  0
  7  8  1  0  0  0
  7 39  1  0  0  0
  8  9  1  0  0  0
  8 27  1  0  0  0
  9 10  1  0  0  0
 10 11  1  0  0  0
 10 12  1  0  0  0
 12 13  1  0  0  0
 13 14  1  0  0  0
 13 26  1  0  0  0
 14 15  1  0  0  0
 15 16  1  0  0  0
 16 17  1  0  0  0
 17 18  1  0  0  0
 18 19  1  0  0  0
 18 25  1  0  0  0
 19 20  1  0  0  0
 20 21  1  0  0  0
 20 24  1  0  0  0
 21 22  1  0  0  0
 21 23  1  0  0  0
 23 51  1  0  0  0
 23 52  1  0  0  0
 24 53  1  0  0  0
 25 54  1  0  0  0
 26 55  1  0  0  0
 27 28  1  0  0  0
 28 29  2  0  0  0
 28 30  1  0  0  0
 30 31  1  0  0  0
 31 32  1  0  0  0
 31 36  1  0  0  0
 32 33  1  0  0  0
 33 34  2  0  0  0
 33 35  1  0  0  0
 35 56  1  0  0  0
 36 37  2  0  0  0
 36 38  1  0  0  0
 38 57  1  0  0  0
 39 40  1  0  0  0
 40 41  2  0  0  0
 40 42  1  0  0  0
 42 43  1  0  0  0
 43 44  1  0  0  0
 43 48  1  0  0  0
 44 45  1  0  0  0
 45 46  2  0  0  0
 45 47  1  0  0  0
 47 58  1  0  0  0
 48 49  2  0  0  0
 48 50  1  0  0  0
 50 59  1  0  0  0
M  END
>  <AUTHOR>
    GENERATED BY OPEN BABEL 2.4.1

>  <CHROM.1>
131.31650869,59.63830244,68.84468094,-87.27887741,170.91673820,47.11078064
2.55026196,147.87515768,64.23911714,72.64522674,90.14752915,104.23710416
-53.07680231,-77.83735252,48.00354662,145.83673180,165.64895848,-164.14036954
177.75903001,89.08416755,-146.64138537,64.89365746,60.38149365,62.93314381
133.15542128,-142.35519745,-59.51103633,108.69799622,-106.10292793,-89.13124445
-15.73519944,36.33370614,90.87850084,142.80603599,-51.91333757,163.99594311
-6.54055088,-167.48182507,-178.19578989,-10.41754919,-0.68478588,9.19380966
-2.94009492,-0.81569636,-1.00497247

>  <COMPND>
    UNNAMED

>  <MASTER>
        0    0    0    0    0    0    0    0  109    0  109    0

>  <Name>
FB1.pdb

>  <RI>
0

>  <Rbt.Current_Directory>
/home/fc/tossine/F10/p3/0_clust01

>  <Rbt.Executable>
rbdock/0.1.0

>  <Rbt.Library>
librxdock.so/0.1.0

>  <Rbt.Parameter_File>
/cluster/rxdock/data/scripts/dock.prm

>  <Rbt.Receptor>
rx_2.prm

>  <SCORE>
77.2969

>  <SCORE.INTER>
23.5671

>  <SCORE.INTER.CONST>
1

>  <SCORE.INTER.POLAR>
-2.23545

>  <SCORE.INTER.REPUL>
0.434923

>  <SCORE.INTER.ROT>
32

>  <SCORE.INTER.VDW>
-8.40696

>  <SCORE.INTER.norm>
0.471342

>  <SCORE.INTRA>
40.81

>  <SCORE.INTRA.DIHEDRAL>
65.9229

>  <SCORE.INTRA.DIHEDRAL.0>
47.3121

>  <SCORE.INTRA.POLAR>
1.47808

>  <SCORE.INTRA.POLAR.0>
-1.47808

>  <SCORE.INTRA.REPUL>
0

>  <SCORE.INTRA.REPUL.0>
0

>  <SCORE.INTRA.VDW>
2.82311

>  <SCORE.INTRA.VDW.0>
-2.78316

>  <SCORE.INTRA.norm>
0.8162

>  <SCORE.RESTR>
12.9198

>  <SCORE.RESTR.CAVITY>
12.9198

>  <SCORE.RESTR.norm>
0.258396

>  <SCORE.SYSTEM>
0

>  <SCORE.SYSTEM.CONST>
0

>  <SCORE.SYSTEM.DIHEDRAL>
0

>  <SCORE.SYSTEM.norm>
0

>  <SCORE.heavy>
50

>  <SCORE.norm>
1.54594

$$$$
