FB1.pdb
  RxDock  10062016393D
librxdock.so/0.1.0
 59 58  0  0  0  0  0  0  0  0999 V2000
  -11.3226    2.4753   12.1878 C   0  0  0  0  0  0
  -11.0240    1.0665   11.6805 C   0  0  0  0  0  0
   -9.6165    0.9678   11.0695 C   0  0  0  0  0  0
   -9.2562   -0.4555   10.5754 C   0  0  0  0  0  0
  -10.0218   -0.9226    9.2884 C   0  0  0  0  0  0
   -9.3746   -2.2346    8.7879 C   0  0  0  0  0  0
  -11.5817   -1.1086    9.5121 C   0  0  0  0  0  0
  -12.4623   -1.4647    8.2222 C   0  0  0  0  0  0
  -14.0515   -1.4612    8.1698 C   0  0  0  0  0  0
  -14.7013   -1.3559    6.6572 C   0  0  0  0  0  0
  -15.2518    0.0560    6.4630 C   0  0  0  0  0  0
  -13.7285   -1.7218    5.4470 C   0  0  0  0  0  0
  -13.3582   -3.2340    5.0057 C   0  0  0  0  0  0
  -14.3462   -4.1371    4.1906 C   0  0  0  0  0  0
  -15.8793   -4.1753    4.6350 C   0  0  0  0  0  0
  -16.8092   -2.9021    4.7289 C   0  0  0  0  0  0
  -17.2419   -2.1737    3.4291 C   0  0  0  0  0  0
  -16.0837   -1.6281    2.5071 C   0  0  0  0  0  0
  -16.5085   -0.7094    1.3546 C   0  0  0  0  0  0
  -15.9967   -1.0374   -0.0767 C   0  0  0  0  0  0
  -14.5259   -0.7246   -0.4823 C   0  0  0  0  0  0
  -14.1675   -0.9352   -1.9467 C   0  0  0  0  0  0
  -14.1319    0.6238   -0.0316 N   0  0  0  0  0  0
  -16.1189   -2.4782   -0.1897 O   0  0  0  0  0  0
  -15.1564   -0.9189    3.3358 O   0  0  0  0  0  0
  -12.1957   -3.1010    4.1705 O   0  0  0  0  0  0
  -12.0662   -0.5240    7.1874 O   0  0  0  0  0  0
  -12.0554    0.7926    7.5219 C   0  0  0  0  0  0
  -11.5067    1.2845    8.4896 O   0  0  0  0  0  0
  -12.7536    1.5651    6.4370 C   0  0  0  0  0  0
  -11.8423    1.8441    5.2310 C   0  0  0  0  0  0
  -10.3852    2.0951    5.6399 C   0  0  0  0  0  0
   -9.4966    2.2442    4.4268 C   0  0  0  0  0  0
   -9.9013    2.6188    3.3316 O   0  0  0  0  0  0
   -8.2145    1.9280    4.6615 O   0  0  0  0  0  0
  -11.9303    0.5983    4.3387 C   0  0  0  0  0  0
  -11.4479   -0.4802    4.6495 O   0  0  0  0  0  0
  -12.5395    0.8023    3.1626 O   0  0  0  0  0  0
  -11.8545   -2.0307   10.6413 O   0  0  0  0  0  0
  -11.7564   -3.3939   10.4174 C   0  0  0  0  0  0
  -12.4712   -4.0270    9.6516 O   0  0  0  0  0  0
  -10.6375   -4.0422   11.2434 C   0  0  0  0  0  0
  -11.0538   -5.2846   12.0905 C   0  0  0  0  0  0
  -10.3176   -6.6128   11.8366 C   0  0  0  0  0  0
  -10.5390   -7.1509   10.4524 C   0  0  0  0  0  0
   -9.9603   -6.7784    9.4410 O   0  0  0  0  0  0
  -11.4539   -8.1319   10.4235 O   0  0  0  0  0  0
  -11.0567   -5.0510   13.6063 C   0  0  0  0  0  0
  -10.4510   -4.1398   14.1351 O   0  0  0  0  0  0
  -11.8673   -5.8635   14.3162 O   0  0  0  0  0  0
  -13.1203    0.7195   -0.1087 H   0  0  0  0  0  0
  -14.3287    0.7044    0.9685 H   0  0  0  0  0  0
  -15.4184   -2.8321    0.3980 H   0  0  0  0  0  0
  -15.6271   -0.1715    3.7484 H   0  0  0  0  0  0
  -11.6636   -2.3625    4.5112 H   0  0  0  0  0  0
   -8.0039    1.7028    5.5880 H   0  0  0  0  0  0
  -13.3578    1.3558    3.2152 H   0  0  0  0  0  0
  -11.7267   -8.2896   11.3519 H   0  0  0  0  0  0
  -11.8700   -5.7096   15.2871 H   0  0  0  0  0  0
  1  2  1  0  0  0
  2  3  1  0  0  0
  3  4  1  0  0  0
  4  5  1  0  0  0
  5  6  1  0  0  0
  5  7  1  0  0  0
  7  8  1  0  0  0
  7 39  1  0  0  0
  8  9  1  0  0  0
  8 27  1  0  0  0
  9 10  1  0  0  0
 10 11  1  0  0  0
 10 12  1  0  0  0
 12 13  1  0  0  0
 13 14  1  0  0  0
 13 26  1  0  0  0
 14 15  1  0  0  0
 15 16  1  0  0  0
 16 17  1  0  0  0
 17 18  1  0  0  0
 18 19  1  0  0  0
 18 25  1  0  0  0
 19 20  1  0  0  0
 20 21  1  0  0  0
 20 24  1  0  0  0
 21 22  1  0  0  0
 21 23  1  0  0  0
 23 51  1  0  0  0
 23 52  1  0  0  0
 24 53  1  0  0  0
 25 54  1  0  0  0
 26 55  1  0  0  0
 27 28  1  0  0  0
 28 29  2  0  0  0
 28 30  1  0  0  0
 30 31  1  0  0  0
 31 32  1  0  0  0
 31 36  1  0  0  0
 32 33  1  0  0  0
 33 34  2  0  0  0
 33 35  1  0  0  0
 35 56  1  0  0  0
 36 37  2  0  0  0
 36 38  1  0  0  0
 38 57  1  0  0  0
 39 40  1  0  0  0
 40 41  2  0  0  0
 40 42  1  0  0  0
 42 43  1  0  0  0
 43 44  1  0  0  0
 43 48  1  0  0  0
 44 45  1  0  0  0
 45 46  2  0  0  0
 45 47  1  0  0  0
 47 58  1  0  0  0
 48 49  2  0  0  0
 48 50  1  0  0  0
 50 59  1  0  0  0
M  END
>  <AUTHOR>
    GENERATED BY OPEN BABEL 2.4.1

>  <CHROM.1>
178.45374932,71.07157521,170.00968982,175.01598526,-169.52266304,-79.54577247
160.15252224,-50.42007936,-105.64980460,78.59676815,76.90467713,-44.76667359
34.21848693,57.48827117,69.33502790,-58.33457171,-170.02970272,-128.97969137
-61.38524898,-75.76260670,-173.27430101,-71.03536724,166.75307459,51.19233572
-81.18942225,-35.21600809,174.98148036,-69.98051426,25.54974735,-3.96404557
-42.75866946,-63.91186073,127.91895535,121.91536271,-63.76004986,-19.50138511
80.14766855,-2.88563250,-179.78112299,-12.44005135,-1.63678917,6.81543582
-0.97904934,-0.95902865,-0.75133252

>  <COMPND>
    UNNAMED

>  <MASTER>
        0    0    0    0    0    0    0    0  109    0  109    0

>  <Name>
FB1.pdb

>  <RI>
0

>  <Rbt.Current_Directory>
/home/fc/tossine/F10/p3/0_clust01

>  <Rbt.Executable>
rbdock/0.1.0

>  <Rbt.Library>
librxdock.so/0.1.0

>  <Rbt.Parameter_File>
/cluster/rxdock/data/scripts/dock.prm

>  <Rbt.Receptor>
rx_1.prm

>  <SCORE>
42.9602

>  <SCORE.INTER>
7.33772

>  <SCORE.INTER.CONST>
1

>  <SCORE.INTER.POLAR>
-1.22868

>  <SCORE.INTER.REPUL>
0.79559

>  <SCORE.INTER.ROT>
32

>  <SCORE.INTER.VDW>
-29.8627

>  <SCORE.INTER.norm>
0.146754

>  <SCORE.INTRA>
26.3742

>  <SCORE.INTRA.DIHEDRAL>
42.1466

>  <SCORE.INTRA.DIHEDRAL.0>
47.3121

>  <SCORE.INTRA.POLAR>
0.534053

>  <SCORE.INTRA.POLAR.0>
-1.47808

>  <SCORE.INTRA.REPUL>
0

>  <SCORE.INTRA.REPUL.0>
0

>  <SCORE.INTRA.VDW>
3.48518

>  <SCORE.INTRA.VDW.0>
-2.78316

>  <SCORE.INTRA.norm>
0.527485

>  <SCORE.RESTR>
9.24819

>  <SCORE.RESTR.CAVITY>
9.24819

>  <SCORE.RESTR.norm>
0.184964

>  <SCORE.SYSTEM>
0

>  <SCORE.SYSTEM.CONST>
0

>  <SCORE.SYSTEM.DIHEDRAL>
0

>  <SCORE.SYSTEM.norm>
0

>  <SCORE.heavy>
50

>  <SCORE.norm>
0.859203

$$$$
