FB1.pdb
  RxDock  10062017483D
librxdock.so/0.1.0
 59 58  0  0  0  0  0  0  0  0999 V2000
   -1.2426  -12.0067    7.2567 C   0  0  0  0  0  0
   -1.0254  -12.8442    5.9986 C   0  0  0  0  0  0
   -1.5266  -12.1193    4.7385 C   0  0  0  0  0  0
   -0.3910  -11.4801    3.9010 C   0  0  0  0  0  0
   -0.8330  -10.9240    2.5025 C   0  0  0  0  0  0
   -1.9599  -11.8295    1.9541 C   0  0  0  0  0  0
   -1.2931   -9.4059    2.5412 C   0  0  0  0  0  0
   -1.8702   -8.7876    1.1808 C   0  0  0  0  0  0
   -2.5968   -7.3792    1.0517 C   0  0  0  0  0  0
   -3.3833   -7.1261   -0.3761 C   0  0  0  0  0  0
   -4.3623   -8.2771   -0.6013 C   0  0  0  0  0  0
   -4.1511   -5.7351   -0.5190 C   0  0  0  0  0  0
   -5.2031   -5.3962   -1.7010 C   0  0  0  0  0  0
   -5.8738   -3.9877   -1.8505 C   0  0  0  0  0  0
   -7.2295   -3.8794   -2.6868 C   0  0  0  0  0  0
   -7.6066   -2.6574   -3.6137 C   0  0  0  0  0  0
   -6.6645   -2.2649   -4.7823 C   0  0  0  0  0  0
   -7.0061   -0.9266   -5.5449 C   0  0  0  0  0  0
   -6.8929   -0.9680   -7.0739 C   0  0  0  0  0  0
   -7.2234    0.3245   -7.8730 C   0  0  0  0  0  0
   -6.3691    1.6127   -7.6829 C   0  0  0  0  0  0
   -7.0287    2.9272   -8.0757 C   0  0  0  0  0  0
   -5.8242    1.6845   -6.3138 N   0  0  0  0  0  0
   -7.0399   -0.0459   -9.2633 O   0  0  0  0  0  0
   -8.3428   -0.5493   -5.1978 O   0  0  0  0  0  0
   -4.4656   -5.5918   -2.9193 O   0  0  0  0  0  0
   -0.7445   -8.6968    0.2660 O   0  0  0  0  0  0
   -0.5365   -9.7528   -0.5629 C   0  0  0  0  0  0
   -1.0874   -9.9497   -1.6292 O   0  0  0  0  0  0
    0.5699  -10.5958    0.0087 C   0  0  0  0  0  0
    1.9571   -9.9653   -0.1934 C   0  0  0  0  0  0
    2.8536  -10.1063    1.0434 C   0  0  0  0  0  0
    2.7656  -11.4983    1.6246 C   0  0  0  0  0  0
    2.1179  -12.4064    1.1151 O   0  0  0  0  0  0
    3.4682  -11.6500    2.7570 O   0  0  0  0  0  0
    2.5856  -10.7017   -1.3845 C   0  0  0  0  0  0
    2.0185  -11.5996   -1.9881 O   0  0  0  0  0  0
    3.8333  -10.3118   -1.6798 O   0  0  0  0  0  0
   -2.1921   -9.1481    3.6925 O   0  0  0  0  0  0
   -1.6516   -8.5886    4.8383 C   0  0  0  0  0  0
   -0.4725   -8.2912    4.9786 O   0  0  0  0  0  0
   -2.7028   -8.3749    5.9354 C   0  0  0  0  0  0
   -3.0296   -9.6231    6.8127 C   0  0  0  0  0  0
   -3.2709   -9.4063    8.3178 C   0  0  0  0  0  0
   -2.0180   -9.0581    9.0685 C   0  0  0  0  0  0
   -0.9564   -8.7167    8.5656 O   0  0  0  0  0  0
   -2.1771   -9.1398   10.3983 O   0  0  0  0  0  0
   -4.1840  -10.4863    6.2887 C   0  0  0  0  0  0
   -4.9993  -11.0130    7.0199 O   0  0  0  0  0  0
   -4.3043  -10.5395    4.9456 O   0  0  0  0  0  0
   -5.3895    2.5957   -6.1747 H   0  0  0  0  0  0
   -5.0584    1.0120   -6.2313 H   0  0  0  0  0  0
   -6.0772   -0.2108   -9.3497 H   0  0  0  0  0  0
   -8.5281    0.3191   -5.6005 H   0  0  0  0  0  0
   -5.0582   -5.3963   -3.6643 H   0  0  0  0  0  0
    3.8980  -10.8399    3.0923 H   0  0  0  0  0  0
    4.1325   -9.4984   -1.2027 H   0  0  0  0  0  0
   -3.0700   -9.5145   10.5523 H   0  0  0  0  0  0
   -3.5830  -10.1011    4.4419 H   0  0  0  0  0  0
  1  2  1  0  0  0
  2  3  1  0  0  0
  3  4  1  0  0  0
  4  5  1  0  0  0
  5  6  1  0  0  0
  5  7  1  0  0  0
  7  8  1  0  0  0
  7 39  1  0  0  0
  8  9  1  0  0  0
  8 27  1  0  0  0
  9 10  1  0  0  0
 10 11  1  0  0  0
 10 12  1  0  0  0
 12 13  1  0  0  0
 13 14  1  0  0  0
 13 26  1  0  0  0
 14 15  1  0  0  0
 15 16  1  0  0  0
 16 17  1  0  0  0
 17 18  1  0  0  0
 18 19  1  0  0  0
 18 25  1  0  0  0
 19 20  1  0  0  0
 20 21  1  0  0  0
 20 24  1  0  0  0
 21 22  1  0  0  0
 21 23  1  0  0  0
 23 51  1  0  0  0
 23 52  1  0  0  0
 24 53  1  0  0  0
 25 54  1  0  0  0
 26 55  1  0  0  0
 27 28  1  0  0  0
 28 29  2  0  0  0
 28 30  1  0  0  0
 30 31  1  0  0  0
 31 32  1  0  0  0
 31 36  1  0  0  0
 32 33  1  0  0  0
 33 34  2  0  0  0
 33 35  1  0  0  0
 35 56  1  0  0  0
 36 37  2  0  0  0
 36 38  1  0  0  0
 38 57  1  0  0  0
 39 40  1  0  0  0
 40 41  2  0  0  0
 40 42  1  0  0  0
 42 43  1  0  0  0
 43 44  1  0  0  0
 43 48  1  0  0  0
 44 45  1  0  0  0
 45 46  2  0  0  0
 45 47  1  0  0  0
 47 58  1  0  0  0
 48 49  2  0  0  0
 48 50  1  0  0  0
 50 59  1  0  0  0
M  END
>  <AUTHOR>
    GENERATED BY OPEN BABEL 2.4.1

>  <CHROM.1>
101.91343152,171.06480524,-33.64551478,-175.34683252,169.66610272,98.53792862
-167.12078557,92.41200700,54.62694911,-168.06264385,-176.42698228,-159.16008358
-179.81825401,-143.71162439,58.00307333,-172.27999027,-137.44909959,179.80921464
174.80204432,62.97785246,-158.22165109,-66.92557494,-171.66209739,83.79049925
-75.31696950,138.69950677,44.01083727,-0.08519309,3.95376232,3.64616503,-10.20108013
-0.30589731,82.76786591,141.45637228,-71.13968457,-141.76177849,13.70300745
6.35669998,6.41009996,-2.59095009,-7.52670034,0.68340452,1.07647871,-0.67874297
1.97893580

>  <COMPND>
    UNNAMED

>  <MASTER>
        0    0    0    0    0    0    0    0  109    0  109    0

>  <Name>
FB1.pdb

>  <RI>
0

>  <Rbt.Current_Directory>
/home/fc/tossine/F10/p3/0_clust01

>  <Rbt.Executable>
rbdock/0.1.0

>  <Rbt.Library>
librxdock.so/0.1.0

>  <Rbt.Parameter_File>
/cluster/rxdock/data/scripts/dock.prm

>  <Rbt.Receptor>
rx_3.prm

>  <SCORE>
25.792

>  <SCORE.INTER>
-2.62999

>  <SCORE.INTER.CONST>
1

>  <SCORE.INTER.POLAR>
-3.43613

>  <SCORE.INTER.REPUL>
0.153659

>  <SCORE.INTER.ROT>
32

>  <SCORE.INTER.VDW>
-29.1155

>  <SCORE.INTER.norm>
-0.0525998

>  <SCORE.INTRA>
21.7852

>  <SCORE.INTRA.DIHEDRAL>
24.8886

>  <SCORE.INTRA.DIHEDRAL.0>
47.3121

>  <SCORE.INTRA.POLAR>
0.478077

>  <SCORE.INTRA.POLAR.0>
-1.47808

>  <SCORE.INTRA.REPUL>
0

>  <SCORE.INTRA.REPUL.0>
0

>  <SCORE.INTRA.VDW>
7.71546

>  <SCORE.INTRA.VDW.0>
-2.78316

>  <SCORE.INTRA.norm>
0.435704

>  <SCORE.RESTR>
6.63674

>  <SCORE.RESTR.CAVITY>
6.63674

>  <SCORE.RESTR.norm>
0.132735

>  <SCORE.SYSTEM>
0

>  <SCORE.SYSTEM.CONST>
0

>  <SCORE.SYSTEM.DIHEDRAL>
0

>  <SCORE.SYSTEM.norm>
0

>  <SCORE.heavy>
50

>  <SCORE.norm>
0.515839

$$$$
