FB1.pdb
  RxDock  10062017263D
librxdock.so/0.1.0
 59 58  0  0  0  0  0  0  0  0999 V2000
  -14.3712    0.1077    6.2109 C   0  0  0  0  0  0
  -14.8987   -0.3728    7.5608 C   0  0  0  0  0  0
  -13.9409   -1.3783    8.2211 C   0  0  0  0  0  0
  -14.3390   -1.7492    9.6715 C   0  0  0  0  0  0
  -13.4160   -2.8152   10.3587 C   0  0  0  0  0  0
  -14.3070   -3.7603   11.1976 C   0  0  0  0  0  0
  -12.5251   -3.6363    9.3340 C   0  0  0  0  0  0
  -11.3151   -2.8532    8.6348 C   0  0  0  0  0  0
   -9.7942   -2.9219    9.0934 C   0  0  0  0  0  0
   -8.9510   -1.5131    8.9334 C   0  0  0  0  0  0
   -9.3796   -0.8363    7.6325 C   0  0  0  0  0  0
   -9.0756   -0.4782   10.1410 C   0  0  0  0  0  0
   -8.9798    1.1285    9.9730 C   0  0  0  0  0  0
   -8.7667    2.0895   11.1924 C   0  0  0  0  0  0
   -9.9006    3.1661   11.5154 C   0  0  0  0  0  0
   -9.8302    4.2008   12.7066 C   0  0  0  0  0  0
   -8.6578    5.2151   12.7700 C   0  0  0  0  0  0
   -7.3148    4.7864   12.0617 C   0  0  0  0  0  0
   -6.9346    5.5667   10.7971 C   0  0  0  0  0  0
   -6.9841    7.1202   10.8464 C   0  0  0  0  0  0
   -6.0595    7.9710    9.9262 C   0  0  0  0  0  0
   -6.0449    9.4716   10.1818 C   0  0  0  0  0  0
   -4.6889    7.4255    9.9096 N   0  0  0  0  0  0
   -8.3341    7.4581   10.4379 O   0  0  0  0  0  0
   -6.2527    4.9165   13.0129 O   0  0  0  0  0  0
   -7.8412    1.3438    9.1221 O   0  0  0  0  0  0
  -11.2934   -3.2924    7.2495 O   0  0  0  0  0  0
  -12.0921   -2.6234    6.3777 C   0  0  0  0  0  0
  -11.8367   -1.5657    5.8343 O   0  0  0  0  0  0
  -13.3130   -3.4604    6.1123 C   0  0  0  0  0  0
  -13.5871   -3.6453    4.6113 C   0  0  0  0  0  0
  -14.3775   -4.9252    4.3105 C   0  0  0  0  0  0
  -14.4815   -5.1645    2.8221 C   0  0  0  0  0  0
  -15.4208   -4.7754    2.1365 O   0  0  0  0  0  0
  -13.4426   -5.8456    2.3166 O   0  0  0  0  0  0
  -14.3942   -2.4147    4.1751 C   0  0  0  0  0  0
  -13.8822   -1.4232    3.6780 O   0  0  0  0  0  0
  -15.7074   -2.4959    4.4301 O   0  0  0  0  0  0
  -12.0855   -4.9258    9.9203 O   0  0  0  0  0  0
  -12.9296   -6.0189    9.8162 C   0  0  0  0  0  0
  -13.5591   -6.3193    8.8103 O   0  0  0  0  0  0
  -12.9958   -6.8313   11.1162 C   0  0  0  0  0  0
  -11.6340   -7.3851   11.6390 C   0  0  0  0  0  0
  -10.4942   -7.5798   10.6224 C   0  0  0  0  0  0
   -9.5817   -6.3911   10.5294 C   0  0  0  0  0  0
   -8.7492   -6.0637   11.3639 O   0  0  0  0  0  0
   -9.7539   -5.6996    9.3926 O   0  0  0  0  0  0
  -11.0502   -6.6194   12.8327 C   0  0  0  0  0  0
  -10.4767   -7.1684   13.7527 O   0  0  0  0  0  0
  -11.1187   -5.2742   12.7477 O   0  0  0  0  0  0
   -4.3626    7.3128   10.8684 H   0  0  0  0  0  0
   -4.0646    8.1235    9.4991 H   0  0  0  0  0  0
   -8.3994    7.1386    9.5133 H   0  0  0  0  0  0
   -6.2659    4.1328   13.5927 H   0  0  0  0  0  0
   -7.9932    2.1603    8.6173 H   0  0  0  0  0  0
  -12.7519   -6.0913    2.9617 H   0  0  0  0  0  0
  -16.2155   -1.6708    4.2307 H   0  0  0  0  0  0
  -10.6115   -5.9882    9.0149 H   0  0  0  0  0  0
  -11.4433   -4.9240   11.8886 H   0  0  0  0  0  0
  1  2  1  0  0  0
  2  3  1  0  0  0
  3  4  1  0  0  0
  4  5  1  0  0  0
  5  6  1  0  0  0
  5  7  1  0  0  0
  7  8  1  0  0  0
  7 39  1  0  0  0
  8  9  1  0  0  0
  8 27  1  0  0  0
  9 10  1  0  0  0
 10 11  1  0  0  0
 10 12  1  0  0  0
 12 13  1  0  0  0
 13 14  1  0  0  0
 13 26  1  0  0  0
 14 15  1  0  0  0
 15 16  1  0  0  0
 16 17  1  0  0  0
 17 18  1  0  0  0
 18 19  1  0  0  0
 18 25  1  0  0  0
 19 20  1  0  0  0
 20 21  1  0  0  0
 20 24  1  0  0  0
 21 22  1  0  0  0
 21 23  1  0  0  0
 23 51  1  0  0  0
 23 52  1  0  0  0
 24 53  1  0  0  0
 25 54  1  0  0  0
 26 55  1  0  0  0
 27 28  1  0  0  0
 28 29  2  0  0  0
 28 30  1  0  0  0
 30 31  1  0  0  0
 31 32  1  0  0  0
 31 36  1  0  0  0
 32 33  1  0  0  0
 33 34  2  0  0  0
 33 35  1  0  0  0
 35 56  1  0  0  0
 36 37  2  0  0  0
 36 38  1  0  0  0
 38 57  1  0  0  0
 39 40  1  0  0  0
 40 41  2  0  0  0
 40 42  1  0  0  0
 42 43  1  0  0  0
 43 44  1  0  0  0
 43 48  1  0  0  0
 44 45  1  0  0  0
 45 46  2  0  0  0
 45 47  1  0  0  0
 47 58  1  0  0  0
 48 49  2  0  0  0
 48 50  1  0  0  0
 50 59  1  0  0  0
M  END
>  <AUTHOR>
    GENERATED BY OPEN BABEL 2.4.1

>  <CHROM.1>
172.31992445,177.75231906,-141.10076344,71.46919613,98.87468738,86.00943561
-144.35018333,86.63463379,-38.97078946,-149.60670349,-165.15913832,-118.28696130
150.42080138,-179.97746637,59.52922247,-26.07766804,111.05406132,48.52306807
80.03610507,152.28419347,-171.93038172,-63.54439113,-52.03913610,81.80955532
-128.96534510,154.55004994,-172.98297855,95.34131706,-92.95168792,-0.61436613
174.36897538,42.35271034,-57.94633595,-23.66865672,93.18480713,141.79782368
73.82242339,16.07988118,-6.51624202,-11.00134717,-1.33495399,8.94214759,2.52381737
0.97780679,2.60420474

>  <COMPND>
    UNNAMED

>  <MASTER>
        0    0    0    0    0    0    0    0  109    0  109    0

>  <Name>
FB1.pdb

>  <RI>
0

>  <Rbt.Current_Directory>
/home/fc/tossine/F10/p3/0_clust01

>  <Rbt.Executable>
rbdock/0.1.0

>  <Rbt.Library>
librxdock.so/0.1.0

>  <Rbt.Parameter_File>
/cluster/rxdock/data/scripts/dock.prm

>  <Rbt.Receptor>
rx_2.prm

>  <SCORE>
63.2676

>  <SCORE.INTER>
25.0354

>  <SCORE.INTER.CONST>
1

>  <SCORE.INTER.POLAR>
-1.77868

>  <SCORE.INTER.REPUL>
1.04379

>  <SCORE.INTER.ROT>
32

>  <SCORE.INTER.VDW>
-11.536

>  <SCORE.INTER.norm>
0.500709

>  <SCORE.INTRA>
31.3156

>  <SCORE.INTRA.DIHEDRAL>
57.6244

>  <SCORE.INTRA.DIHEDRAL.0>
47.3121

>  <SCORE.INTRA.POLAR>
0.319215

>  <SCORE.INTRA.POLAR.0>
-1.47808

>  <SCORE.INTRA.REPUL>
0.0150983

>  <SCORE.INTRA.REPUL.0>
0

>  <SCORE.INTRA.VDW>
1.34261

>  <SCORE.INTRA.VDW.0>
-2.78316

>  <SCORE.INTRA.norm>
0.626313

>  <SCORE.RESTR>
6.9165

>  <SCORE.RESTR.CAVITY>
6.9165

>  <SCORE.RESTR.norm>
0.13833

>  <SCORE.SYSTEM>
0

>  <SCORE.SYSTEM.CONST>
0

>  <SCORE.SYSTEM.DIHEDRAL>
0

>  <SCORE.SYSTEM.norm>
0

>  <SCORE.heavy>
50

>  <SCORE.norm>
1.26535

$$$$
