FB1.pdb
  RxDock  10062017563D
librxdock.so/0.1.0
 59 58  0  0  0  0  0  0  0  0999 V2000
    1.4235  -15.2501    6.4935 C   0  0  0  0  0  0
    0.6567  -14.8716    5.2285 C   0  0  0  0  0  0
   -0.3070  -13.6994    5.4762 C   0  0  0  0  0  0
   -1.0146  -13.1997    4.1919 C   0  0  0  0  0  0
   -0.0516  -12.7362    3.0437 C   0  0  0  0  0  0
   -0.9074  -12.1309    1.9071 C   0  0  0  0  0  0
    1.0600  -11.7111    3.5247 C   0  0  0  0  0  0
    2.3291  -11.5148    2.5671 C   0  0  0  0  0  0
    2.3262  -11.7198    0.9904 C   0  0  0  0  0  0
    1.1186  -10.9355    0.1853 C   0  0  0  0  0  0
    0.7616   -9.6686    0.9611 C   0  0  0  0  0  0
    1.4144  -10.5645   -1.3377 C   0  0  0  0  0  0
    0.2694  -10.3862   -2.4673 C   0  0  0  0  0  0
    0.5458  -10.6335   -3.9900 C   0  0  0  0  0  0
    1.2679   -9.4806   -4.8257 C   0  0  0  0  0  0
    1.6443   -9.5945   -6.3554 C   0  0  0  0  0  0
    0.5215   -9.5434   -7.4249 C   0  0  0  0  0  0
    0.9125   -8.9424   -8.8303 C   0  0  0  0  0  0
    1.8604   -7.7367   -8.8136 C   0  0  0  0  0  0
    2.5231   -7.3012  -10.1513 C   0  0  0  0  0  0
    3.2293   -5.9183  -10.2712 C   0  0  0  0  0  0
    4.0897   -5.4922   -9.0899 C   0  0  0  0  0  0
    3.9838   -5.8214  -11.5352 N   0  0  0  0  0  0
    3.5706   -8.2785  -10.3780 O   0  0  0  0  0  0
    1.5162   -9.9848   -9.6040 O   0  0  0  0  0  0
   -0.7508  -11.3347   -2.1122 O   0  0  0  0  0  0
    2.7680  -10.1414    2.7506 O   0  0  0  0  0  0
    4.0941   -9.9413    2.9673 C   0  0  0  0  0  0
    4.8748   -9.4051    2.2042 O   0  0  0  0  0  0
    4.4240  -10.4040    4.3596 C   0  0  0  0  0  0
    4.9899   -9.2766    5.2377 C   0  0  0  0  0  0
    4.8332   -9.5630    6.7367 C   0  0  0  0  0  0
    5.4097   -8.4414    7.5691 C   0  0  0  0  0  0
    4.7564   -7.4778    7.9544 O   0  0  0  0  0  0
    6.7114   -8.5996    7.8508 O   0  0  0  0  0  0
    6.4777   -9.1671    4.8766 C   0  0  0  0  0  0
    6.9511   -8.2106    4.2820 O   0  0  0  0  0  0
    7.2112  -10.2334    5.2243 O   0  0  0  0  0  0
    0.4577  -10.4145    3.9195 O   0  0  0  0  0  0
    0.2096  -10.1848    5.2625 C   0  0  0  0  0  0
    1.0216   -9.7185    6.0508 O   0  0  0  0  0  0
   -1.2157  -10.5818    5.6692 C   0  0  0  0  0  0
   -2.3261   -9.5302    5.3598 C   0  0  0  0  0  0
   -2.5053   -8.3574    6.3410 C   0  0  0  0  0  0
   -1.4887   -8.3567    7.4461 C   0  0  0  0  0  0
   -0.5283   -7.6038    7.5316 O   0  0  0  0  0  0
   -1.7477   -9.2824    8.3822 O   0  0  0  0  0  0
   -2.2642   -8.9341    3.9480 C   0  0  0  0  0  0
   -1.8356   -7.8201    3.7199 O   0  0  0  0  0  0
   -2.6195   -9.7701    2.9500 O   0  0  0  0  0  0
    4.9639   -6.0354  -11.3564 H   0  0  0  0  0  0
    3.9791   -4.8468  -11.8445 H   0  0  0  0  0  0
    4.0410   -7.9556  -11.1753 H   0  0  0  0  0  0
    2.3387  -10.2579   -9.1573 H   0  0  0  0  0  0
   -1.2469  -10.9745   -1.3581 H   0  0  0  0  0  0
    7.1186   -7.8733    8.3609 H   0  0  0  0  0  0
    6.6967  -10.9645    5.6480 H   0  0  0  0  0  0
   -2.6021   -9.6972    8.1389 H   0  0  0  0  0  0
   -2.4636   -9.4291    2.0413 H   0  0  0  0  0  0
  1  2  1  0  0  0
  2  3  1  0  0  0
  3  4  1  0  0  0
  4  5  1  0  0  0
  5  6  1  0  0  0
  5  7  1  0  0  0
  7  8  1  0  0  0
  7 39  1  0  0  0
  8  9  1  0  0  0
  8 27  1  0  0  0
  9 10  1  0  0  0
 10 11  1  0  0  0
 10 12  1  0  0  0
 12 13  1  0  0  0
 13 14  1  0  0  0
 13 26  1  0  0  0
 14 15  1  0  0  0
 15 16  1  0  0  0
 16 17  1  0  0  0
 17 18  1  0  0  0
 18 19  1  0  0  0
 18 25  1  0  0  0
 19 20  1  0  0  0
 20 21  1  0  0  0
 20 24  1  0  0  0
 21 22  1  0  0  0
 21 23  1  0  0  0
 23 51  1  0  0  0
 23 52  1  0  0  0
 24 53  1  0  0  0
 25 54  1  0  0  0
 26 55  1  0  0  0
 27 28  1  0  0  0
 28 29  2  0  0  0
 28 30  1  0  0  0
 30 31  1  0  0  0
 31 32  1  0  0  0
 31 36  1  0  0  0
 32 33  1  0  0  0
 33 34  2  0  0  0
 33 35  1  0  0  0
 35 56  1  0  0  0
 36 37  2  0  0  0
 36 38  1  0  0  0
 38 57  1  0  0  0
 39 40  1  0  0  0
 40 41  2  0  0  0
 40 42  1  0  0  0
 42 43  1  0  0  0
 43 44  1  0  0  0
 43 48  1  0  0  0
 44 45  1  0  0  0
 45 46  2  0  0  0
 45 47  1  0  0  0
 47 58  1  0  0  0
 48 49  2  0  0  0
 48 50  1  0  0  0
 50 59  1  0  0  0
M  END
>  <AUTHOR>
    GENERATED BY OPEN BABEL 2.4.1

>  <CHROM.1>
174.91966352,-57.59965286,-173.98157729,162.43877739,27.64713547,97.26998746
50.21035966,131.70754363,29.88487439,153.27065024,-153.04564392,-79.97465591
76.19738460,178.46263289,72.19241343,149.98492561,-38.56871526,166.80845774
-63.58679274,166.21825985,41.85694450,-174.86549819,-97.76862190,111.44527643
-119.93247754,158.31806877,179.52499546,111.01205003,91.12427090,177.90265472
1.49809869,87.17646899,-81.84310505,-81.02601612,3.67340801,-103.48989892
105.04815157,-4.33949853,-172.04148444,1.67943504,-9.77433363,1.09775254
1.61883238,0.31981087,1.68915909

>  <COMPND>
    UNNAMED

>  <MASTER>
        0    0    0    0    0    0    0    0  109    0  109    0

>  <Name>
FB1.pdb

>  <RI>
0

>  <Rbt.Current_Directory>
/home/fc/tossine/F10/p3/0_clust01

>  <Rbt.Executable>
rbdock/0.1.0

>  <Rbt.Library>
librxdock.so/0.1.0

>  <Rbt.Parameter_File>
/cluster/rxdock/data/scripts/dock.prm

>  <Rbt.Receptor>
rx_3.prm

>  <SCORE>
74.3389

>  <SCORE.INTER>
31.671

>  <SCORE.INTER.CONST>
1

>  <SCORE.INTER.POLAR>
-0.894427

>  <SCORE.INTER.REPUL>
0.84078

>  <SCORE.INTER.ROT>
32

>  <SCORE.INTER.VDW>
-6.8918

>  <SCORE.INTER.norm>
0.633421

>  <SCORE.INTRA>
34.6476

>  <SCORE.INTRA.DIHEDRAL>
51.2923

>  <SCORE.INTRA.DIHEDRAL.0>
47.3121

>  <SCORE.INTRA.POLAR>
1.22797

>  <SCORE.INTRA.POLAR.0>
-1.47808

>  <SCORE.INTRA.REPUL>
0

>  <SCORE.INTRA.REPUL.0>
0

>  <SCORE.INTRA.VDW>
4.82635

>  <SCORE.INTRA.VDW.0>
-2.78316

>  <SCORE.INTRA.norm>
0.692952

>  <SCORE.RESTR>
8.02029

>  <SCORE.RESTR.CAVITY>
8.02029

>  <SCORE.RESTR.norm>
0.160406

>  <SCORE.SYSTEM>
0

>  <SCORE.SYSTEM.CONST>
0

>  <SCORE.SYSTEM.DIHEDRAL>
0

>  <SCORE.SYSTEM.norm>
0

>  <SCORE.heavy>
50

>  <SCORE.norm>
1.48678

$$$$
