FB1.pdb
  RxDock  10062017203D
librxdock.so/0.1.0
 59 58  0  0  0  0  0  0  0  0999 V2000
  -14.4734   -9.6050    7.4708 C   0  0  0  0  0  0
  -13.3387  -10.2188    8.2876 C   0  0  0  0  0  0
  -12.8124   -9.2437    9.3536 C   0  0  0  0  0  0
  -12.4695   -7.8412    8.7921 C   0  0  0  0  0  0
  -11.8922   -6.8306    9.8437 C   0  0  0  0  0  0
  -10.3629   -7.0412    9.9306 C   0  0  0  0  0  0
  -12.2391   -5.3158    9.5230 C   0  0  0  0  0  0
  -11.4583   -4.1986   10.3646 C   0  0  0  0  0  0
  -11.6055   -2.6288   10.1590 C   0  0  0  0  0  0
  -10.6861   -1.7020   11.1675 C   0  0  0  0  0  0
   -9.3189   -1.4897   10.5194 C   0  0  0  0  0  0
  -11.3045   -0.2923   11.5858 C   0  0  0  0  0  0
  -10.4362    0.9429   12.1681 C   0  0  0  0  0  0
  -10.5745    2.4022   11.6136 C   0  0  0  0  0  0
  -11.0276    2.5955   10.0949 C   0  0  0  0  0  0
  -10.4372    1.7765    8.8803 C   0  0  0  0  0  0
  -11.3422    1.4583    7.6607 C   0  0  0  0  0  0
  -11.6397   -0.0657    7.3816 C   0  0  0  0  0  0
  -13.1163   -0.4540    7.2354 C   0  0  0  0  0  0
  -13.9873    0.3302    6.2134 C   0  0  0  0  0  0
  -14.8766   -0.4289    5.1846 C   0  0  0  0  0  0
  -14.1493   -1.3227    4.1899 C   0  0  0  0  0  0
  -15.9554   -1.1682    5.8672 N   0  0  0  0  0  0
  -14.9184    1.0870    7.0283 O   0  0  0  0  0  0
  -10.9508   -0.4379    6.1829 O   0  0  0  0  0  0
  -10.8041    1.0320   13.5549 O   0  0  0  0  0  0
  -11.8165   -4.4143   11.7566 O   0  0  0  0  0  0
  -13.1414   -4.4535   12.0537 C   0  0  0  0  0  0
  -14.0593   -4.3148   11.2678 O   0  0  0  0  0  0
  -13.2928   -4.8002   13.5091 C   0  0  0  0  0  0
  -12.1168   -5.6336   14.0429 C   0  0  0  0  0  0
  -11.5767   -6.6233   13.0026 C   0  0  0  0  0  0
  -10.3341   -7.3199   13.5066 C   0  0  0  0  0  0
   -9.2180   -7.1454   13.0297 O   0  0  0  0  0  0
  -10.5669   -8.1517   14.5328 O   0  0  0  0  0  0
  -11.0245   -4.6253   14.4253 C   0  0  0  0  0  0
  -10.7410   -3.6563   13.7376 O   0  0  0  0  0  0
  -10.3693   -4.9221   15.5561 O   0  0  0  0  0  0
  -12.1834   -5.0509    8.0647 O   0  0  0  0  0  0
  -13.1813   -4.2764    7.4969 C   0  0  0  0  0  0
  -13.4413   -3.1260    7.8247 O   0  0  0  0  0  0
  -13.9423   -5.0222    6.3928 C   0  0  0  0  0  0
  -14.2983   -4.1804    5.1282 C   0  0  0  0  0  0
  -13.4248   -4.3564    3.8726 C   0  0  0  0  0  0
  -13.8895   -5.4764    2.9872 C   0  0  0  0  0  0
  -13.4391   -6.6138    2.9796 O   0  0  0  0  0  0
  -14.8987   -5.1096    2.1826 O   0  0  0  0  0  0
  -15.7613   -4.2890    4.6810 C   0  0  0  0  0  0
  -16.4819   -3.3209    4.5388 O   0  0  0  0  0  0
  -16.1749   -5.5298    4.3486 O   0  0  0  0  0  0
  -16.2807   -0.6238    6.6649 H   0  0  0  0  0  0
  -15.5615   -2.0202    6.2729 H   0  0  0  0  0  0
  -14.5848    2.0083    6.9930 H   0  0  0  0  0  0
  -10.0136   -0.1876    6.2805 H   0  0  0  0  0  0
  -10.2493    1.7134   13.9700 H   0  0  0  0  0  0
   -9.8536   -8.7916   14.7204 H   0  0  0  0  0  0
  -10.7802   -5.6467   16.0900 H   0  0  0  0  0  0
  -15.3433   -5.9348    1.8950 H   0  0  0  0  0  0
  -17.1056   -5.5930    4.0387 H   0  0  0  0  0  0
  1  2  1  0  0  0
  2  3  1  0  0  0
  3  4  1  0  0  0
  4  5  1  0  0  0
  5  6  1  0  0  0
  5  7  1  0  0  0
  7  8  1  0  0  0
  7 39  1  0  0  0
  8  9  1  0  0  0
  8 27  1  0  0  0
  9 10  1  0  0  0
 10 11  1  0  0  0
 10 12  1  0  0  0
 12 13  1  0  0  0
 13 14  1  0  0  0
 13 26  1  0  0  0
 14 15  1  0  0  0
 15 16  1  0  0  0
 16 17  1  0  0  0
 17 18  1  0  0  0
 18 19  1  0  0  0
 18 25  1  0  0  0
 19 20  1  0  0  0
 20 21  1  0  0  0
 20 24  1  0  0  0
 21 22  1  0  0  0
 21 23  1  0  0  0
 23 51  1  0  0  0
 23 52  1  0  0  0
 24 53  1  0  0  0
 25 54  1  0  0  0
 26 55  1  0  0  0
 27 28  1  0  0  0
 28 29  2  0  0  0
 28 30  1  0  0  0
 30 31  1  0  0  0
 31 32  1  0  0  0
 31 36  1  0  0  0
 32 33  1  0  0  0
 33 34  2  0  0  0
 33 35  1  0  0  0
 35 56  1  0  0  0
 36 37  2  0  0  0
 36 38  1  0  0  0
 38 57  1  0  0  0
 39 40  1  0  0  0
 40 41  2  0  0  0
 40 42  1  0  0  0
 42 43  1  0  0  0
 43 44  1  0  0  0
 43 48  1  0  0  0
 44 45  1  0  0  0
 45 46  2  0  0  0
 45 47  1  0  0  0
 47 58  1  0  0  0
 48 49  2  0  0  0
 48 50  1  0  0  0
 50 59  1  0  0  0
M  END
>  <AUTHOR>
    GENERATED BY OPEN BABEL 2.4.1

>  <CHROM.1>
-50.57865088,-178.40352022,86.19086179,-168.20016145,177.12387381,137.27178514
179.81451218,-53.60161465,88.30791110,-160.52868404,131.55765718,-27.96488280
175.14626189,-45.44254017,148.15031738,-116.40590954,127.68546906,52.97905824
53.05584453,130.76427959,-62.14548887,105.05786235,36.24546849,-0.62238405
-27.58910690,-35.93305805,173.99883030,-42.06171587,-112.14070207,163.88224552
-11.19317901,58.85555128,-139.47028084,101.39480690,87.36086598,124.64963966
-97.09643469,-159.93754049,-178.39149399,-12.52081093,-3.62102178,9.01143766
2.79744529,-1.15026175,-0.24068509

>  <COMPND>
    UNNAMED

>  <MASTER>
        0    0    0    0    0    0    0    0  109    0  109    0

>  <Name>
FB1.pdb

>  <RI>
0

>  <Rbt.Current_Directory>
/home/fc/tossine/F10/p3/0_clust01

>  <Rbt.Executable>
rbdock/0.1.0

>  <Rbt.Library>
librxdock.so/0.1.0

>  <Rbt.Parameter_File>
/cluster/rxdock/data/scripts/dock.prm

>  <Rbt.Receptor>
rx_2.prm

>  <SCORE>
46.5471

>  <SCORE.INTER>
7.56603

>  <SCORE.INTER.CONST>
1

>  <SCORE.INTER.POLAR>
-3.38553

>  <SCORE.INTER.REPUL>
1.10952

>  <SCORE.INTER.ROT>
32

>  <SCORE.INTER.VDW>
-23.8707

>  <SCORE.INTER.norm>
0.151321

>  <SCORE.INTRA>
30.4484

>  <SCORE.INTRA.DIHEDRAL>
46.3176

>  <SCORE.INTRA.DIHEDRAL.0>
47.3121

>  <SCORE.INTRA.POLAR>
1.31413

>  <SCORE.INTRA.POLAR.0>
-1.47808

>  <SCORE.INTRA.REPUL>
0

>  <SCORE.INTRA.REPUL.0>
0

>  <SCORE.INTRA.VDW>
2.82152

>  <SCORE.INTRA.VDW.0>
-2.78316

>  <SCORE.INTRA.norm>
0.608967

>  <SCORE.RESTR>
8.5327

>  <SCORE.RESTR.CAVITY>
8.5327

>  <SCORE.RESTR.norm>
0.170654

>  <SCORE.SYSTEM>
0

>  <SCORE.SYSTEM.CONST>
0

>  <SCORE.SYSTEM.DIHEDRAL>
0

>  <SCORE.SYSTEM.norm>
0

>  <SCORE.heavy>
50

>  <SCORE.norm>
0.930942

$$$$
