FB1.pdb
  RxDock  10052005233D
librxdock.so/0.1.0
 59 58  0  0  0  0  0  0  0  0999 V2000
  -10.5253   -5.5490   14.0423 C   0  0  0  0  0  0
  -11.7562   -4.6726   13.8226 C   0  0  0  0  0  0
  -11.7240   -3.9794   12.4505 C   0  0  0  0  0  0
  -13.1248   -3.5656   11.9346 C   0  0  0  0  0  0
  -13.2348   -2.0823   11.4365 C   0  0  0  0  0  0
  -12.0268   -1.2929   11.9916 C   0  0  0  0  0  0
  -13.3226   -1.9493    9.8577 C   0  0  0  0  0  0
  -12.1365   -1.1564    9.1292 C   0  0  0  0  0  0
  -10.6069   -1.5906    9.1348 C   0  0  0  0  0  0
   -9.5945   -0.5752    9.9504 C   0  0  0  0  0  0
   -8.5503   -0.0417    8.9710 C   0  0  0  0  0  0
  -10.2856    0.6442   10.7121 C   0  0  0  0  0  0
   -9.5136    1.6268   11.7403 C   0  0  0  0  0  0
   -8.5321    2.7478   11.2542 C   0  0  0  0  0  0
   -8.9008    3.5536    9.9261 C   0  0  0  0  0  0
   -9.1616    5.1104    9.8747 C   0  0  0  0  0  0
   -7.9803    6.0745    9.5875 C   0  0  0  0  0  0
   -6.7605    6.0130   10.5862 C   0  0  0  0  0  0
   -5.3862    5.7367    9.9639 C   0  0  0  0  0  0
   -4.5542    4.5435   10.5139 C   0  0  0  0  0  0
   -3.0456    4.3987   10.1552 C   0  0  0  0  0  0
   -2.1158    5.4802   10.6875 C   0  0  0  0  0  0
   -2.5482    3.0553   10.5078 N   0  0  0  0  0  0
   -4.5834    4.7082   11.9547 O   0  0  0  0  0  0
   -6.7000    7.2600   11.2869 O   0  0  0  0  0  0
  -10.5581    2.3213   12.4425 O   0  0  0  0  0  0
  -12.4898   -1.1013    7.7205 O   0  0  0  0  0  0
  -11.4934   -0.8057    6.8457 C   0  0  0  0  0  0
  -10.3009   -0.8122    7.0848 O   0  0  0  0  0  0
  -12.1039   -0.5648    5.4927 C   0  0  0  0  0  0
  -12.8599   -1.7921    4.9591 C   0  0  0  0  0  0
  -12.8137   -2.9796    5.9293 C   0  0  0  0  0  0
  -13.6749   -4.1195    5.4371 C   0  0  0  0  0  0
  -14.0236   -5.0598    6.1427 O   0  0  0  0  0  0
  -14.0264   -4.0055    4.1478 O   0  0  0  0  0  0
  -14.3115   -1.3373    4.7544 C   0  0  0  0  0  0
  -14.8716   -1.3627    3.6691 O   0  0  0  0  0  0
  -14.9028   -0.8610    5.8588 O   0  0  0  0  0  0
  -13.5816   -3.2647    9.2232 O   0  0  0  0  0  0
  -12.5947   -4.2341    9.2893 C   0  0  0  0  0  0
  -11.3996   -4.0034    9.4193 O   0  0  0  0  0  0
  -13.1639   -5.6550    9.1816 C   0  0  0  0  0  0
  -12.1782   -6.8088    9.5443 C   0  0  0  0  0  0
  -11.5661   -6.8200   10.9569 C   0  0  0  0  0  0
  -10.0690   -6.9340   10.9466 C   0  0  0  0  0  0
   -9.2913   -6.1694   11.5010 O   0  0  0  0  0  0
   -9.6405   -8.0052   10.2616 O   0  0  0  0  0  0
  -12.7192   -8.2182    9.2739 C   0  0  0  0  0  0
  -12.4517   -9.1739    9.9752 O   0  0  0  0  0  0
  -13.6055   -8.3141    8.2608 O   0  0  0  0  0  0
   -3.2026    2.3552   10.1611 H   0  0  0  0  0  0
   -2.5702    2.9555   11.5252 H   0  0  0  0  0  0
   -5.5368    4.7560   12.1782 H   0  0  0  0  0  0
   -7.5429    7.3838   11.7610 H   0  0  0  0  0  0
  -10.1678    2.7330   13.2316 H   0  0  0  0  0  0
  -14.5712   -4.7366    3.7983 H   0  0  0  0  0  0
  -14.3360   -0.8832    6.6694 H   0  0  0  0  0  0
  -10.2128   -8.7559   10.5266 H   0  0  0  0  0  0
  -13.9866   -7.4614    7.9544 H   0  0  0  0  0  0
  1  2  1  0  0  0
  2  3  1  0  0  0
  3  4  1  0  0  0
  4  5  1  0  0  0
  5  6  1  0  0  0
  5  7  1  0  0  0
  7  8  1  0  0  0
  7 39  1  0  0  0
  8  9  1  0  0  0
  8 27  1  0  0  0
  9 10  1  0  0  0
 10 11  1  0  0  0
 10 12  1  0  0  0
 12 13  1  0  0  0
 13 14  1  0  0  0
 13 26  1  0  0  0
 14 15  1  0  0  0
 15 16  1  0  0  0
 16 17  1  0  0  0
 17 18  1  0  0  0
 18 19  1  0  0  0
 18 25  1  0  0  0
 19 20  1  0  0  0
 20 21  1  0  0  0
 20 24  1  0  0  0
 21 22  1  0  0  0
 21 23  1  0  0  0
 23 51  1  0  0  0
 23 52  1  0  0  0
 24 53  1  0  0  0
 25 54  1  0  0  0
 26 55  1  0  0  0
 27 28  1  0  0  0
 28 29  2  0  0  0
 28 30  1  0  0  0
 30 31  1  0  0  0
 31 32  1  0  0  0
 31 36  1  0  0  0
 32 33  1  0  0  0
 33 34  2  0  0  0
 33 35  1  0  0  0
 35 56  1  0  0  0
 36 37  2  0  0  0
 36 38  1  0  0  0
 38 57  1  0  0  0
 39 40  1  0  0  0
 40 41  2  0  0  0
 40 42  1  0  0  0
 42 43  1  0  0  0
 43 44  1  0  0  0
 43 48  1  0  0  0
 44 45  1  0  0  0
 45 46  2  0  0  0
 45 47  1  0  0  0
 47 58  1  0  0  0
 48 49  2  0  0  0
 48 50  1  0  0  0
 50 59  1  0  0  0
M  END
>  <AUTHOR>
    GENERATED BY OPEN BABEL 2.4.1

>  <CHROM.1>
156.72811759,130.50445310,-17.24415084,-117.68501435,62.18169133,-67.23502052
-113.07060567,-162.68554417,-119.68547799,170.75427961,75.64057168,37.88502731
164.41173931,118.28293305,91.15544847,-58.46334023,123.90216770,-125.41566744
59.26909887,-166.46539793,65.42430093,54.71408571,47.48939632,13.82381416
-60.40169563,-0.13389240,174.51638625,119.81139596,-164.67189147,179.00731245
-1.38274790,-25.33424838,-167.61950886,59.04060067,-128.05379013,-145.45329290
125.67812862,-44.11111712,-15.01315098,-10.53514205,-1.31366236,9.40084888
-2.48172915,-0.79775565,-0.54754190

>  <COMPND>
    UNNAMED

>  <MASTER>
        0    0    0    0    0    0    0    0  109    0  109    0

>  <Name>
FB1.pdb

>  <RI>
0

>  <Rbt.Current_Directory>
/home/fc/tossine/F10/p3/0_clust01

>  <Rbt.Executable>
rbdock/0.1.0

>  <Rbt.Library>
librxdock.so/0.1.0

>  <Rbt.Parameter_File>
dock.prm

>  <Rbt.Receptor>
rx_2.prm

>  <SCORE>
71.9355

>  <SCORE.INTER>
1.39115

>  <SCORE.INTER.CONST>
1

>  <SCORE.INTER.POLAR>
-3.18263

>  <SCORE.INTER.REPUL>
0.892096

>  <SCORE.INTER.ROT>
32

>  <SCORE.INTER.VDW>
-29.6484

>  <SCORE.INTER.norm>
0.027823

>  <SCORE.INTRA>
62.7548

>  <SCORE.INTRA.DIHEDRAL>
49.614

>  <SCORE.INTRA.DIHEDRAL.0>
47.3121

>  <SCORE.INTRA.POLAR>
0.478077

>  <SCORE.INTRA.POLAR.0>
-1.47808

>  <SCORE.INTRA.REPUL>
0

>  <SCORE.INTRA.REPUL.0>
0

>  <SCORE.INTRA.VDW>
36.3223

>  <SCORE.INTRA.VDW.0>
-2.78316

>  <SCORE.INTRA.norm>
1.2551

>  <SCORE.RESTR>
7.78961

>  <SCORE.RESTR.CAVITY>
7.78961

>  <SCORE.RESTR.norm>
0.155792

>  <SCORE.SYSTEM>
0

>  <SCORE.SYSTEM.CONST>
0

>  <SCORE.SYSTEM.DIHEDRAL>
0

>  <SCORE.SYSTEM.norm>
0

>  <SCORE.heavy>
50

>  <SCORE.norm>
1.43871

$$$$
