FB1.pdb
  RxDock  10062017553D
librxdock.so/0.1.0
 59 58  0  0  0  0  0  0  0  0999 V2000
    1.4675  -13.9077    4.1093 C   0  0  0  0  0  0
    1.8946  -13.0512    5.2990 C   0  0  0  0  0  0
    1.0146  -11.7987    5.4439 C   0  0  0  0  0  0
   -0.4224  -12.1068    5.9337 C   0  0  0  0  0  0
   -1.5327  -12.0092    4.8300 C   0  0  0  0  0  0
   -2.8807  -12.4313    5.4588 C   0  0  0  0  0  0
   -1.6413  -10.5720    4.1664 C   0  0  0  0  0  0
   -2.7802  -10.3685    3.0584 C   0  0  0  0  0  0
   -4.1360   -9.5669    3.2764 C   0  0  0  0  0  0
   -4.2083   -8.0982    2.5285 C   0  0  0  0  0  0
   -3.1029   -7.2097    3.0967 C   0  0  0  0  0  0
   -4.1157   -8.1148    0.9361 C   0  0  0  0  0  0
   -4.2612   -6.7995    0.0047 C   0  0  0  0  0  0
   -5.1764   -5.5893    0.3971 C   0  0  0  0  0  0
   -5.5248   -4.5082   -0.7250 C   0  0  0  0  0  0
   -6.8094   -4.5619   -1.6423 C   0  0  0  0  0  0
   -6.6713   -4.9901   -3.1272 C   0  0  0  0  0  0
   -6.3994   -3.8388   -4.1711 C   0  0  0  0  0  0
   -7.1654   -2.5282   -3.9520 C   0  0  0  0  0  0
   -6.7328   -1.2762   -4.7666 C   0  0  0  0  0  0
   -6.1930   -1.4254   -6.2198 C   0  0  0  0  0  0
   -7.1908   -1.8976   -7.2681 C   0  0  0  0  0  0
   -5.5131   -0.1913   -6.6571 N   0  0  0  0  0  0
   -7.9418   -0.4851   -4.8945 O   0  0  0  0  0  0
   -4.9966   -3.5532   -4.1583 O   0  0  0  0  0  0
   -2.9332   -6.2550   -0.0759 O   0  0  0  0  0  0
   -2.1420   -9.6979    1.9380 O   0  0  0  0  0  0
   -0.9254  -10.1632    1.5524 C   0  0  0  0  0  0
   -0.3792  -11.1715    1.9579 O   0  0  0  0  0  0
   -0.4013   -9.2754    0.4576 C   0  0  0  0  0  0
    0.1182  -10.0716   -0.7502 C   0  0  0  0  0  0
    0.8240  -11.3703   -0.3396 C   0  0  0  0  0  0
    2.0236  -11.0859    0.5342 C   0  0  0  0  0  0
    2.2159  -11.6252    1.6186 O   0  0  0  0  0  0
    2.8655  -10.1836    0.0089 O   0  0  0  0  0  0
   -1.1149  -10.3920   -1.6062 C   0  0  0  0  0  0
   -1.1625  -10.1880   -2.8098 O   0  0  0  0  0  0
   -2.1588  -10.8703   -0.9152 O   0  0  0  0  0  0
   -1.6751   -9.5070    5.1982 O   0  0  0  0  0  0
   -0.4742   -8.9675    5.6280 C   0  0  0  0  0  0
    0.5677   -8.9876    4.9859 O   0  0  0  0  0  0
   -0.5856   -8.3287    7.0187 C   0  0  0  0  0  0
   -2.0365   -8.1112    7.5499 C   0  0  0  0  0  0
   -2.9791   -9.3276    7.5981 C   0  0  0  0  0  0
   -2.5598  -10.3549    8.6096 C   0  0  0  0  0  0
   -2.0783  -11.4506    8.3563 O   0  0  0  0  0  0
   -2.7505   -9.9404    9.8714 O   0  0  0  0  0  0
   -2.1182   -7.4204    8.9168 C   0  0  0  0  0  0
   -1.1426   -7.2117    9.6105 O   0  0  0  0  0  0
   -3.3386   -6.9576    9.2600 O   0  0  0  0  0  0
   -5.1026   -0.3442   -7.5772 H   0  0  0  0  0  0
   -4.7170   -0.0202   -6.0386 H   0  0  0  0  0  0
   -8.1957   -0.2717   -3.9719 H   0  0  0  0  0  0
   -4.7388   -3.3354   -3.2437 H   0  0  0  0  0  0
   -2.6924   -5.9183    0.8034 H   0  0  0  0  0  0
    3.6126   -9.9272    0.5830 H   0  0  0  0  0  0
   -2.3099  -10.4290   -0.0428 H   0  0  0  0  0  0
   -2.5138  -10.6930   10.4535 H   0  0  0  0  0  0
   -4.0069   -6.9614    8.5392 H   0  0  0  0  0  0
  1  2  1  0  0  0
  2  3  1  0  0  0
  3  4  1  0  0  0
  4  5  1  0  0  0
  5  6  1  0  0  0
  5  7  1  0  0  0
  7  8  1  0  0  0
  7 39  1  0  0  0
  8  9  1  0  0  0
  8 27  1  0  0  0
  9 10  1  0  0  0
 10 11  1  0  0  0
 10 12  1  0  0  0
 12 13  1  0  0  0
 13 14  1  0  0  0
 13 26  1  0  0  0
 14 15  1  0  0  0
 15 16  1  0  0  0
 16 17  1  0  0  0
 17 18  1  0  0  0
 18 19  1  0  0  0
 18 25  1  0  0  0
 19 20  1  0  0  0
 20 21  1  0  0  0
 20 24  1  0  0  0
 21 22  1  0  0  0
 21 23  1  0  0  0
 23 51  1  0  0  0
 23 52  1  0  0  0
 24 53  1  0  0  0
 25 54  1  0  0  0
 26 55  1  0  0  0
 27 28  1  0  0  0
 28 29  2  0  0  0
 28 30  1  0  0  0
 30 31  1  0  0  0
 31 32  1  0  0  0
 31 36  1  0  0  0
 32 33  1  0  0  0
 33 34  2  0  0  0
 33 35  1  0  0  0
 35 56  1  0  0  0
 36 37  2  0  0  0
 36 38  1  0  0  0
 38 57  1  0  0  0
 39 40  1  0  0  0
 40 41  2  0  0  0
 40 42  1  0  0  0
 42 43  1  0  0  0
 43 44  1  0  0  0
 43 48  1  0  0  0
 44 45  1  0  0  0
 45 46  2  0  0  0
 45 47  1  0  0  0
 47 58  1  0  0  0
 48 49  2  0  0  0
 48 50  1  0  0  0
 50 59  1  0  0  0
M  END
>  <AUTHOR>
    GENERATED BY OPEN BABEL 2.4.1

>  <CHROM.1>
71.35660760,-105.43517856,176.42639555,-178.20405526,105.67556286,89.43439972
106.77646222,44.42397792,-61.68519798,175.91809330,-32.02686289,-165.71664949
-68.21963254,92.86997701,-105.23554735,-89.92303500,-39.91102282,167.97392457
-55.76618651,33.92789382,67.31153987,61.02359408,175.23654308,8.30684259
-131.60955449,-36.91855915,-60.66343617,130.62004714,128.30056915,175.33654517
40.19329681,22.79883207,-13.06859556,54.65923526,67.62722728,-8.95811076
-108.10159051,175.91206541,-10.73906139,-2.50470256,-8.16518172,1.89009679
-0.96423888,0.85109723,-1.42381070

>  <COMPND>
    UNNAMED

>  <MASTER>
        0    0    0    0    0    0    0    0  109    0  109    0

>  <Name>
FB1.pdb

>  <RI>
0

>  <Rbt.Current_Directory>
/home/fc/tossine/F10/p3/0_clust01

>  <Rbt.Executable>
rbdock/0.1.0

>  <Rbt.Library>
librxdock.so/0.1.0

>  <Rbt.Parameter_File>
/cluster/rxdock/data/scripts/dock.prm

>  <Rbt.Receptor>
rx_3.prm

>  <SCORE>
10.9814

>  <SCORE.INTER>
-15.1137

>  <SCORE.INTER.CONST>
1

>  <SCORE.INTER.POLAR>
-5.72794

>  <SCORE.INTER.REPUL>
0.389996

>  <SCORE.INTER.ROT>
32

>  <SCORE.INTER.VDW>
-34.9887

>  <SCORE.INTER.norm>
-0.302275

>  <SCORE.INTRA>
20.5385

>  <SCORE.INTRA.DIHEDRAL>
21.8769

>  <SCORE.INTRA.DIHEDRAL.0>
47.3121

>  <SCORE.INTRA.POLAR>
0.892926

>  <SCORE.INTRA.POLAR.0>
-1.47808

>  <SCORE.INTRA.REPUL>
0

>  <SCORE.INTRA.REPUL.0>
0

>  <SCORE.INTRA.VDW>
6.56405

>  <SCORE.INTRA.VDW.0>
-2.78316

>  <SCORE.INTRA.norm>
0.410769

>  <SCORE.RESTR>
5.55672

>  <SCORE.RESTR.CAVITY>
5.55672

>  <SCORE.RESTR.norm>
0.111134

>  <SCORE.SYSTEM>
0

>  <SCORE.SYSTEM.CONST>
0

>  <SCORE.SYSTEM.DIHEDRAL>
0

>  <SCORE.SYSTEM.norm>
0

>  <SCORE.heavy>
50

>  <SCORE.norm>
0.219629

$$$$
