FB1.pdb
  RxDock  10052016013D
librxdock.so/0.1.0
 59 58  0  0  0  0  0  0  0  0999 V2000
    2.3260   -3.5087   -2.0067 C   0  0  0  0  0  0
    1.6231   -2.7067   -3.0995 C   0  0  0  0  0  0
    2.5136   -1.5739   -3.6364 C   0  0  0  0  0  0
    3.8713   -2.0678   -4.1952 C   0  0  0  0  0  0
    4.7882   -0.9448   -4.7940 C   0  0  0  0  0  0
    5.3730   -0.1203   -3.6240 C   0  0  0  0  0  0
    5.9431   -1.5016   -5.7288 C   0  0  0  0  0  0
    5.6066   -1.6502   -7.2879 C   0  0  0  0  0  0
    5.0730   -2.9750   -7.9867 C   0  0  0  0  0  0
    6.0198   -3.5514   -9.2085 C   0  0  0  0  0  0
    7.4834   -3.3086   -8.8438 C   0  0  0  0  0  0
    5.8122   -5.0851   -9.5951 C   0  0  0  0  0  0
    4.3667   -5.8011   -9.7235 C   0  0  0  0  0  0
    4.1227   -7.0409  -10.6506 C   0  0  0  0  0  0
    2.6396   -7.6210  -10.7648 C   0  0  0  0  0  0
    1.3362   -6.7293  -10.7915 C   0  0  0  0  0  0
   -0.0222   -7.3478  -10.3679 C   0  0  0  0  0  0
   -0.1074   -7.9272   -8.9029 C   0  0  0  0  0  0
   -1.4749   -8.4652   -8.4635 C   0  0  0  0  0  0
   -1.5414   -9.3621   -7.1949 C   0  0  0  0  0  0
   -1.4693   -8.7295   -5.7737 C   0  0  0  0  0  0
   -2.6993   -7.9612   -5.3108 C   0  0  0  0  0  0
   -1.0668   -9.7340   -4.7710 N   0  0  0  0  0  0
   -2.8456   -9.9935   -7.2591 O   0  0  0  0  0  0
    0.8543   -8.9816   -8.7883 O   0  0  0  0  0  0
    4.0623   -6.2599   -8.3956 O   0  0  0  0  0  0
    4.5893   -0.6542   -7.5807 O   0  0  0  0  0  0
    4.3342   -0.3996   -8.8905 C   0  0  0  0  0  0
    5.0386   -0.7064   -9.8334 O   0  0  0  0  0  0
    2.9774    0.2402   -8.9955 C   0  0  0  0  0  0
    2.3723    0.1136  -10.4027 C   0  0  0  0  0  0
    2.5264   -1.2974  -10.9849 C   0  0  0  0  0  0
    2.2389   -2.3519   -9.9416 C   0  0  0  0  0  0
    2.0548   -2.1003   -8.7556 O   0  0  0  0  0  0
    2.2019   -3.5977  -10.4371 O   0  0  0  0  0  0
    0.8846    0.4613  -10.2551 C   0  0  0  0  0  0
    0.0738   -0.2865   -9.7297 O   0  0  0  0  0  0
    0.5350    1.6366  -10.7959 O   0  0  0  0  0  0
    7.2138   -0.7706   -5.5032 O   0  0  0  0  0  0
    8.3031   -1.0810   -6.3002 C   0  0  0  0  0  0
    8.3153   -1.0082   -7.5220 O   0  0  0  0  0  0
    9.5174   -1.5337   -5.4786 C   0  0  0  0  0  0
   10.4489   -0.3936   -4.9619 C   0  0  0  0  0  0
   11.9701   -0.6268   -5.0054 C   0  0  0  0  0  0
   12.6315   -0.4332   -3.6715 C   0  0  0  0  0  0
   13.0659   -1.3241   -2.9544 O   0  0  0  0  0  0
   12.7253    0.8605   -3.3281 O   0  0  0  0  0  0
   10.1832    0.9805   -5.5894 C   0  0  0  0  0  0
    9.9361    1.9708   -4.9300 O   0  0  0  0  0  0
   10.3467    1.0478   -6.9273 O   0  0  0  0  0  0
   -0.4784   -9.2879   -4.0687 H   0  0  0  0  0  0
   -0.4611  -10.4225   -5.2233 H   0  0  0  0  0  0
   -2.7540  -10.8047   -6.7160 H   0  0  0  0  0  0
    0.8808   -9.2692   -7.8571 H   0  0  0  0  0  0
    3.1382   -6.5605   -8.3857 H   0  0  0  0  0  0
    1.8793   -4.2822   -9.8199 H   0  0  0  0  0  0
    0.2156    2.3090  -10.1442 H   0  0  0  0  0  0
   12.8331    1.3656   -4.1614 H   0  0  0  0  0  0
   10.0031    1.8652   -7.3515 H   0  0  0  0  0  0
  1  2  1  0  0  0
  2  3  1  0  0  0
  3  4  1  0  0  0
  4  5  1  0  0  0
  5  6  1  0  0  0
  5  7  1  0  0  0
  7  8  1  0  0  0
  7 39  1  0  0  0
  8  9  1  0  0  0
  8 27  1  0  0  0
  9 10  1  0  0  0
 10 11  1  0  0  0
 10 12  1  0  0  0
 12 13  1  0  0  0
 13 14  1  0  0  0
 13 26  1  0  0  0
 14 15  1  0  0  0
 15 16  1  0  0  0
 16 17  1  0  0  0
 17 18  1  0  0  0
 18 19  1  0  0  0
 18 25  1  0  0  0
 19 20  1  0  0  0
 20 21  1  0  0  0
 20 24  1  0  0  0
 21 22  1  0  0  0
 21 23  1  0  0  0
 23 51  1  0  0  0
 23 52  1  0  0  0
 24 53  1  0  0  0
 25 54  1  0  0  0
 26 55  1  0  0  0
 27 28  1  0  0  0
 28 29  2  0  0  0
 28 30  1  0  0  0
 30 31  1  0  0  0
 31 32  1  0  0  0
 31 36  1  0  0  0
 32 33  1  0  0  0
 33 34  2  0  0  0
 33 35  1  0  0  0
 35 56  1  0  0  0
 36 37  2  0  0  0
 36 38  1  0  0  0
 38 57  1  0  0  0
 39 40  1  0  0  0
 40 41  2  0  0  0
 40 42  1  0  0  0
 42 43  1  0  0  0
 43 44  1  0  0  0
 43 48  1  0  0  0
 44 45  1  0  0  0
 45 46  2  0  0  0
 45 47  1  0  0  0
 47 58  1  0  0  0
 48 49  2  0  0  0
 48 50  1  0  0  0
 50 59  1  0  0  0
M  END
>  <AUTHOR>
    GENERATED BY OPEN BABEL 2.4.1

>  <CHROM.1>
57.28641255,178.13909676,73.54294737,90.11105939,-93.64719622,-176.14659206
-121.65048382,167.00314403,36.15312364,42.66136101,153.14747666,-176.68572946
170.33348972,37.80425173,-156.82976328,59.17083124,176.66841534,164.75684017
173.25940213,77.56579156,72.28614813,156.91818305,144.28673755,-16.00762941
-159.36568779,45.00811818,42.18703113,-73.25843783,-7.49172688,-170.64157633
-115.68197000,57.86886238,-86.56237357,-139.81604601,-125.15083658,124.08948339
106.84619542,-32.06922063,167.99459140,4.32592011,-3.06014411,-7.30754311
-2.85348179,-0.60156523,-0.70446652

>  <COMPND>
    UNNAMED

>  <MASTER>
        0    0    0    0    0    0    0    0  109    0  109    0

>  <Name>
FB1.pdb

>  <RI>
0

>  <Rbt.Current_Directory>
/home/fc/tossine/F10/p3/0_clust01

>  <Rbt.Executable>
rbdock/0.1.0

>  <Rbt.Library>
librxdock.so/0.1.0

>  <Rbt.Parameter_File>
dock.prm

>  <Rbt.Receptor>
rx_4.prm

>  <SCORE>
109.126

>  <SCORE.INTER>
53.6889

>  <SCORE.INTER.CONST>
1

>  <SCORE.INTER.POLAR>
-2.3916

>  <SCORE.INTER.REPUL>
1.35633

>  <SCORE.INTER.ROT>
32

>  <SCORE.INTER.VDW>
17.6386

>  <SCORE.INTER.norm>
1.07378

>  <SCORE.INTRA>
36.133

>  <SCORE.INTRA.DIHEDRAL>
51.36

>  <SCORE.INTRA.DIHEDRAL.0>
47.3121

>  <SCORE.INTRA.POLAR>
1.47808

>  <SCORE.INTRA.POLAR.0>
-1.47808

>  <SCORE.INTRA.REPUL>
0

>  <SCORE.INTRA.REPUL.0>
0

>  <SCORE.INTRA.VDW>
5.4275

>  <SCORE.INTRA.VDW.0>
-2.78316

>  <SCORE.INTRA.norm>
0.722659

>  <SCORE.RESTR>
19.3039

>  <SCORE.RESTR.CAVITY>
19.3039

>  <SCORE.RESTR.norm>
0.386077

>  <SCORE.SYSTEM>
0

>  <SCORE.SYSTEM.CONST>
0

>  <SCORE.SYSTEM.DIHEDRAL>
0

>  <SCORE.SYSTEM.norm>
0

>  <SCORE.heavy>
50

>  <SCORE.norm>
2.18251

$$$$
FB1.pdb
  RxDock  10052017083D
librxdock.so/0.1.0
 59 58  0  0  0  0  0  0  0  0999 V2000
    3.4509    3.4509   -3.8346 C   0  0  0  0  0  0
    3.2042    2.1016   -3.1640 C   0  0  0  0  0  0
    3.8671    0.9509   -3.9391 C   0  0  0  0  0  0
    3.7472    1.0926   -5.4770 C   0  0  0  0  0  0
    2.4876    0.4035   -6.1087 C   0  0  0  0  0  0
    2.1802    1.0957   -7.4567 C   0  0  0  0  0  0
    2.6519   -1.1631   -6.2998 C   0  0  0  0  0  0
    3.8116   -1.6558   -7.2890 C   0  0  0  0  0  0
    3.9671   -3.1347   -7.8521 C   0  0  0  0  0  0
    5.5116   -3.7135   -7.8808 C   0  0  0  0  0  0
    5.5775   -4.9635   -7.0049 C   0  0  0  0  0  0
    6.1142   -4.0377   -9.3218 C   0  0  0  0  0  0
    5.3050   -4.8098  -10.4913 C   0  0  0  0  0  0
    3.7468   -4.7221  -10.6335 C   0  0  0  0  0  0
    2.8440   -5.3581   -9.4804 C   0  0  0  0  0  0
    1.5978   -6.2926   -9.7411 C   0  0  0  0  0  0
    1.7146   -7.4562  -10.7609 C   0  0  0  0  0  0
    0.6547   -8.6175  -10.6307 C   0  0  0  0  0  0
   -0.4905   -8.6097  -11.6510 C   0  0  0  0  0  0
   -1.5933   -7.5219  -11.5133 C   0  0  0  0  0  0
   -1.3263   -6.0607  -11.9811 C   0  0  0  0  0  0
    0.0349   -5.7872  -12.6055 C   0  0  0  0  0  0
   -2.4135   -5.5820  -12.8559 N   0  0  0  0  0  0
   -2.6798   -7.9919  -12.3515 O   0  0  0  0  0  0
    1.3502   -9.8644  -10.7374 O   0  0  0  0  0  0
    5.8248   -4.2704  -11.7183 O   0  0  0  0  0  0
    3.7105   -0.8267   -8.4785 O   0  0  0  0  0  0
    3.0150   -1.3362   -9.5282 C   0  0  0  0  0  0
    2.5277   -2.4486   -9.5965 O   0  0  0  0  0  0
    2.8561   -0.2566  -10.5629 C   0  0  0  0  0  0
    1.3827    0.0412  -10.8839 C   0  0  0  0  0  0
    1.1667    1.4770  -11.3790 C   0  0  0  0  0  0
    1.9552    1.7431  -12.6403 C   0  0  0  0  0  0
    1.4503    1.8014  -13.7563 O   0  0  0  0  0  0
    3.2680    1.9125  -12.4241 O   0  0  0  0  0  0
    0.9789   -0.9577  -11.9771 C   0  0  0  0  0  0
    1.2571   -2.1464  -11.9301 O   0  0  0  0  0  0
    0.3358   -0.4094  -13.0171 O   0  0  0  0  0  0
    2.7067   -1.8593   -4.9913 O   0  0  0  0  0  0
    3.9404   -2.0261   -4.3846 C   0  0  0  0  0  0
    4.9841   -1.5226   -4.7790 O   0  0  0  0  0  0
    3.8636   -2.9237   -3.1425 C   0  0  0  0  0  0
    3.3026   -2.2485   -1.8525 C   0  0  0  0  0  0
    2.5020   -0.9428   -2.0092 C   0  0  0  0  0  0
    1.0731   -1.1751   -2.4078 C   0  0  0  0  0  0
    0.1574   -0.3741   -2.2795 O   0  0  0  0  0  0
    0.8839   -2.3841   -2.9581 O   0  0  0  0  0  0
    2.4803   -3.1787   -0.9521 C   0  0  0  0  0  0
    2.3228   -2.9780    0.2361 O   0  0  0  0  0  0
    1.8465   -4.1875   -1.5861 O   0  0  0  0  0  0
   -2.3560   -4.5677  -12.9357 H   0  0  0  0  0  0
   -3.3076   -5.7595  -12.3927 H   0  0  0  0  0  0
   -3.4747   -7.5350  -12.0040 H   0  0  0  0  0  0
    1.7356   -9.9222  -11.6311 H   0  0  0  0  0  0
    6.7860   -4.4136  -11.7264 H   0  0  0  0  0  0
    3.8220    1.9430  -13.2276 H   0  0  0  0  0  0
   -0.4195   -0.9474  -13.3620 H   0  0  0  0  0  0
   -0.0843   -2.4967   -3.0636 H   0  0  0  0  0  0
    1.6269   -4.0183   -2.5291 H   0  0  0  0  0  0
  1  2  1  0  0  0
  2  3  1  0  0  0
  3  4  1  0  0  0
  4  5  1  0  0  0
  5  6  1  0  0  0
  5  7  1  0  0  0
  7  8  1  0  0  0
  7 39  1  0  0  0
  8  9  1  0  0  0
  8 27  1  0  0  0
  9 10  1  0  0  0
 10 11  1  0  0  0
 10 12  1  0  0  0
 12 13  1  0  0  0
 13 14  1  0  0  0
 13 26  1  0  0  0
 14 15  1  0  0  0
 15 16  1  0  0  0
 16 17  1  0  0  0
 17 18  1  0  0  0
 18 19  1  0  0  0
 18 25  1  0  0  0
 19 20  1  0  0  0
 20 21  1  0  0  0
 20 24  1  0  0  0
 21 22  1  0  0  0
 21 23  1  0  0  0
 23 51  1  0  0  0
 23 52  1  0  0  0
 24 53  1  0  0  0
 25 54  1  0  0  0
 26 55  1  0  0  0
 27 28  1  0  0  0
 28 29  2  0  0  0
 28 30  1  0  0  0
 30 31  1  0  0  0
 31 32  1  0  0  0
 31 36  1  0  0  0
 32 33  1  0  0  0
 33 34  2  0  0  0
 33 35  1  0  0  0
 35 56  1  0  0  0
 36 37  2  0  0  0
 36 38  1  0  0  0
 38 57  1  0  0  0
 39 40  1  0  0  0
 40 41  2  0  0  0
 40 42  1  0  0  0
 42 43  1  0  0  0
 43 44  1  0  0  0
 43 48  1  0  0  0
 44 45  1  0  0  0
 45 46  2  0  0  0
 45 47  1  0  0  0
 47 58  1  0  0  0
 48 49  2  0  0  0
 48 50  1  0  0  0
 50 59  1  0  0  0
M  END
>  <AUTHOR>
    GENERATED BY OPEN BABEL 2.4.1

>  <CHROM.1>
-40.06003923,-91.20606445,156.49680351,-62.43160812,-166.98093191,-89.06520086
-138.23471634,-96.36993100,119.85912051,-43.90992911,29.92470825,-65.90090579
57.20363761,-133.34705314,46.43167729,160.06937646,102.90317358,-72.20811191
-64.17244598,77.48430188,1.81562331,158.06620597,164.42007087,-4.17908868
-121.52724156,153.27448383,60.03657694,45.47849617,104.66254936,170.60312480
-139.67497829,7.83109679,-77.84389501,17.97701782,80.95648369,156.55094527
160.75948989,171.93680769,-26.44489711,2.27190235,-2.61588714,-8.03984495
-0.52864549,-1.31501433,-1.00515233

>  <COMPND>
    UNNAMED

>  <MASTER>
        0    0    0    0    0    0    0    0  109    0  109    0

>  <Name>
FB1.pdb

>  <RI>
0

>  <Rbt.Current_Directory>
/home/fc/tossine/F10/p3/0_clust01

>  <Rbt.Executable>
rbdock/0.1.0

>  <Rbt.Library>
librxdock.so/0.1.0

>  <Rbt.Parameter_File>
dock.prm

>  <Rbt.Receptor>
rx_4.prm

>  <SCORE>
98.8176

>  <SCORE.INTER>
37.9363

>  <SCORE.INTER.CONST>
1

>  <SCORE.INTER.POLAR>
-2.08454

>  <SCORE.INTER.REPUL>
2.33404

>  <SCORE.INTER.ROT>
32

>  <SCORE.INTER.VDW>
-4.04645

>  <SCORE.INTER.norm>
0.758726

>  <SCORE.INTRA>
45.6572

>  <SCORE.INTRA.DIHEDRAL>
45.988

>  <SCORE.INTRA.DIHEDRAL.0>
47.3121

>  <SCORE.INTRA.POLAR>
1.12352

>  <SCORE.INTRA.POLAR.0>
-1.47808

>  <SCORE.INTRA.REPUL>
0

>  <SCORE.INTRA.REPUL.0>
0

>  <SCORE.INTRA.VDW>
18.8432

>  <SCORE.INTRA.VDW.0>
-2.78316

>  <SCORE.INTRA.norm>
0.913144

>  <SCORE.RESTR>
15.2241

>  <SCORE.RESTR.CAVITY>
15.2241

>  <SCORE.RESTR.norm>
0.304482

>  <SCORE.SYSTEM>
0

>  <SCORE.SYSTEM.CONST>
0

>  <SCORE.SYSTEM.DIHEDRAL>
0

>  <SCORE.SYSTEM.norm>
0

>  <SCORE.heavy>
50

>  <SCORE.norm>
1.97635

$$$$
FB1.pdb
  RxDock  10052019163D
librxdock.so/0.1.0
 59 58  0  0  0  0  0  0  0  0999 V2000
    3.4661    1.1403   -5.2054 C   0  0  0  0  0  0
    2.7255   -0.1217   -4.7693 C   0  0  0  0  0  0
    3.4774   -1.3962   -5.1872 C   0  0  0  0  0  0
    3.4835   -1.6358   -6.7176 C   0  0  0  0  0  0
    3.4706   -3.1432   -7.1512 C   0  0  0  0  0  0
    2.1208   -3.4370   -7.8459 C   0  0  0  0  0  0
    4.6888   -3.5438   -8.0858 C   0  0  0  0  0  0
    4.4882   -3.3484   -9.6631 C   0  0  0  0  0  0
    4.2018   -4.5185  -10.7009 C   0  0  0  0  0  0
    2.9689   -5.5337  -10.2878 C   0  0  0  0  0  0
    1.6762   -5.0036  -10.9058 C   0  0  0  0  0  0
    3.1598   -7.0679  -10.6808 C   0  0  0  0  0  0
    2.1415   -8.2490  -10.2486 C   0  0  0  0  0  0
    0.9265   -8.6789  -11.1403 C   0  0  0  0  0  0
   -0.5161   -8.7696  -10.4621 C   0  0  0  0  0  0
   -1.8467   -8.2420  -11.1297 C   0  0  0  0  0  0
   -2.4765   -6.9136  -10.6334 C   0  0  0  0  0  0
   -2.6745   -6.7655   -9.0752 C   0  0  0  0  0  0
   -4.1004   -6.4644   -8.5971 C   0  0  0  0  0  0
   -4.5045   -6.9023   -7.1607 C   0  0  0  0  0  0
   -3.9221   -8.2053   -6.5374 C   0  0  0  0  0  0
   -4.2917   -8.4868   -5.0878 C   0  0  0  0  0  0
   -4.2129   -9.3722   -7.3919 N   0  0  0  0  0  0
   -4.0317   -5.8321   -6.3034 O   0  0  0  0  0  0
   -2.2344   -7.9794   -8.4567 O   0  0  0  0  0  0
    2.9626   -9.4241  -10.1416 O   0  0  0  0  0  0
    3.3614   -2.4440   -9.8205 O   0  0  0  0  0  0
    3.3698   -1.6316  -10.9091 C   0  0  0  0  0  0
    3.4947   -1.9818  -12.0672 O   0  0  0  0  0  0
    3.0958   -0.2244  -10.4550 C   0  0  0  0  0  0
    1.5956    0.0554  -10.2723 C   0  0  0  0  0  0
    1.3259    1.4175   -9.6201 C   0  0  0  0  0  0
    2.0130    1.5251   -8.2786 C   0  0  0  0  0  0
    2.7237    0.6435   -7.8079 O   0  0  0  0  0  0
    1.7731    2.6835   -7.6467 O   0  0  0  0  0  0
    0.9848    0.0169  -11.6800 C   0  0  0  0  0  0
    0.1006   -0.7620  -12.0023 O   0  0  0  0  0  0
    1.5368    0.8779  -12.5460 O   0  0  0  0  0  0
    5.9534   -2.9335   -7.6081 O   0  0  0  0  0  0
    6.2398   -1.6315   -7.9833 C   0  0  0  0  0  0
    6.5414   -1.2841   -9.1176 O   0  0  0  0  0  0
    6.1378   -0.6496   -6.8087 C   0  0  0  0  0  0
    6.9285   -1.0464   -5.5235 C   0  0  0  0  0  0
    8.3950   -0.5919   -5.4072 C   0  0  0  0  0  0
    9.0458   -0.3637   -6.7410 C   0  0  0  0  0  0
    9.7026    0.6192   -7.0556 O   0  0  0  0  0  0
    8.8509   -1.3855   -7.5886 O   0  0  0  0  0  0
    6.2338   -0.6755   -4.2074 C   0  0  0  0  0  0
    6.0441   -1.4756   -3.3126 O   0  0  0  0  0  0
    5.9372    0.6325   -4.0573 O   0  0  0  0  0  0
   -5.0163   -9.8717   -7.0130 H   0  0  0  0  0  0
   -3.4349  -10.0317   -7.3201 H   0  0  0  0  0  0
   -4.2450   -5.0105   -6.7941 H   0  0  0  0  0  0
   -1.8458   -7.7561   -7.5909 H   0  0  0  0  0  0
    2.6542   -9.9378   -9.3764 H   0  0  0  0  0  0
    2.1407    2.7499   -6.7446 H   0  0  0  0  0  0
    2.5209    0.8096  -12.6213 H   0  0  0  0  0  0
    9.1514   -1.0805   -8.4706 H   0  0  0  0  0  0
    6.5259    1.2543   -4.5400 H   0  0  0  0  0  0
  1  2  1  0  0  0
  2  3  1  0  0  0
  3  4  1  0  0  0
  4  5  1  0  0  0
  5  6  1  0  0  0
  5  7  1  0  0  0
  7  8  1  0  0  0
  7 39  1  0  0  0
  8  9  1  0  0  0
  8 27  1  0  0  0
  9 10  1  0  0  0
 10 11  1  0  0  0
 10 12  1  0  0  0
 12 13  1  0  0  0
 13 14  1  0  0  0
 13 26  1  0  0  0
 14 15  1  0  0  0
 15 16  1  0  0  0
 16 17  1  0  0  0
 17 18  1  0  0  0
 18 19  1  0  0  0
 18 25  1  0  0  0
 19 20  1  0  0  0
 20 21  1  0  0  0
 20 24  1  0  0  0
 21 22  1  0  0  0
 21 23  1  0  0  0
 23 51  1  0  0  0
 23 52  1  0  0  0
 24 53  1  0  0  0
 25 54  1  0  0  0
 26 55  1  0  0  0
 27 28  1  0  0  0
 28 29  2  0  0  0
 28 30  1  0  0  0
 30 31  1  0  0  0
 31 32  1  0  0  0
 31 36  1  0  0  0
 32 33  1  0  0  0
 33 34  2  0  0  0
 33 35  1  0  0  0
 35 56  1  0  0  0
 36 37  2  0  0  0
 36 38  1  0  0  0
 38 57  1  0  0  0
 39 40  1  0  0  0
 40 41  2  0  0  0
 40 42  1  0  0  0
 42 43  1  0  0  0
 43 44  1  0  0  0
 43 48  1  0  0  0
 44 45  1  0  0  0
 45 46  2  0  0  0
 45 47  1  0  0  0
 47 58  1  0  0  0
 48 49  2  0  0  0
 48 50  1  0  0  0
 50 59  1  0  0  0
M  END
>  <AUTHOR>
    GENERATED BY OPEN BABEL 2.4.1

>  <CHROM.1>
-69.10619845,-147.26800030,113.07068653,-88.26492419,-103.58075798,-83.64718162
50.40177082,149.13434900,91.76722804,174.03979862,90.86442407,-129.14546057
141.20258814,137.33163693,-104.22557518,-49.95382081,-123.88835342,153.82393254
146.35127676,-34.06967224,175.24421604,41.10219641,-99.60515276,53.80448563
-82.51858436,171.78447158,-57.41910153,120.51500501,2.09026623,174.93735863
53.30299899,-70.42369551,51.14837878,88.51624319,-25.38192447,127.89201259
132.10051021,169.21158645,-27.71988262,2.44211029,-3.16533976,-8.34965510
0.75044412,0.06546867,0.31226301

>  <COMPND>
    UNNAMED

>  <MASTER>
        0    0    0    0    0    0    0    0  109    0  109    0

>  <Name>
FB1.pdb

>  <RI>
0

>  <Rbt.Current_Directory>
/home/fc/tossine/F10/p3/0_clust01

>  <Rbt.Executable>
rbdock/0.1.0

>  <Rbt.Library>
librxdock.so/0.1.0

>  <Rbt.Parameter_File>
dock.prm

>  <Rbt.Receptor>
rx_4.prm

>  <SCORE>
123.858

>  <SCORE.INTER>
41.5988

>  <SCORE.INTER.CONST>
1

>  <SCORE.INTER.POLAR>
-1.39441

>  <SCORE.INTER.REPUL>
1.586

>  <SCORE.INTER.ROT>
32

>  <SCORE.INTER.VDW>
1.00976

>  <SCORE.INTER.norm>
0.831976

>  <SCORE.INTRA>
62.2247

>  <SCORE.INTRA.DIHEDRAL>
92.2061

>  <SCORE.INTRA.DIHEDRAL.0>
47.3121

>  <SCORE.INTRA.POLAR>
1.47808

>  <SCORE.INTRA.POLAR.0>
-1.47808

>  <SCORE.INTRA.REPUL>
0

>  <SCORE.INTRA.REPUL.0>
0

>  <SCORE.INTRA.VDW>
11.0962

>  <SCORE.INTRA.VDW.0>
-2.78316

>  <SCORE.INTRA.norm>
1.24449

>  <SCORE.RESTR>
20.0344

>  <SCORE.RESTR.CAVITY>
20.0344

>  <SCORE.RESTR.norm>
0.400689

>  <SCORE.SYSTEM>
0

>  <SCORE.SYSTEM.CONST>
0

>  <SCORE.SYSTEM.DIHEDRAL>
0

>  <SCORE.SYSTEM.norm>
0

>  <SCORE.heavy>
50

>  <SCORE.norm>
2.47716

$$$$
FB1.pdb
  RxDock  10052020303D
librxdock.so/0.1.0
 59 58  0  0  0  0  0  0  0  0999 V2000
    1.8409    1.0681  -10.7272 C   0  0  0  0  0  0
    1.6945    0.3343  -12.0582 C   0  0  0  0  0  0
    1.7981   -1.1897  -11.8825 C   0  0  0  0  0  0
    3.2476   -1.6886  -11.6595 C   0  0  0  0  0  0
    3.3767   -3.2132  -11.3140 C   0  0  0  0  0  0
    4.6682   -3.7523  -11.9714 C   0  0  0  0  0  0
    3.3655   -3.5126   -9.7558 C   0  0  0  0  0  0
    2.1151   -4.3344   -9.1837 C   0  0  0  0  0  0
    1.9124   -5.9055   -9.3216 C   0  0  0  0  0  0
    2.1891   -6.5169  -10.8286 C   0  0  0  0  0  0
    2.6803   -7.9564  -10.6854 C   0  0  0  0  0  0
    0.9589   -6.4699  -11.8431 C   0  0  0  0  0  0
   -0.5132   -7.0547  -11.5123 C   0  0  0  0  0  0
   -1.2286   -6.8028  -10.1408 C   0  0  0  0  0  0
   -1.3425   -8.0182   -9.1117 C   0  0  0  0  0  0
   -2.6334   -8.3454   -8.2624 C   0  0  0  0  0  0
   -2.5790   -9.4645   -7.1890 C   0  0  0  0  0  0
   -2.6378   -9.0003   -5.6823 C   0  0  0  0  0  0
   -1.2892   -8.7669   -4.9901 C   0  0  0  0  0  0
   -0.0879   -9.6687   -5.3928 C   0  0  0  0  0  0
    1.3590   -9.3057   -4.9456 C   0  0  0  0  0  0
    1.9148  -10.0782   -3.7574 C   0  0  0  0  0  0
    2.2902   -9.3548   -6.0888 N   0  0  0  0  0  0
   -0.3638  -10.9487   -4.7687 O   0  0  0  0  0  0
   -3.3953   -7.7869   -5.6232 O   0  0  0  0  0  0
   -1.3758   -6.4643  -12.4993 O   0  0  0  0  0  0
    2.0914   -4.0930   -7.7507 O   0  0  0  0  0  0
    2.8599   -3.0747   -7.2839 C   0  0  0  0  0  0
    4.0755   -3.0461   -7.2539 O   0  0  0  0  0  0
    1.9574   -1.9349   -6.8995 C   0  0  0  0  0  0
    2.7157   -0.7867   -6.2146 C   0  0  0  0  0  0
    1.9462    0.5395   -6.2651 C   0  0  0  0  0  0
    2.7791    1.6290   -6.8997 C   0  0  0  0  0  0
    3.8731    1.9820   -6.4730 O   0  0  0  0  0  0
    2.2070    2.1769   -7.9821 O   0  0  0  0  0  0
    2.9148   -1.2232   -4.7565 C   0  0  0  0  0  0
    3.6085   -0.6044   -3.9639 O   0  0  0  0  0  0
    2.3027   -2.3710   -4.4344 O   0  0  0  0  0  0
    4.6578   -4.0894   -9.3121 O   0  0  0  0  0  0
    5.7705   -3.2655   -9.2785 C   0  0  0  0  0  0
    6.9250   -3.6583   -9.1722 O   0  0  0  0  0  0
    5.4010   -1.7805   -9.3911 C   0  0  0  0  0  0
    6.1414   -0.8218   -8.4077 C   0  0  0  0  0  0
    5.4020   -0.3838   -7.1303 C   0  0  0  0  0  0
    6.2715    0.3975   -6.1879 C   0  0  0  0  0  0
    6.7342   -0.0172   -5.1341 O   0  0  0  0  0  0
    6.5229    1.6387   -6.6313 O   0  0  0  0  0  0
    7.5365   -1.2970   -7.9831 C   0  0  0  0  0  0
    7.7911   -1.6736   -6.8561 O   0  0  0  0  0  0
    8.4491   -1.3735   -8.9744 O   0  0  0  0  0  0
    3.2430   -9.2311   -5.7490 H   0  0  0  0  0  0
    2.1165   -8.5437   -6.6867 H   0  0  0  0  0  0
    0.2666  -11.5698   -5.1908 H   0  0  0  0  0  0
   -2.9231   -7.1080   -6.1396 H   0  0  0  0  0  0
   -1.4911   -5.5257  -12.2751 H   0  0  0  0  0  0
    1.2600    1.9715   -8.1018 H   0  0  0  0  0  0
    1.9562   -2.8820   -5.2075 H   0  0  0  0  0  0
    5.7099    1.9451   -7.0857 H   0  0  0  0  0  0
    9.1444   -2.0576   -8.8528 H   0  0  0  0  0  0
  1  2  1  0  0  0
  2  3  1  0  0  0
  3  4  1  0  0  0
  4  5  1  0  0  0
  5  6  1  0  0  0
  5  7  1  0  0  0
  7  8  1  0  0  0
  7 39  1  0  0  0
  8  9  1  0  0  0
  8 27  1  0  0  0
  9 10  1  0  0  0
 10 11  1  0  0  0
 10 12  1  0  0  0
 12 13  1  0  0  0
 13 14  1  0  0  0
 13 26  1  0  0  0
 14 15  1  0  0  0
 15 16  1  0  0  0
 16 17  1  0  0  0
 17 18  1  0  0  0
 18 19  1  0  0  0
 18 25  1  0  0  0
 19 20  1  0  0  0
 20 21  1  0  0  0
 20 24  1  0  0  0
 21 22  1  0  0  0
 21 23  1  0  0  0
 23 51  1  0  0  0
 23 52  1  0  0  0
 24 53  1  0  0  0
 25 54  1  0  0  0
 26 55  1  0  0  0
 27 28  1  0  0  0
 28 29  2  0  0  0
 28 30  1  0  0  0
 30 31  1  0  0  0
 31 32  1  0  0  0
 31 36  1  0  0  0
 32 33  1  0  0  0
 33 34  2  0  0  0
 33 35  1  0  0  0
 35 56  1  0  0  0
 36 37  2  0  0  0
 36 38  1  0  0  0
 38 57  1  0  0  0
 39 40  1  0  0  0
 40 41  2  0  0  0
 40 42  1  0  0  0
 42 43  1  0  0  0
 43 44  1  0  0  0
 43 48  1  0  0  0
 44 45  1  0  0  0
 45 46  2  0  0  0
 45 47  1  0  0  0
 47 58  1  0  0  0
 48 49  2  0  0  0
 48 50  1  0  0  0
 50 59  1  0  0  0
M  END
>  <AUTHOR>
    GENERATED BY OPEN BABEL 2.4.1

>  <CHROM.1>
-75.86596361,173.35109575,144.43356384,113.98487934,77.44115388,71.08200835
-46.37786047,13.89266206,150.47048946,-52.48185928,44.26087769,-107.01812517
-72.69181843,-138.30266542,-173.81072428,109.72287621,-92.51471946,-33.70023464
-62.64221879,167.76499614,101.06825573,166.85301673,-172.84184837,-69.07114203
173.73985325,159.84972956,-124.26875682,171.93985463,-58.18534221,14.04983980
11.65650138,-166.00025935,135.76811241,-99.12812709,173.00618235,-110.52076205
-106.21585828,35.76971570,-150.38229755,2.59126929,-3.82202759,-8.00859419
0.26076521,-0.95231059,-1.31374206

>  <COMPND>
    UNNAMED

>  <MASTER>
        0    0    0    0    0    0    0    0  109    0  109    0

>  <Name>
FB1.pdb

>  <RI>
0

>  <Rbt.Current_Directory>
/home/fc/tossine/F10/p3/0_clust01

>  <Rbt.Executable>
rbdock/0.1.0

>  <Rbt.Library>
librxdock.so/0.1.0

>  <Rbt.Parameter_File>
dock.prm

>  <Rbt.Receptor>
rx_4.prm

>  <SCORE>
96.8436

>  <SCORE.INTER>
28.9536

>  <SCORE.INTER.CONST>
1

>  <SCORE.INTER.POLAR>
-2.82656

>  <SCORE.INTER.REPUL>
0.791127

>  <SCORE.INTER.ROT>
32

>  <SCORE.INTER.VDW>
-2.7917

>  <SCORE.INTER.norm>
0.579073

>  <SCORE.INTRA>
60.1198

>  <SCORE.INTRA.DIHEDRAL>
65.1295

>  <SCORE.INTRA.DIHEDRAL.0>
47.3121

>  <SCORE.INTRA.POLAR>
1.15083

>  <SCORE.INTRA.POLAR.0>
-1.47808

>  <SCORE.INTRA.REPUL>
0

>  <SCORE.INTRA.REPUL.0>
0

>  <SCORE.INTRA.VDW>
23.6423

>  <SCORE.INTRA.VDW.0>
-2.78316

>  <SCORE.INTRA.norm>
1.2024

>  <SCORE.RESTR>
7.77017

>  <SCORE.RESTR.CAVITY>
7.77017

>  <SCORE.RESTR.norm>
0.155403

>  <SCORE.SYSTEM>
0

>  <SCORE.SYSTEM.CONST>
0

>  <SCORE.SYSTEM.DIHEDRAL>
0

>  <SCORE.SYSTEM.norm>
0

>  <SCORE.heavy>
50

>  <SCORE.norm>
1.93687

$$$$
FB1.pdb
  RxDock  10052021573D
librxdock.so/0.1.0
 59 58  0  0  0  0  0  0  0  0999 V2000
    8.3287   -0.3866   -6.7521 C   0  0  0  0  0  0
    6.9913   -0.0018   -6.1239 C   0  0  0  0  0  0
    5.8388   -0.8636   -6.6657 C   0  0  0  0  0  0
    4.6996   -0.0361   -7.3115 C   0  0  0  0  0  0
    3.3563   -0.0150   -6.5018 C   0  0  0  0  0  0
    2.2344    0.4946   -7.4357 C   0  0  0  0  0  0
    2.9750   -1.4203   -5.8711 C   0  0  0  0  0  0
    3.7842   -2.6972   -6.4012 C   0  0  0  0  0  0
    3.8622   -4.1027   -5.6618 C   0  0  0  0  0  0
    4.9714   -5.1567   -6.2782 C   0  0  0  0  0  0
    6.3441   -4.8053   -5.7070 C   0  0  0  0  0  0
    4.6750   -6.7064   -6.0431 C   0  0  0  0  0  0
    4.4182   -7.3712   -4.5903 C   0  0  0  0  0  0
    4.1715   -8.9073   -4.4010 C   0  0  0  0  0  0
    2.6802   -9.4066   -4.1254 C   0  0  0  0  0  0
    1.4799   -9.2205   -5.1349 C   0  0  0  0  0  0
    0.0446   -9.6152   -4.6973 C   0  0  0  0  0  0
   -0.1627  -11.1041   -4.2184 C   0  0  0  0  0  0
   -0.1465  -11.3387   -2.7028 C   0  0  0  0  0  0
    1.1368  -10.9578   -1.9113 C   0  0  0  0  0  0
    1.0554  -10.5956   -0.3988 C   0  0  0  0  0  0
    2.3770  -10.3151    0.3027 C   0  0  0  0  0  0
    0.0949   -9.4990   -0.1720 N   0  0  0  0  0  0
    1.9698  -12.1438   -1.9690 O   0  0  0  0  0  0
   -1.4154  -11.5644   -4.7365 O   0  0  0  0  0  0
    5.6097   -7.0870   -3.8379 O   0  0  0  0  0  0
    3.2374   -3.0096   -7.7111 O   0  0  0  0  0  0
    4.1236   -3.3351   -8.6878 C   0  0  0  0  0  0
    4.8814   -2.5715   -9.2553 O   0  0  0  0  0  0
    4.0875   -4.8254   -8.8858 C   0  0  0  0  0  0
    4.0143   -5.2223  -10.3689 C   0  0  0  0  0  0
    2.6750   -4.8437  -11.0142 C   0  0  0  0  0  0
    1.5134   -5.4124  -10.2328 C   0  0  0  0  0  0
    0.8718   -4.7709   -9.4079 O   0  0  0  0  0  0
    1.2462   -6.6930  -10.5288 O   0  0  0  0  0  0
    5.1616   -4.4750  -11.0627 C   0  0  0  0  0  0
    5.0648   -3.9962  -12.1825 O   0  0  0  0  0  0
    6.3003   -4.4324  -10.3574 O   0  0  0  0  0  0
    2.9530   -1.3540   -4.3895 O   0  0  0  0  0  0
    3.9589   -0.6524   -3.7461 C   0  0  0  0  0  0
    5.1505   -0.7430   -4.0115 O   0  0  0  0  0  0
    3.4164    0.2687   -2.6455 C   0  0  0  0  0  0
    3.7786    1.7797   -2.7872 C   0  0  0  0  0  0
    3.2461    2.5390   -4.0161 C   0  0  0  0  0  0
    3.6770    3.9770   -4.0493 C   0  0  0  0  0  0
    4.3738    4.5326   -3.2112 O   0  0  0  0  0  0
    3.2266    4.6228   -5.1357 O   0  0  0  0  0  0
    3.4551    2.6314   -1.5534 C   0  0  0  0  0  0
    4.2375    2.7907   -0.6374 O   0  0  0  0  0  0
    2.2765    3.2876   -1.5952 O   0  0  0  0  0  0
   -0.0994   -9.4261    0.8257 H   0  0  0  0  0  0
   -0.7993   -9.7550   -0.5966 H   0  0  0  0  0  0
    2.8874  -11.7995   -1.9978 H   0  0  0  0  0  0
   -1.4731  -12.5256   -4.5837 H   0  0  0  0  0  0
    6.3452   -7.5760   -4.2435 H   0  0  0  0  0  0
    1.9976   -7.2032  -10.8874 H   0  0  0  0  0  0
    7.1217   -4.3902  -10.9071 H   0  0  0  0  0  0
    3.9602    4.6246   -5.7862 H   0  0  0  0  0  0
    1.6386    2.9621   -2.2685 H   0  0  0  0  0  0
  1  2  1  0  0  0
  2  3  1  0  0  0
  3  4  1  0  0  0
  4  5  1  0  0  0
  5  6  1  0  0  0
  5  7  1  0  0  0
  7  8  1  0  0  0
  7 39  1  0  0  0
  8  9  1  0  0  0
  8 27  1  0  0  0
  9 10  1  0  0  0
 10 11  1  0  0  0
 10 12  1  0  0  0
 12 13  1  0  0  0
 13 14  1  0  0  0
 13 26  1  0  0  0
 14 15  1  0  0  0
 15 16  1  0  0  0
 16 17  1  0  0  0
 17 18  1  0  0  0
 18 19  1  0  0  0
 18 25  1  0  0  0
 19 20  1  0  0  0
 20 21  1  0  0  0
 20 24  1  0  0  0
 21 22  1  0  0  0
 21 23  1  0  0  0
 23 51  1  0  0  0
 23 52  1  0  0  0
 24 53  1  0  0  0
 25 54  1  0  0  0
 26 55  1  0  0  0
 27 28  1  0  0  0
 28 29  2  0  0  0
 28 30  1  0  0  0
 30 31  1  0  0  0
 31 32  1  0  0  0
 31 36  1  0  0  0
 32 33  1  0  0  0
 33 34  2  0  0  0
 33 35  1  0  0  0
 35 56  1  0  0  0
 36 37  2  0  0  0
 36 38  1  0  0  0
 38 57  1  0  0  0
 39 40  1  0  0  0
 40 41  2  0  0  0
 40 42  1  0  0  0
 42 43  1  0  0  0
 43 44  1  0  0  0
 43 48  1  0  0  0
 44 45  1  0  0  0
 45 46  2  0  0  0
 45 47  1  0  0  0
 47 58  1  0  0  0
 48 49  2  0  0  0
 48 50  1  0  0  0
 50 59  1  0  0  0
M  END
>  <AUTHOR>
    GENERATED BY OPEN BABEL 2.4.1

>  <CHROM.1>
-122.65345971,-109.99264117,-164.38472490,-13.50406242,162.45116199,-41.92078785
-169.63328174,137.58209160,81.96553201,-54.93704384,-178.17779840,-103.81395570
-66.41765100,62.15423366,-173.70109464,-56.83957312,97.86881280,-59.96608713
169.80478249,154.18231152,176.61558767,146.37693206,167.14097640,-72.37808486
133.51224530,-68.26779688,-54.22376137,-142.25063214,97.64909634,24.52407318
150.50349229,-45.71719511,-122.84173502,63.22761832,-179.19883794,88.65152721
-0.16392556,-97.88653349,16.92412628,3.36202213,-3.90554242,-5.52740852,-0.67202012
-1.26850343,-2.35575318

>  <COMPND>
    UNNAMED

>  <MASTER>
        0    0    0    0    0    0    0    0  109    0  109    0

>  <Name>
FB1.pdb

>  <RI>
0

>  <Rbt.Current_Directory>
/home/fc/tossine/F10/p3/0_clust01

>  <Rbt.Executable>
rbdock/0.1.0

>  <Rbt.Library>
librxdock.so/0.1.0

>  <Rbt.Parameter_File>
dock.prm

>  <Rbt.Receptor>
rx_4.prm

>  <SCORE>
97.1645

>  <SCORE.INTER>
23.345

>  <SCORE.INTER.CONST>
1

>  <SCORE.INTER.POLAR>
-2.35262

>  <SCORE.INTER.REPUL>
0.740925

>  <SCORE.INTER.ROT>
32

>  <SCORE.INTER.VDW>
-9.76069

>  <SCORE.INTER.norm>
0.4669

>  <SCORE.INTRA>
47.0404

>  <SCORE.INTRA.DIHEDRAL>
77.7772

>  <SCORE.INTRA.DIHEDRAL.0>
47.3121

>  <SCORE.INTRA.POLAR>
1.47808

>  <SCORE.INTRA.POLAR.0>
-1.47808

>  <SCORE.INTRA.REPUL>
0

>  <SCORE.INTRA.REPUL.0>
0

>  <SCORE.INTRA.VDW>
3.12637

>  <SCORE.INTRA.VDW.0>
-2.78316

>  <SCORE.INTRA.norm>
0.940809

>  <SCORE.RESTR>
26.779

>  <SCORE.RESTR.CAVITY>
26.779

>  <SCORE.RESTR.norm>
0.535581

>  <SCORE.SYSTEM>
0

>  <SCORE.SYSTEM.CONST>
0

>  <SCORE.SYSTEM.DIHEDRAL>
0

>  <SCORE.SYSTEM.norm>
0

>  <SCORE.heavy>
50

>  <SCORE.norm>
1.94329

$$$$
FB1.pdb
  RxDock  10052023003D
librxdock.so/0.1.0
 59 58  0  0  0  0  0  0  0  0999 V2000
    8.7865   -5.3442   -7.9198 C   0  0  0  0  0  0
    7.4001   -5.6156   -8.4991 C   0  0  0  0  0  0
    6.3664   -4.5894   -8.0066 C   0  0  0  0  0  0
    4.9782   -4.7404   -8.6774 C   0  0  0  0  0  0
    4.6624   -3.6808   -9.7901 C   0  0  0  0  0  0
    5.1005   -4.2634  -11.1536 C   0  0  0  0  0  0
    3.1399   -3.2352   -9.8262 C   0  0  0  0  0  0
    2.1652   -4.0596  -10.7939 C   0  0  0  0  0  0
    1.1203   -5.1598  -10.3188 C   0  0  0  0  0  0
   -0.0539   -5.5298  -11.4169 C   0  0  0  0  0  0
    0.6144   -5.8433  -12.7545 C   0  0  0  0  0  0
   -1.0387   -6.7201  -11.0191 C   0  0  0  0  0  0
   -2.6528   -6.6203  -11.0770 C   0  0  0  0  0  0
   -3.5814   -7.8491  -10.7873 C   0  0  0  0  0  0
   -3.5232   -8.5175   -9.3385 C   0  0  0  0  0  0
   -2.6573   -7.9646   -8.1389 C   0  0  0  0  0  0
   -3.3633   -7.2864   -6.9352 C   0  0  0  0  0  0
   -4.8600   -6.8387   -7.1559 C   0  0  0  0  0  0
   -5.8072   -7.0233   -5.9637 C   0  0  0  0  0  0
   -6.5787   -5.7806   -5.4357 C   0  0  0  0  0  0
   -5.8315   -4.6565   -4.6589 C   0  0  0  0  0  0
   -4.3359   -4.8532   -4.4544 C   0  0  0  0  0  0
   -6.1137   -3.3338   -5.2481 N   0  0  0  0  0  0
   -7.0945   -5.1345   -6.6274 O   0  0  0  0  0  0
   -4.8575   -5.4554   -7.5248 O   0  0  0  0  0  0
   -2.9988   -5.6451  -10.0791 O   0  0  0  0  0  0
    1.3572   -3.0740  -11.4926 O   0  0  0  0  0  0
    1.9122   -1.8501  -11.6910 C   0  0  0  0  0  0
    3.0393   -1.5126  -11.3822 O   0  0  0  0  0  0
    0.9326   -1.0011  -12.4532 C   0  0  0  0  0  0
    1.5214    0.3593  -12.8595 C   0  0  0  0  0  0
    0.6930    1.0588  -13.9448 C   0  0  0  0  0  0
    1.4204    1.0606  -15.2693 C   0  0  0  0  0  0
    1.9550    0.0676  -15.7509 O   0  0  0  0  0  0
    1.4254    2.2575  -15.8745 O   0  0  0  0  0  0
    1.5387    1.2099  -11.5819 C   0  0  0  0  0  0
    0.6313    1.9671  -11.2725 O   0  0  0  0  0  0
    2.6576    1.0918  -10.8540 O   0  0  0  0  0  0
    2.5857   -3.1111   -8.4561 O   0  0  0  0  0  0
    2.4576   -1.8452   -7.9091 C   0  0  0  0  0  0
    2.1254   -0.8467   -8.5345 O   0  0  0  0  0  0
    2.7804   -1.8219   -6.4092 C   0  0  0  0  0  0
    3.8662   -0.7928   -5.9659 C   0  0  0  0  0  0
    4.4094    0.1860   -7.0229 C   0  0  0  0  0  0
    5.2303   -0.4909   -8.0823 C   0  0  0  0  0  0
    5.8653   -1.5268   -7.9397 O   0  0  0  0  0  0
    5.1896    0.1581   -9.2559 O   0  0  0  0  0  0
    3.4926    0.0360   -4.7307 C   0  0  0  0  0  0
    4.1199    1.0153   -4.3782 O   0  0  0  0  0  0
    2.3500   -0.3287   -4.1121 O   0  0  0  0  0  0
   -6.4759   -2.7156   -4.5233 H   0  0  0  0  0  0
   -6.8799   -3.4314   -5.9181 H   0  0  0  0  0  0
   -6.3962   -5.2685   -7.3025 H   0  0  0  0  0  0
   -4.2079   -4.9923   -6.9643 H   0  0  0  0  0  0
   -2.2808   -4.9915  -10.0357 H   0  0  0  0  0  0
    2.2384    2.7838  -15.7500 H   0  0  0  0  0  0
    2.9601    1.9318  -10.4277 H   0  0  0  0  0  0
    5.2016   -0.5272   -9.9570 H   0  0  0  0  0  0
    1.9595    0.3498   -3.5177 H   0  0  0  0  0  0
  1  2  1  0  0  0
  2  3  1  0  0  0
  3  4  1  0  0  0
  4  5  1  0  0  0
  5  6  1  0  0  0
  5  7  1  0  0  0
  7  8  1  0  0  0
  7 39  1  0  0  0
  8  9  1  0  0  0
  8 27  1  0  0  0
  9 10  1  0  0  0
 10 11  1  0  0  0
 10 12  1  0  0  0
 12 13  1  0  0  0
 13 14  1  0  0  0
 13 26  1  0  0  0
 14 15  1  0  0  0
 15 16  1  0  0  0
 16 17  1  0  0  0
 17 18  1  0  0  0
 18 19  1  0  0  0
 18 25  1  0  0  0
 19 20  1  0  0  0
 20 21  1  0  0  0
 20 24  1  0  0  0
 21 22  1  0  0  0
 21 23  1  0  0  0
 23 51  1  0  0  0
 23 52  1  0  0  0
 24 53  1  0  0  0
 25 54  1  0  0  0
 26 55  1  0  0  0
 27 28  1  0  0  0
 28 29  2  0  0  0
 28 30  1  0  0  0
 30 31  1  0  0  0
 31 32  1  0  0  0
 31 36  1  0  0  0
 32 33  1  0  0  0
 33 34  2  0  0  0
 33 35  1  0  0  0
 35 56  1  0  0  0
 36 37  2  0  0  0
 36 38  1  0  0  0
 38 57  1  0  0  0
 39 40  1  0  0  0
 40 41  2  0  0  0
 40 42  1  0  0  0
 42 43  1  0  0  0
 43 44  1  0  0  0
 43 48  1  0  0  0
 44 45  1  0  0  0
 45 46  2  0  0  0
 45 47  1  0  0  0
 47 58  1  0  0  0
 48 49  2  0  0  0
 48 50  1  0  0  0
 50 59  1  0  0  0
M  END
>  <AUTHOR>
    GENERATED BY OPEN BABEL 2.4.1

>  <CHROM.1>
174.26879142,-103.26671437,92.14775851,-91.58434435,103.38032925,101.58020280
162.55554581,28.60690857,50.88467220,129.49984582,174.98993541,61.99682674
32.32686971,4.18289352,108.40497352,-16.20863057,142.16730109,123.86615874
-41.77594758,-71.83848177,-0.13543379,-35.71863912,124.92075800,2.78996162
-173.97359698,164.19632370,-108.88209181,-93.34310616,47.35866908,98.29500963
142.94402809,37.60951027,125.64991580,5.80933948,-68.26380527,-168.14809791
-27.53337124,-144.06335378,-161.29123993,0.83343656,-3.02671856,-9.21165178
-0.44208765,0.42325601,1.91086676

>  <COMPND>
    UNNAMED

>  <MASTER>
        0    0    0    0    0    0    0    0  109    0  109    0

>  <Name>
FB1.pdb

>  <RI>
0

>  <Rbt.Current_Directory>
/home/fc/tossine/F10/p3/0_clust01

>  <Rbt.Executable>
rbdock/0.1.0

>  <Rbt.Library>
librxdock.so/0.1.0

>  <Rbt.Parameter_File>
dock.prm

>  <Rbt.Receptor>
rx_4.prm

>  <SCORE>
189.596

>  <SCORE.INTER>
100.24

>  <SCORE.INTER.CONST>
1

>  <SCORE.INTER.POLAR>
-1.85466

>  <SCORE.INTER.REPUL>
3.0718

>  <SCORE.INTER.ROT>
32

>  <SCORE.INTER.VDW>
53.7866

>  <SCORE.INTER.norm>
2.0048

>  <SCORE.INTRA>
64.8579

>  <SCORE.INTRA.DIHEDRAL>
100.745

>  <SCORE.INTRA.DIHEDRAL.0>
47.3121

>  <SCORE.INTRA.POLAR>
0.705568

>  <SCORE.INTRA.POLAR.0>
-1.47808

>  <SCORE.INTRA.REPUL>
0.0730676

>  <SCORE.INTRA.REPUL.0>
0

>  <SCORE.INTRA.VDW>
11.7212

>  <SCORE.INTRA.VDW.0>
-2.78316

>  <SCORE.INTRA.norm>
1.29716

>  <SCORE.RESTR>
24.4979

>  <SCORE.RESTR.CAVITY>
24.4979

>  <SCORE.RESTR.norm>
0.489958

>  <SCORE.SYSTEM>
0

>  <SCORE.SYSTEM.CONST>
0

>  <SCORE.SYSTEM.DIHEDRAL>
0

>  <SCORE.SYSTEM.norm>
0

>  <SCORE.heavy>
50

>  <SCORE.norm>
3.79191

$$$$
FB1.pdb
  RxDock  10062000103D
librxdock.so/0.1.0
 59 58  0  0  0  0  0  0  0  0999 V2000
    5.5178    4.5317   -2.2481 C   0  0  0  0  0  0
    4.1087    4.6922   -2.8136 C   0  0  0  0  0  0
    3.2598    3.4291   -2.5939 C   0  0  0  0  0  0
    3.7540    2.2044   -3.4036 C   0  0  0  0  0  0
    3.1094    2.0473   -4.8250 C   0  0  0  0  0  0
    3.7693    3.0746   -5.7736 C   0  0  0  0  0  0
    3.2228    0.5777   -5.4127 C   0  0  0  0  0  0
    3.7999    0.4335   -6.9001 C   0  0  0  0  0  0
    4.7682   -0.7255   -7.3976 C   0  0  0  0  0  0
    6.3779   -0.3725   -7.3227 C   0  0  0  0  0  0
    6.7553   -0.1367   -5.8612 C   0  0  0  0  0  0
    7.3646   -1.4502   -7.9628 C   0  0  0  0  0  0
    7.1010   -3.0467   -7.9430 C   0  0  0  0  0  0
    5.7885   -3.6886   -8.5099 C   0  0  0  0  0  0
    5.3192   -3.2796   -9.9802 C   0  0  0  0  0  0
    4.2381   -4.0679  -10.8194 C   0  0  0  0  0  0
    2.7973   -4.2161  -10.2631 C   0  0  0  0  0  0
    1.9274   -5.3888  -10.8607 C   0  0  0  0  0  0
    1.8891   -6.6888  -10.0476 C   0  0  0  0  0  0
    0.9214   -7.8167  -10.5055 C   0  0  0  0  0  0
   -0.5463   -7.8593   -9.9863 C   0  0  0  0  0  0
   -0.8103   -8.7395   -8.7726 C   0  0  0  0  0  0
   -1.0679   -6.4960   -9.7724 N   0  0  0  0  0  0
    0.8069   -7.6426  -11.9409 O   0  0  0  0  0  0
    0.5871   -4.9098  -11.0158 O   0  0  0  0  0  0
    8.1639   -3.6065   -8.7326 O   0  0  0  0  0  0
    2.6446    0.3382   -7.7768 O   0  0  0  0  0  0
    2.1487    1.5017   -8.2724 C   0  0  0  0  0  0
    1.9264    2.5164   -7.6397 O   0  0  0  0  0  0
    2.0124    1.3641   -9.7637 C   0  0  0  0  0  0
    1.0162    0.2651  -10.1665 C   0  0  0  0  0  0
    1.0986   -0.0864  -11.6575 C   0  0  0  0  0  0
    1.7381    1.0323  -12.4467 C   0  0  0  0  0  0
    1.1631    2.0779  -12.7293 O   0  0  0  0  0  0
    3.0029    0.7742  -12.8107 O   0  0  0  0  0  0
    1.3754   -0.9618   -9.3170 C   0  0  0  0  0  0
    2.3898   -1.6198   -9.4912 O   0  0  0  0  0  0
    0.4573   -1.2845   -8.3956 O   0  0  0  0  0  0
    3.9110   -0.3280   -4.4609 O   0  0  0  0  0  0
    3.2172   -0.7591   -3.3425 C   0  0  0  0  0  0
    2.0760   -0.4202   -3.0575 O   0  0  0  0  0  0
    4.0413   -1.7245   -2.4804 C   0  0  0  0  0  0
    3.2330   -2.8484   -1.7607 C   0  0  0  0  0  0
    2.1070   -2.4269   -0.7991 C   0  0  0  0  0  0
    2.5681   -1.4665    0.2590 C   0  0  0  0  0  0
    2.8379   -0.2863    0.0827 O   0  0  0  0  0  0
    2.6438   -2.0362    1.4714 O   0  0  0  0  0  0
    2.6532   -3.9161   -2.6968 C   0  0  0  0  0  0
    1.4795   -3.9529   -3.0096 O   0  0  0  0  0  0
    3.5546   -4.7589   -3.2432 O   0  0  0  0  0  0
   -2.0761   -6.4969   -9.9210 H   0  0  0  0  0  0
   -0.6946   -5.8852  -10.5025 H   0  0  0  0  0  0
    0.2758   -6.8255  -12.0487 H   0  0  0  0  0  0
    0.6207   -4.0625  -11.4969 H   0  0  0  0  0  0
    7.9261   -3.5083   -9.6698 H   0  0  0  0  0  0
    3.4186    1.4495  -13.3805 H   0  0  0  0  0  0
    0.7289   -2.0128   -7.7836 H   0  0  0  0  0  0
    2.9634   -1.3442    2.0880 H   0  0  0  0  0  0
    3.1937   -5.3847   -3.9098 H   0  0  0  0  0  0
  1  2  1  0  0  0
  2  3  1  0  0  0
  3  4  1  0  0  0
  4  5  1  0  0  0
  5  6  1  0  0  0
  5  7  1  0  0  0
  7  8  1  0  0  0
  7 39  1  0  0  0
  8  9  1  0  0  0
  8 27  1  0  0  0
  9 10  1  0  0  0
 10 11  1  0  0  0
 10 12  1  0  0  0
 12 13  1  0  0  0
 13 14  1  0  0  0
 13 26  1  0  0  0
 14 15  1  0  0  0
 15 16  1  0  0  0
 16 17  1  0  0  0
 17 18  1  0  0  0
 18 19  1  0  0  0
 18 25  1  0  0  0
 19 20  1  0  0  0
 20 21  1  0  0  0
 20 24  1  0  0  0
 21 22  1  0  0  0
 21 23  1  0  0  0
 23 51  1  0  0  0
 23 52  1  0  0  0
 24 53  1  0  0  0
 25 54  1  0  0  0
 26 55  1  0  0  0
 27 28  1  0  0  0
 28 29  2  0  0  0
 28 30  1  0  0  0
 30 31  1  0  0  0
 31 32  1  0  0  0
 31 36  1  0  0  0
 32 33  1  0  0  0
 33 34  2  0  0  0
 33 35  1  0  0  0
 35 56  1  0  0  0
 36 37  2  0  0  0
 36 38  1  0  0  0
 38 57  1  0  0  0
 39 40  1  0  0  0
 40 41  2  0  0  0
 40 42  1  0  0  0
 42 43  1  0  0  0
 43 44  1  0  0  0
 43 48  1  0  0  0
 44 45  1  0  0  0
 45 46  2  0  0  0
 45 47  1  0  0  0
 47 58  1  0  0  0
 48 49  2  0  0  0
 48 50  1  0  0  0
 50 59  1  0  0  0
M  END
>  <AUTHOR>
    GENERATED BY OPEN BABEL 2.4.1

>  <CHROM.1>
-67.09653231,-90.79758791,76.50259050,-129.64688543,141.90046983,74.55360605
-93.57164075,90.21427633,62.54499900,-33.91697560,55.40819691,50.72924283
-80.52957552,165.01350430,60.06725624,-159.56344148,96.88108471,173.16190569
50.53509350,-88.67901555,-94.93736601,-71.39632075,150.32441994,-46.79975187
62.69503014,-167.54049022,-20.78849562,-70.73808024,-75.37943968,175.47598980
-173.74424400,-1.90500632,-146.04653282,-58.27914160,-53.94094198,-103.44812379
73.28688266,179.12830611,-174.23784484,2.94683681,-1.59016096,-6.92080507
-0.68097352,-1.30848838,-1.25147140

>  <COMPND>
    UNNAMED

>  <MASTER>
        0    0    0    0    0    0    0    0  109    0  109    0

>  <Name>
FB1.pdb

>  <RI>
0

>  <Rbt.Current_Directory>
/home/fc/tossine/F10/p3/0_clust01

>  <Rbt.Executable>
rbdock/0.1.0

>  <Rbt.Library>
librxdock.so/0.1.0

>  <Rbt.Parameter_File>
dock.prm

>  <Rbt.Receptor>
rx_4.prm

>  <SCORE>
64.8555

>  <SCORE.INTER>
26.7871

>  <SCORE.INTER.CONST>
1

>  <SCORE.INTER.POLAR>
-1.20443

>  <SCORE.INTER.REPUL>
0.467172

>  <SCORE.INTER.ROT>
32

>  <SCORE.INTER.VDW>
-8.8537

>  <SCORE.INTER.norm>
0.535742

>  <SCORE.INTRA>
20.1623

>  <SCORE.INTRA.DIHEDRAL>
27.0241

>  <SCORE.INTRA.DIHEDRAL.0>
47.3121

>  <SCORE.INTRA.POLAR>
0.258468

>  <SCORE.INTRA.POLAR.0>
-1.47808

>  <SCORE.INTRA.REPUL>
0

>  <SCORE.INTRA.REPUL.0>
0

>  <SCORE.INTRA.VDW>
5.7715

>  <SCORE.INTRA.VDW.0>
-2.78316

>  <SCORE.INTRA.norm>
0.403247

>  <SCORE.RESTR>
17.9061

>  <SCORE.RESTR.CAVITY>
17.9061

>  <SCORE.RESTR.norm>
0.358121

>  <SCORE.SYSTEM>
0

>  <SCORE.SYSTEM.CONST>
0

>  <SCORE.SYSTEM.DIHEDRAL>
0

>  <SCORE.SYSTEM.norm>
0

>  <SCORE.heavy>
50

>  <SCORE.norm>
1.29711

$$$$
FB1.pdb
  RxDock  10062001463D
librxdock.so/0.1.0
 59 58  0  0  0  0  0  0  0  0999 V2000
    9.5413   -5.5572   -6.7797 C   0  0  0  0  0  0
    8.8931   -4.5328   -7.7080 C   0  0  0  0  0  0
    7.6541   -5.1078   -8.4140 C   0  0  0  0  0  0
    7.0829   -4.1783   -9.5137 C   0  0  0  0  0  0
    5.6408   -4.5471  -10.0083 C   0  0  0  0  0  0
    5.2126   -5.8630   -9.3186 C   0  0  0  0  0  0
    4.5726   -3.4009   -9.7568 C   0  0  0  0  0  0
    3.1317   -3.5913  -10.4304 C   0  0  0  0  0  0
    1.8605   -4.2184   -9.7099 C   0  0  0  0  0  0
    1.5036   -5.7690  -10.1455 C   0  0  0  0  0  0
    2.4991   -6.2135  -11.2158 C   0  0  0  0  0  0
    1.4729   -6.8416   -8.9650 C   0  0  0  0  0  0
    1.5428   -8.4424   -9.1911 C   0  0  0  0  0  0
    1.8631   -9.4420   -8.0275 C   0  0  0  0  0  0
    0.9367   -9.4128   -6.7274 C   0  0  0  0  0  0
    1.4846   -9.3691   -5.2467 C   0  0  0  0  0  0
    2.9947   -9.6085   -4.9828 C   0  0  0  0  0  0
    3.3750  -10.2501   -3.5924 C   0  0  0  0  0  0
    2.3745  -10.0370   -2.4495 C   0  0  0  0  0  0
    2.3949  -11.0340   -1.2563 C   0  0  0  0  0  0
    3.2196  -10.7167    0.0261 C   0  0  0  0  0  0
    4.5615  -10.0293   -0.1842 C   0  0  0  0  0  0
    2.4002   -9.9838    1.0099 N   0  0  0  0  0  0
    1.0166  -11.1007   -0.8094 O   0  0  0  0  0  0
    3.5487  -11.6576   -3.7882 O   0  0  0  0  0  0
    0.2304   -8.8084   -9.6497 O   0  0  0  0  0  0
    2.6962   -2.2665  -10.8397 O   0  0  0  0  0  0
    1.6588   -2.2009  -11.7142 C   0  0  0  0  0  0
    0.8890   -3.1025  -11.9860 O   0  0  0  0  0  0
    1.5527   -0.7894  -12.2219 C   0  0  0  0  0  0
    1.3031    0.2260  -11.0953 C   0  0  0  0  0  0
    2.3714    0.1603   -9.9963 C   0  0  0  0  0  0
    1.8433    0.7049   -8.6895 C   0  0  0  0  0  0
    2.0686    0.1901   -7.5996 O   0  0  0  0  0  0
    1.1011    1.8128   -8.8333 O   0  0  0  0  0  0
    1.3198    1.6084  -11.7621 C   0  0  0  0  0  0
    2.0669    1.8947  -12.6852 O   0  0  0  0  0  0
    0.4786    2.4966  -11.2147 O   0  0  0  0  0  0
    4.4710   -3.0709   -8.3144 O   0  0  0  0  0  0
    5.4228   -2.2301   -7.7620 C   0  0  0  0  0  0
    6.4225   -1.8317   -8.3452 O   0  0  0  0  0  0
    5.0890   -1.8408   -6.3158 C   0  0  0  0  0  0
    4.0141   -0.7226   -6.1462 C   0  0  0  0  0  0
    2.7609   -1.0446   -5.3118 C   0  0  0  0  0  0
    3.0581   -1.8975   -4.1123 C   0  0  0  0  0  0
    2.7882   -1.6168   -2.9526 O   0  0  0  0  0  0
    3.6551   -3.0536   -4.4399 O   0  0  0  0  0  0
    4.5625    0.6177   -5.6412 C   0  0  0  0  0  0
    4.9510    1.4952   -6.3867 O   0  0  0  0  0  0
    4.4880    0.8086   -4.3073 O   0  0  0  0  0  0
    3.0124   -9.5640    1.7081 H   0  0  0  0  0  0
    1.8322  -10.6575    1.5286 H   0  0  0  0  0  0
    0.6315  -11.8516   -1.3087 H   0  0  0  0  0  0
    2.9295  -11.9467   -4.4836 H   0  0  0  0  0  0
    0.0846   -8.3857  -10.5126 H   0  0  0  0  0  0
    1.5389    2.5497   -9.3010 H   0  0  0  0  0  0
   -0.1430    2.1147  -10.5465 H   0  0  0  0  0  0
    3.6241   -3.6223   -3.6419 H   0  0  0  0  0  0
    4.8527    1.6624   -3.9845 H   0  0  0  0  0  0
  1  2  1  0  0  0
  2  3  1  0  0  0
  3  4  1  0  0  0
  4  5  1  0  0  0
  5  6  1  0  0  0
  5  7  1  0  0  0
  7  8  1  0  0  0
  7 39  1  0  0  0
  8  9  1  0  0  0
  8 27  1  0  0  0
  9 10  1  0  0  0
 10 11  1  0  0  0
 10 12  1  0  0  0
 12 13  1  0  0  0
 13 14  1  0  0  0
 13 26  1  0  0  0
 14 15  1  0  0  0
 15 16  1  0  0  0
 16 17  1  0  0  0
 17 18  1  0  0  0
 18 19  1  0  0  0
 18 25  1  0  0  0
 19 20  1  0  0  0
 20 21  1  0  0  0
 20 24  1  0  0  0
 21 22  1  0  0  0
 21 23  1  0  0  0
 23 51  1  0  0  0
 23 52  1  0  0  0
 24 53  1  0  0  0
 25 54  1  0  0  0
 26 55  1  0  0  0
 27 28  1  0  0  0
 28 29  2  0  0  0
 28 30  1  0  0  0
 30 31  1  0  0  0
 31 32  1  0  0  0
 31 36  1  0  0  0
 32 33  1  0  0  0
 33 34  2  0  0  0
 33 35  1  0  0  0
 35 56  1  0  0  0
 36 37  2  0  0  0
 36 38  1  0  0  0
 38 57  1  0  0  0
 39 40  1  0  0  0
 40 41  2  0  0  0
 40 42  1  0  0  0
 42 43  1  0  0  0
 43 44  1  0  0  0
 43 48  1  0  0  0
 44 45  1  0  0  0
 45 46  2  0  0  0
 45 47  1  0  0  0
 47 58  1  0  0  0
 48 49  2  0  0  0
 48 50  1  0  0  0
 50 59  1  0  0  0
M  END
>  <AUTHOR>
    GENERATED BY OPEN BABEL 2.4.1

>  <CHROM.1>
-171.75901581,-165.60413366,-4.87141741,170.71573218,95.07008563,80.69057119
-103.53129461,164.65293683,-2.09354035,-162.87265379,164.58029747,56.40052394
64.73448079,-131.52714473,-10.93651150,-150.61341022,-24.85689741,157.64162382
-33.08094092,94.20311818,-37.72119462,91.92031634,-164.20719317,15.67457809
-60.02816694,55.85779568,-156.58045507,-36.39591346,138.63529472,-55.57705681
-8.94056887,-7.19726954,-78.91128583,122.80504515,38.02326576,90.34391958
123.94648335,-167.37771725,179.10016842,3.22376352,-4.26638814,-7.26537942
-1.53168183,-1.22698198,-0.58011327

>  <COMPND>
    UNNAMED

>  <MASTER>
        0    0    0    0    0    0    0    0  109    0  109    0

>  <Name>
FB1.pdb

>  <RI>
0

>  <Rbt.Current_Directory>
/home/fc/tossine/F10/p3/0_clust01

>  <Rbt.Executable>
rbdock/0.1.0

>  <Rbt.Library>
librxdock.so/0.1.0

>  <Rbt.Parameter_File>
dock.prm

>  <Rbt.Receptor>
rx_4.prm

>  <SCORE>
114.46

>  <SCORE.INTER>
53.5845

>  <SCORE.INTER.CONST>
1

>  <SCORE.INTER.POLAR>
-0.701724

>  <SCORE.INTER.REPUL>
1.3204

>  <SCORE.INTER.ROT>
32

>  <SCORE.INTER.VDW>
11.9683

>  <SCORE.INTER.norm>
1.07169

>  <SCORE.INTRA>
47.0451

>  <SCORE.INTRA.DIHEDRAL>
50.5143

>  <SCORE.INTRA.DIHEDRAL.0>
47.3121

>  <SCORE.INTRA.POLAR>
1.42475

>  <SCORE.INTRA.POLAR.0>
-1.47808

>  <SCORE.INTRA.REPUL>
0.303828

>  <SCORE.INTRA.REPUL.0>
0

>  <SCORE.INTRA.VDW>
15.4246

>  <SCORE.INTRA.VDW.0>
-2.78316

>  <SCORE.INTRA.norm>
0.940902

>  <SCORE.RESTR>
13.8305

>  <SCORE.RESTR.CAVITY>
13.8305

>  <SCORE.RESTR.norm>
0.27661

>  <SCORE.SYSTEM>
0

>  <SCORE.SYSTEM.CONST>
0

>  <SCORE.SYSTEM.DIHEDRAL>
0

>  <SCORE.SYSTEM.norm>
0

>  <SCORE.heavy>
50

>  <SCORE.norm>
2.2892

$$$$
FB1.pdb
  RxDock  10062003003D
librxdock.so/0.1.0
 59 58  0  0  0  0  0  0  0  0999 V2000
    2.9414   -3.6364   -2.5708 C   0  0  0  0  0  0
    2.1099   -3.0376   -3.7028 C   0  0  0  0  0  0
    2.9488   -2.1079   -4.5951 C   0  0  0  0  0  0
    3.3386   -2.7422   -5.9536 C   0  0  0  0  0  0
    4.7142   -2.2643   -6.5364 C   0  0  0  0  0  0
    5.5507   -3.5145   -6.8940 C   0  0  0  0  0  0
    4.5709   -1.3003   -7.7886 C   0  0  0  0  0  0
    3.7733   -1.8702   -9.0556 C   0  0  0  0  0  0
    4.0416   -3.2756   -9.7492 C   0  0  0  0  0  0
    2.9130   -4.4371   -9.4357 C   0  0  0  0  0  0
    1.9646   -4.5269  -10.6301 C   0  0  0  0  0  0
    3.4758   -5.8890   -9.0892 C   0  0  0  0  0  0
    3.8274   -7.0144  -10.1976 C   0  0  0  0  0  0
    2.7217   -7.8671  -10.9092 C   0  0  0  0  0  0
    1.4456   -8.3133  -10.0597 C   0  0  0  0  0  0
    0.4699   -7.3097   -9.3280 C   0  0  0  0  0  0
   -0.4500   -6.3868  -10.1703 C   0  0  0  0  0  0
   -1.2883   -7.0793  -11.3134 C   0  0  0  0  0  0
   -2.4029   -6.2358  -11.9448 C   0  0  0  0  0  0
   -3.7255   -6.0470  -11.1489 C   0  0  0  0  0  0
   -4.3233   -4.6252  -10.9332 C   0  0  0  0  0  0
   -5.5640   -4.2815  -11.7456 C   0  0  0  0  0  0
   -4.5419   -4.3591   -9.4987 N   0  0  0  0  0  0
   -4.7243   -6.7610  -11.9212 O   0  0  0  0  0  0
   -0.3809   -7.4799  -12.3458 O   0  0  0  0  0  0
    4.4874   -6.2982  -11.2549 O   0  0  0  0  0  0
    2.3744   -1.9229   -8.6651 O   0  0  0  0  0  0
    1.5490   -0.9856   -9.1994 C   0  0  0  0  0  0
    1.2126    0.0594   -8.6756 O   0  0  0  0  0  0
    1.1950   -1.4055  -10.5993 C   0  0  0  0  0  0
    1.2290   -0.2338  -11.5935 C   0  0  0  0  0  0
    2.6527    0.1095  -12.0502 C   0  0  0  0  0  0
    2.7937    1.5877  -12.3305 C   0  0  0  0  0  0
    3.6817    2.2867  -11.8544 O   0  0  0  0  0  0
    1.8516    2.0673  -13.1559 O   0  0  0  0  0  0
    0.3840   -0.6763  -12.7961 C   0  0  0  0  0  0
   -0.3237   -1.6720  -12.7837 O   0  0  0  0  0  0
    0.5236    0.0943  -13.8836 O   0  0  0  0  0  0
    4.0792    0.0382   -7.3803 O   0  0  0  0  0  0
    4.7196    0.6855   -6.3369 C   0  0  0  0  0  0
    5.8488    0.4239   -5.9434 O   0  0  0  0  0  0
    3.8522    1.7865   -5.7126 C   0  0  0  0  0  0
    3.4701    1.5797   -4.2140 C   0  0  0  0  0  0
    2.4059    0.5189   -3.8786 C   0  0  0  0  0  0
    2.1373    0.4026   -2.4059 C   0  0  0  0  0  0
    2.0105    1.3380   -1.6277 O   0  0  0  0  0  0
    2.0253   -0.8725   -2.0038 O   0  0  0  0  0  0
    4.6619    1.3368   -3.2797 C   0  0  0  0  0  0
    5.3283    0.3211   -3.3100 O   0  0  0  0  0  0
    4.9961    2.3750   -2.4849 O   0  0  0  0  0  0
   -3.9066   -4.9378   -8.9510 H   0  0  0  0  0  0
   -5.4780   -4.6832   -9.2453 H   0  0  0  0  0  0
   -4.5354   -6.5193  -12.8524 H   0  0  0  0  0  0
    0.0361   -6.6783  -12.7121 H   0  0  0  0  0  0
    5.1179   -6.9034  -11.6801 H   0  0  0  0  0  0
    2.1867    2.4875  -13.9711 H   0  0  0  0  0  0
   -0.1503   -0.0671  -14.5897 H   0  0  0  0  0  0
    1.1610   -0.9486   -1.5471 H   0  0  0  0  0  0
    5.8419    2.2730   -1.9947 H   0  0  0  0  0  0
  1  2  1  0  0  0
  2  3  1  0  0  0
  3  4  1  0  0  0
  4  5  1  0  0  0
  5  6  1  0  0  0
  5  7  1  0  0  0
  7  8  1  0  0  0
  7 39  1  0  0  0
  8  9  1  0  0  0
  8 27  1  0  0  0
  9 10  1  0  0  0
 10 11  1  0  0  0
 10 12  1  0  0  0
 12 13  1  0  0  0
 13 14  1  0  0  0
 13 26  1  0  0  0
 14 15  1  0  0  0
 15 16  1  0  0  0
 16 17  1  0  0  0
 17 18  1  0  0  0
 18 19  1  0  0  0
 18 25  1  0  0  0
 19 20  1  0  0  0
 20 21  1  0  0  0
 20 24  1  0  0  0
 21 22  1  0  0  0
 21 23  1  0  0  0
 23 51  1  0  0  0
 23 52  1  0  0  0
 24 53  1  0  0  0
 25 54  1  0  0  0
 26 55  1  0  0  0
 27 28  1  0  0  0
 28 29  2  0  0  0
 28 30  1  0  0  0
 30 31  1  0  0  0
 31 32  1  0  0  0
 31 36  1  0  0  0
 32 33  1  0  0  0
 33 34  2  0  0  0
 33 35  1  0  0  0
 35 56  1  0  0  0
 36 37  2  0  0  0
 36 38  1  0  0  0
 38 57  1  0  0  0
 39 40  1  0  0  0
 40 41  2  0  0  0
 40 42  1  0  0  0
 42 43  1  0  0  0
 43 44  1  0  0  0
 43 48  1  0  0  0
 44 45  1  0  0  0
 45 46  2  0  0  0
 45 47  1  0  0  0
 47 58  1  0  0  0
 48 49  2  0  0  0
 48 50  1  0  0  0
 50 59  1  0  0  0
M  END
>  <AUTHOR>
    GENERATED BY OPEN BABEL 2.4.1

>  <CHROM.1>
103.91357925,-148.65343973,128.64730645,-58.10387363,-49.99549855,50.27513347
105.40847512,106.37379465,100.30343778,-87.19541680,-77.35090019,-36.42000288
149.78670914,57.86949050,68.93953073,49.38102392,167.65068624,-76.65496829
-62.86237762,129.57365055,106.67359266,-43.08133472,25.00299142,-96.57090717
-137.47020188,79.78608576,-147.86403453,11.00564488,128.57017451,-121.86171089
-167.77512902,19.71174806,117.39190318,-74.01870942,179.31456944,-69.02139468
43.27096010,-125.25047139,-170.56106899,1.82944287,-2.38277418,-8.51350727
0.19158658,1.05462201,2.26208384

>  <COMPND>
    UNNAMED

>  <MASTER>
        0    0    0    0    0    0    0    0  109    0  109    0

>  <Name>
FB1.pdb

>  <RI>
0

>  <Rbt.Current_Directory>
/home/fc/tossine/F10/p3/0_clust01

>  <Rbt.Executable>
rbdock/0.1.0

>  <Rbt.Library>
librxdock.so/0.1.0

>  <Rbt.Parameter_File>
dock.prm

>  <Rbt.Receptor>
rx_4.prm

>  <SCORE>
177.259

>  <SCORE.INTER>
106.503

>  <SCORE.INTER.CONST>
1

>  <SCORE.INTER.POLAR>
-1.2185

>  <SCORE.INTER.REPUL>
2.01691

>  <SCORE.INTER.ROT>
32

>  <SCORE.INTER.VDW>
63.161

>  <SCORE.INTER.norm>
2.13005

>  <SCORE.INTRA>
51.6714

>  <SCORE.INTRA.DIHEDRAL>
86.8409

>  <SCORE.INTRA.DIHEDRAL.0>
47.3121

>  <SCORE.INTRA.POLAR>
1.47808

>  <SCORE.INTRA.POLAR.0>
-1.47808

>  <SCORE.INTRA.REPUL>
0

>  <SCORE.INTRA.REPUL.0>
0

>  <SCORE.INTRA.VDW>
3.22546

>  <SCORE.INTRA.VDW.0>
-2.78316

>  <SCORE.INTRA.norm>
1.03343

>  <SCORE.RESTR>
19.0853

>  <SCORE.RESTR.CAVITY>
19.0853

>  <SCORE.RESTR.norm>
0.381705

>  <SCORE.SYSTEM>
0

>  <SCORE.SYSTEM.CONST>
0

>  <SCORE.SYSTEM.DIHEDRAL>
0

>  <SCORE.SYSTEM.norm>
0

>  <SCORE.heavy>
50

>  <SCORE.norm>
3.54519

$$$$
FB1.pdb
  RxDock  10062004113D
librxdock.so/0.1.0
 59 58  0  0  0  0  0  0  0  0999 V2000
    9.4321    0.0124   -6.6136 C   0  0  0  0  0  0
    8.4125   -1.0110   -6.1193 C   0  0  0  0  0  0
    7.3053   -1.2587   -7.1571 C   0  0  0  0  0  0
    6.6663   -2.6661   -7.0544 C   0  0  0  0  0  0
    6.2259   -3.2941   -8.4227 C   0  0  0  0  0  0
    7.4888   -3.5030   -9.2899 C   0  0  0  0  0  0
    5.4149   -4.6489   -8.2658 C   0  0  0  0  0  0
    4.5102   -4.8053   -6.9530 C   0  0  0  0  0  0
    5.0626   -5.0925   -5.4899 C   0  0  0  0  0  0
    4.9538   -6.6630   -4.9970 C   0  0  0  0  0  0
    4.1591   -7.4452   -6.0413 C   0  0  0  0  0  0
    6.3352   -7.4068   -4.7086 C   0  0  0  0  0  0
    6.5104   -8.6173   -3.6491 C   0  0  0  0  0  0
    6.9711   -8.3793   -2.1702 C   0  0  0  0  0  0
    6.2529   -9.2089   -1.0104 C   0  0  0  0  0  0
    6.4265   -8.9139    0.5315 C   0  0  0  0  0  0
    5.1927   -8.9942    1.4690 C   0  0  0  0  0  0
    4.4079  -10.3627    1.4866 C   0  0  0  0  0  0
    3.3847  -10.5446    2.6147 C   0  0  0  0  0  0
    3.8888  -10.4825    4.0844 C   0  0  0  0  0  0
    2.9023  -10.7021    5.2694 C   0  0  0  0  0  0
    3.5264  -10.8806    6.6463 C   0  0  0  0  0  0
    1.8663   -9.6521    5.2921 N   0  0  0  0  0  0
    4.8490  -11.5645    4.1898 O   0  0  0  0  0  0
    3.7312  -10.5000    0.2324 O   0  0  0  0  0  0
    5.2043   -9.2089   -3.5446 O   0  0  0  0  0  0
    3.7688   -3.5622   -6.8200 O   0  0  0  0  0  0
    2.7441   -3.3593   -7.6884 C   0  0  0  0  0  0
    2.1141   -4.2208   -8.2717 O   0  0  0  0  0  0
    2.4446   -1.8864   -7.7354 C   0  0  0  0  0  0
    3.3611   -1.0679   -6.8120 C   0  0  0  0  0  0
    3.3729    0.4246   -7.1667 C   0  0  0  0  0  0
    4.3186    1.1903   -6.2708 C   0  0  0  0  0  0
    3.9532    1.8436   -5.2995 O   0  0  0  0  0  0
    5.6043    1.0870   -6.6384 O   0  0  0  0  0  0
    2.8142   -1.2659   -5.3915 C   0  0  0  0  0  0
    2.4539   -2.3508   -4.9608 O   0  0  0  0  0  0
    2.7170   -0.1381   -4.6742 O   0  0  0  0  0  0
    4.6582   -4.9662   -9.5014 O   0  0  0  0  0  0
    4.6823   -6.2681   -9.9729 C   0  0  0  0  0  0
    5.2718   -7.1942   -9.4313 O   0  0  0  0  0  0
    3.8780   -6.4346  -11.2690 C   0  0  0  0  0  0
    2.3260   -6.4024  -11.1119 C   0  0  0  0  0  0
    1.7031   -7.1612   -9.9259 C   0  0  0  0  0  0
    0.2684   -7.5378  -10.1589 C   0  0  0  0  0  0
   -0.6718   -7.2516   -9.4304 O   0  0  0  0  0  0
    0.0977   -8.2303  -11.2954 O   0  0  0  0  0  0
    1.7131   -4.9965  -11.1223 C   0  0  0  0  0  0
    0.5811   -4.7725  -11.5032 O   0  0  0  0  0  0
    2.4777   -4.0271  -10.5774 O   0  0  0  0  0  0
    1.1966   -9.8596    6.0317 H   0  0  0  0  0  0
    1.3268   -9.7067    4.4253 H   0  0  0  0  0  0
    4.3404  -12.3693    3.9554 H   0  0  0  0  0  0
    3.4293  -11.4232    0.1491 H   0  0  0  0  0  0
    4.5459   -8.5189   -3.7316 H   0  0  0  0  0  0
    5.7525    0.7851   -7.5552 H   0  0  0  0  0  0
    2.1913   -0.2263   -3.8407 H   0  0  0  0  0  0
    0.9935   -8.4469  -11.6300 H   0  0  0  0  0  0
    2.8599   -3.3852  -11.2162 H   0  0  0  0  0  0
  1  2  1  0  0  0
  2  3  1  0  0  0
  3  4  1  0  0  0
  4  5  1  0  0  0
  5  6  1  0  0  0
  5  7  1  0  0  0
  7  8  1  0  0  0
  7 39  1  0  0  0
  8  9  1  0  0  0
  8 27  1  0  0  0
  9 10  1  0  0  0
 10 11  1  0  0  0
 10 12  1  0  0  0
 12 13  1  0  0  0
 13 14  1  0  0  0
 13 26  1  0  0  0
 14 15  1  0  0  0
 15 16  1  0  0  0
 16 17  1  0  0  0
 17 18  1  0  0  0
 18 19  1  0  0  0
 18 25  1  0  0  0
 19 20  1  0  0  0
 20 21  1  0  0  0
 20 24  1  0  0  0
 21 22  1  0  0  0
 21 23  1  0  0  0
 23 51  1  0  0  0
 23 52  1  0  0  0
 24 53  1  0  0  0
 25 54  1  0  0  0
 26 55  1  0  0  0
 27 28  1  0  0  0
 28 29  2  0  0  0
 28 30  1  0  0  0
 30 31  1  0  0  0
 31 32  1  0  0  0
 31 36  1  0  0  0
 32 33  1  0  0  0
 33 34  2  0  0  0
 33 35  1  0  0  0
 35 56  1  0  0  0
 36 37  2  0  0  0
 36 38  1  0  0  0
 38 57  1  0  0  0
 39 40  1  0  0  0
 40 41  2  0  0  0
 40 42  1  0  0  0
 42 43  1  0  0  0
 43 44  1  0  0  0
 43 48  1  0  0  0
 44 45  1  0  0  0
 45 46  2  0  0  0
 45 47  1  0  0  0
 47 58  1  0  0  0
 48 49  2  0  0  0
 48 50  1  0  0  0
 50 59  1  0  0  0
M  END
>  <AUTHOR>
    GENERATED BY OPEN BABEL 2.4.1

>  <CHROM.1>
152.88414886,-145.74143596,63.52259439,31.36568873,-74.64681878,135.82711687
-100.19145186,73.74905882,-7.29737785,151.56266093,-94.40533887,139.05657282
-28.20169990,-169.26366471,139.40056071,56.79918104,167.48925294,-59.93660862
166.36547834,-178.19174300,168.95174082,-58.38911197,175.77226203,24.44242034
-0.01496767,162.07088835,-178.06112494,43.22571267,-99.87500157,18.15229719
167.53282535,1.12002309,-73.53078759,-42.20122508,-156.65690485,151.81415955
-124.77796372,8.97034388,108.88453029,4.12777601,-5.49879928,-5.22922343
-1.65497391,1.13211959,2.18863575

>  <COMPND>
    UNNAMED

>  <MASTER>
        0    0    0    0    0    0    0    0  109    0  109    0

>  <Name>
FB1.pdb

>  <RI>
0

>  <Rbt.Current_Directory>
/home/fc/tossine/F10/p3/0_clust01

>  <Rbt.Executable>
rbdock/0.1.0

>  <Rbt.Library>
librxdock.so/0.1.0

>  <Rbt.Parameter_File>
dock.prm

>  <Rbt.Receptor>
rx_4.prm

>  <SCORE>
78.0638

>  <SCORE.INTER>
18.7307

>  <SCORE.INTER.CONST>
1

>  <SCORE.INTER.POLAR>
-1.4787

>  <SCORE.INTER.REPUL>
0.67908

>  <SCORE.INTER.ROT>
32

>  <SCORE.INTER.VDW>
-17.0371

>  <SCORE.INTER.norm>
0.374614

>  <SCORE.INTRA>
38.4716

>  <SCORE.INTRA.DIHEDRAL>
48.3319

>  <SCORE.INTRA.DIHEDRAL.0>
47.3121

>  <SCORE.INTRA.POLAR>
1.47808

>  <SCORE.INTRA.POLAR.0>
-1.47808

>  <SCORE.INTRA.REPUL>
0.109339

>  <SCORE.INTRA.REPUL.0>
0

>  <SCORE.INTRA.VDW>
8.73351

>  <SCORE.INTRA.VDW.0>
-2.78316

>  <SCORE.INTRA.norm>
0.769432

>  <SCORE.RESTR>
20.8615

>  <SCORE.RESTR.CAVITY>
20.8615

>  <SCORE.RESTR.norm>
0.41723

>  <SCORE.SYSTEM>
0

>  <SCORE.SYSTEM.CONST>
0

>  <SCORE.SYSTEM.DIHEDRAL>
0

>  <SCORE.SYSTEM.norm>
0

>  <SCORE.heavy>
50

>  <SCORE.norm>
1.56128

$$$$
