FB1.pdb
  RxDock  10062016363D
librxdock.so/0.1.0
 59 58  0  0  0  0  0  0  0  0999 V2000
  -13.6991   -5.4451    7.6038 C   0  0  0  0  0  0
  -12.9019   -4.2459    8.1115 C   0  0  0  0  0  0
  -13.7318   -2.9520    8.0707 C   0  0  0  0  0  0
  -13.9828   -2.3350    9.4693 C   0  0  0  0  0  0
  -12.6877   -2.0314   10.3006 C   0  0  0  0  0  0
  -12.6767   -2.9582   11.5381 C   0  0  0  0  0  0
  -11.3479   -2.1854    9.4644 C   0  0  0  0  0  0
  -10.9802   -0.9951    8.4573 C   0  0  0  0  0  0
  -11.4701   -0.8890    6.9484 C   0  0  0  0  0  0
  -12.9525   -0.1954    6.7414 C   0  0  0  0  0  0
  -12.7550    1.2861    6.4248 C   0  0  0  0  0  0
  -13.8906   -0.8585    5.6345 C   0  0  0  0  0  0
  -15.4774   -0.5717    5.4995 C   0  0  0  0  0  0
  -16.3372   -1.1433    4.3204 C   0  0  0  0  0  0
  -15.6109   -1.4465    2.9313 C   0  0  0  0  0  0
  -14.4859   -0.5357    2.2993 C   0  0  0  0  0  0
  -14.8858    0.7545    1.5358 C   0  0  0  0  0  0
  -15.2509    0.5869    0.0101 C   0  0  0  0  0  0
  -14.3058   -0.2882   -0.8225 C   0  0  0  0  0  0
  -14.5754   -0.4199   -2.3484 C   0  0  0  0  0  0
  -14.4895    0.8269   -3.2777 C   0  0  0  0  0  0
  -15.0486    0.6634   -4.6842 C   0  0  0  0  0  0
  -15.0625    2.0151   -2.6173 N   0  0  0  0  0  0
  -13.5422   -1.3177   -2.8282 O   0  0  0  0  0  0
  -16.5699    0.0360   -0.0704 O   0  0  0  0  0  0
  -16.0565   -1.1299    6.6911 O   0  0  0  0  0  0
  -11.4626    0.2268    9.0791 O   0  0  0  0  0  0
  -10.8476    0.6205   10.2245 C   0  0  0  0  0  0
  -11.3898    1.0861   11.2088 O   0  0  0  0  0  0
   -9.3844    0.2905   10.1169 C   0  0  0  0  0  0
   -8.6554    1.1687    9.0874 C   0  0  0  0  0  0
   -8.0564    2.4349    9.7129 C   0  0  0  0  0  0
   -8.4890    2.5889   11.1525 C   0  0  0  0  0  0
   -8.0328    1.9196   12.0731 O   0  0  0  0  0  0
   -9.4240    3.5337   11.3313 O   0  0  0  0  0  0
   -7.5388    0.2934    8.5016 C   0  0  0  0  0  0
   -6.9988    0.5289    7.4314 O   0  0  0  0  0  0
   -7.2361   -0.7838    9.2392 O   0  0  0  0  0  0
  -10.2067   -2.5412   10.3424 O   0  0  0  0  0  0
   -9.8227   -3.8697   10.4182 C   0  0  0  0  0  0
   -8.7004   -4.2539   10.7203 O   0  0  0  0  0  0
  -10.9707   -4.8295   10.0790 C   0  0  0  0  0  0
  -10.5563   -6.3058    9.7901 C   0  0  0  0  0  0
   -9.7567   -7.0573   10.8701 C   0  0  0  0  0  0
  -10.2778   -6.8188   12.2579 C   0  0  0  0  0  0
  -11.3516   -6.3041   12.5383 O   0  0  0  0  0  0
   -9.4337   -7.2555   13.2051 O   0  0  0  0  0  0
  -11.7111   -7.2203    9.3630 C   0  0  0  0  0  0
  -11.6787   -7.8975    8.3545 O   0  0  0  0  0  0
  -12.7335   -7.3102   10.2393 O   0  0  0  0  0  0
  -14.4101    2.3516   -1.9105 H   0  0  0  0  0  0
  -15.8933    1.7293   -2.0942 H   0  0  0  0  0  0
  -13.8084   -1.5315   -3.7472 H   0  0  0  0  0  0
  -17.1956    0.6907    0.2907 H   0  0  0  0  0  0
  -15.9311   -2.0933    6.6635 H   0  0  0  0  0  0
   -9.7741    3.9337   10.5122 H   0  0  0  0  0  0
   -6.5786   -1.3945    8.8225 H   0  0  0  0  0  0
   -8.6758   -7.6669   12.7385 H   0  0  0  0  0  0
  -13.4668   -7.9062    9.9689 H   0  0  0  0  0  0
  1  2  1  0  0  0
  2  3  1  0  0  0
  3  4  1  0  0  0
  4  5  1  0  0  0
  5  6  1  0  0  0
  5  7  1  0  0  0
  7  8  1  0  0  0
  7 39  1  0  0  0
  8  9  1  0  0  0
  8 27  1  0  0  0
  9 10  1  0  0  0
 10 11  1  0  0  0
 10 12  1  0  0  0
 12 13  1  0  0  0
 13 14  1  0  0  0
 13 26  1  0  0  0
 14 15  1  0  0  0
 15 16  1  0  0  0
 16 17  1  0  0  0
 17 18  1  0  0  0
 18 19  1  0  0  0
 18 25  1  0  0  0
 19 20  1  0  0  0
 20 21  1  0  0  0
 20 24  1  0  0  0
 21 22  1  0  0  0
 21 23  1  0  0  0
 23 51  1  0  0  0
 23 52  1  0  0  0
 24 53  1  0  0  0
 25 54  1  0  0  0
 26 55  1  0  0  0
 27 28  1  0  0  0
 28 29  2  0  0  0
 28 30  1  0  0  0
 30 31  1  0  0  0
 31 32  1  0  0  0
 31 36  1  0  0  0
 32 33  1  0  0  0
 33 34  2  0  0  0
 33 35  1  0  0  0
 35 56  1  0  0  0
 36 37  2  0  0  0
 36 38  1  0  0  0
 38 57  1  0  0  0
 39 40  1  0  0  0
 40 41  2  0  0  0
 40 42  1  0  0  0
 42 43  1  0  0  0
 43 44  1  0  0  0
 43 48  1  0  0  0
 44 45  1  0  0  0
 45 46  2  0  0  0
 45 47  1  0  0  0
 47 58  1  0  0  0
 48 49  2  0  0  0
 48 50  1  0  0  0
 50 59  1  0  0  0
M  END
>  <AUTHOR>
    GENERATED BY OPEN BABEL 2.4.1

>  <CHROM.1>
116.55221895,56.00523036,-114.01051862,77.23840113,-87.86026508,98.87596933
85.42637015,66.73903212,95.80886819,165.34521310,174.39090850,-27.12620448
-65.62370058,-38.83104871,-80.05576407,-85.61092137,-45.28530074,-176.58555709
65.32459093,63.38344805,-167.55587114,169.84128473,74.83426136,-139.63052363
69.54522571,91.49542177,-7.40043854,159.90394789,75.18800212,6.15359272,174.46631021
155.09942151,165.31235697,56.21297007,42.70645529,127.24675669,13.10563954
-2.18173904,-179.21812452,-11.99538267,-1.68046306,7.04741988,0.81805909
0.99813591,2.52414495

>  <COMPND>
    UNNAMED

>  <MASTER>
        0    0    0    0    0    0    0    0  109    0  109    0

>  <Name>
FB1.pdb

>  <RI>
0

>  <Rbt.Current_Directory>
/home/fc/tossine/F10/p3/0_clust01

>  <Rbt.Executable>
rbdock/0.1.0

>  <Rbt.Library>
librxdock.so/0.1.0

>  <Rbt.Parameter_File>
/cluster/rxdock/data/scripts/dock.prm

>  <Rbt.Receptor>
rx_1.prm

>  <SCORE>
77.5776

>  <SCORE.INTER>
35.2504

>  <SCORE.INTER.CONST>
1

>  <SCORE.INTER.POLAR>
-2.35331

>  <SCORE.INTER.REPUL>
1.37765

>  <SCORE.INTER.ROT>
32

>  <SCORE.INTER.VDW>
-1.03664

>  <SCORE.INTER.norm>
0.705008

>  <SCORE.INTRA>
33.3299

>  <SCORE.INTRA.DIHEDRAL>
26.8178

>  <SCORE.INTRA.DIHEDRAL.0>
47.3121

>  <SCORE.INTRA.POLAR>
1.47808

>  <SCORE.INTRA.POLAR.0>
-1.47808

>  <SCORE.INTRA.REPUL>
0.064396

>  <SCORE.INTRA.REPUL.0>
0

>  <SCORE.INTRA.VDW>
14.5735

>  <SCORE.INTRA.VDW.0>
-2.78316

>  <SCORE.INTRA.norm>
0.666597

>  <SCORE.RESTR>
8.99732

>  <SCORE.RESTR.CAVITY>
8.99732

>  <SCORE.RESTR.norm>
0.179946

>  <SCORE.SYSTEM>
0

>  <SCORE.SYSTEM.CONST>
0

>  <SCORE.SYSTEM.DIHEDRAL>
0

>  <SCORE.SYSTEM.norm>
0

>  <SCORE.heavy>
50

>  <SCORE.norm>
1.55155

$$$$
