FB1.pdb
  RxDock  10062017243D
librxdock.so/0.1.0
 59 58  0  0  0  0  0  0  0  0999 V2000
    7.9070   -4.0353   -7.9785 C   0  0  0  0  0  0
    7.9551   -3.2589   -9.2924 C   0  0  0  0  0  0
    7.8631   -1.7416   -9.0609 C   0  0  0  0  0  0
    6.4084   -1.2211   -8.9490 C   0  0  0  0  0  0
    5.5257   -1.9495   -7.8763 C   0  0  0  0  0  0
    4.9753   -0.8867   -6.8974 C   0  0  0  0  0  0
    4.3476   -2.8082   -8.5028 C   0  0  0  0  0  0
    4.0955   -2.6544  -10.0773 C   0  0  0  0  0  0
    2.9176   -3.3503  -10.8876 C   0  0  0  0  0  0
    2.5092   -4.8619  -10.3685 C   0  0  0  0  0  0
    1.6008   -4.7266   -9.1476 C   0  0  0  0  0  0
    1.8179   -5.8128  -11.4468 C   0  0  0  0  0  0
    0.2442   -6.1898  -11.4482 C   0  0  0  0  0  0
   -0.7388   -5.6885  -12.5611 C   0  0  0  0  0  0
   -2.2560   -6.1830  -12.5102 C   0  0  0  0  0  0
   -3.2561   -6.1093  -13.7305 C   0  0  0  0  0  0
   -4.7837   -6.1987  -13.4736 C   0  0  0  0  0  0
   -5.4752   -4.9126  -12.8763 C   0  0  0  0  0  0
   -5.4934   -3.6709  -13.7765 C   0  0  0  0  0  0
   -5.4313   -2.2707  -13.1027 C   0  0  0  0  0  0
   -6.1674   -1.0538  -13.7372 C   0  0  0  0  0  0
   -5.7279   -0.6514  -15.1381 C   0  0  0  0  0  0
   -7.6303   -1.2336  -13.6748 N   0  0  0  0  0  0
   -6.0602   -2.4571  -11.8090 O   0  0  0  0  0  0
   -6.8254   -5.2519  -12.5422 O   0  0  0  0  0  0
    0.2080   -7.6243  -11.5340 O   0  0  0  0  0  0
    3.9105   -1.2338  -10.3224 O   0  0  0  0  0  0
    2.8695   -0.6296   -9.6928 C   0  0  0  0  0  0
    2.8843   -0.1524   -8.5741 O   0  0  0  0  0  0
    1.7124   -0.5551  -10.6505 C   0  0  0  0  0  0
    1.4935    0.8624  -11.2028 C   0  0  0  0  0  0
    0.7605    0.8625  -12.5504 C   0  0  0  0  0  0
    1.4008    1.8293  -13.5192 C   0  0  0  0  0  0
    2.5944    2.1102  -13.5079 O   0  0  0  0  0  0
    0.5364    2.3543  -14.4000 O   0  0  0  0  0  0
    0.6563    1.6009  -10.1494 C   0  0  0  0  0  0
   -0.5165    1.8985  -10.3184 O   0  0  0  0  0  0
    1.3325    1.9386   -9.0428 O   0  0  0  0  0  0
    4.4452   -4.2304   -8.0934 O   0  0  0  0  0  0
    5.0844   -5.1183   -8.9426 C   0  0  0  0  0  0
    5.5571   -4.8221  -10.0321 O   0  0  0  0  0  0
    5.1411   -6.5392   -8.3663 C   0  0  0  0  0  0
    5.1963   -7.6937   -9.4145 C   0  0  0  0  0  0
    5.2769   -9.1403   -8.8938 C   0  0  0  0  0  0
    3.9954   -9.6111   -8.2689 C   0  0  0  0  0  0
    3.2685  -10.4915   -8.7083 O   0  0  0  0  0  0
    3.7143   -8.9661   -7.1263 O   0  0  0  0  0  0
    4.0817   -7.6527  -10.4673 C   0  0  0  0  0  0
    4.3024   -7.5754  -11.6598 O   0  0  0  0  0  0
    2.8293   -7.8167   -9.9919 O   0  0  0  0  0  0
   -8.0683   -0.6604  -14.3946 H   0  0  0  0  0  0
   -7.9691   -0.8497  -12.7898 H   0  0  0  0  0  0
   -7.0152   -2.5508  -12.0103 H   0  0  0  0  0  0
   -6.8046   -5.9105  -11.8236 H   0  0  0  0  0  0
   -0.6757   -7.9198  -11.2578 H   0  0  0  0  0  0
    0.9351    2.9212  -15.0879 H   0  0  0  0  0  0
    2.3167    1.8979   -9.1352 H   0  0  0  0  0  0
    2.8257   -9.2691   -6.8435 H   0  0  0  0  0  0
    2.7328   -7.7133   -9.0191 H   0  0  0  0  0  0
  1  2  1  0  0  0
  2  3  1  0  0  0
  3  4  1  0  0  0
  4  5  1  0  0  0
  5  6  1  0  0  0
  5  7  1  0  0  0
  7  8  1  0  0  0
  7 39  1  0  0  0
  8  9  1  0  0  0
  8 27  1  0  0  0
  9 10  1  0  0  0
 10 11  1  0  0  0
 10 12  1  0  0  0
 12 13  1  0  0  0
 13 14  1  0  0  0
 13 26  1  0  0  0
 14 15  1  0  0  0
 15 16  1  0  0  0
 16 17  1  0  0  0
 17 18  1  0  0  0
 18 19  1  0  0  0
 18 25  1  0  0  0
 19 20  1  0  0  0
 20 21  1  0  0  0
 20 24  1  0  0  0
 21 22  1  0  0  0
 21 23  1  0  0  0
 23 51  1  0  0  0
 23 52  1  0  0  0
 24 53  1  0  0  0
 25 54  1  0  0  0
 26 55  1  0  0  0
 27 28  1  0  0  0
 28 29  2  0  0  0
 28 30  1  0  0  0
 30 31  1  0  0  0
 31 32  1  0  0  0
 31 36  1  0  0  0
 32 33  1  0  0  0
 33 34  2  0  0  0
 33 35  1  0  0  0
 35 56  1  0  0  0
 36 37  2  0  0  0
 36 38  1  0  0  0
 38 57  1  0  0  0
 39 40  1  0  0  0
 40 41  2  0  0  0
 40 42  1  0  0  0
 42 43  1  0  0  0
 43 44  1  0  0  0
 43 48  1  0  0  0
 44 45  1  0  0  0
 45 46  2  0  0  0
 45 47  1  0  0  0
 47 58  1  0  0  0
 48 49  2  0  0  0
 48 50  1  0  0  0
 50 59  1  0  0  0
M  END
>  <AUTHOR>
    GENERATED BY OPEN BABEL 2.4.1

>  <CHROM.1>
-85.39006934,53.91367700,123.77520403,-8.26559129,-176.05262713,-95.21704922
-35.59132236,-60.65628059,80.60783103,-106.15200556,111.88274051,176.78442522
162.26585263,-162.43147581,-161.31608000,75.31840231,65.67753549,-148.14788539
65.32204657,-147.05979957,-60.88336707,-72.74717979,-157.18821278,86.67059991
-105.31025171,156.12982482,-136.20956086,-108.90853773,30.03319457,-174.80965054
15.81644710,-1.61260297,152.26842754,179.05431136,71.24262773,120.95344781
113.29733734,174.27055364,15.12139073,1.36414060,-3.50956287,-10.72729241
-0.30059881,-0.38740526,-0.10107724

>  <COMPND>
    UNNAMED

>  <MASTER>
        0    0    0    0    0    0    0    0  109    0  109    0

>  <Name>
FB1.pdb

>  <RI>
0

>  <Rbt.Current_Directory>
/home/fc/tossine/F10/p3/0_clust01

>  <Rbt.Executable>
rbdock/0.1.0

>  <Rbt.Library>
librxdock.so/0.1.0

>  <Rbt.Parameter_File>
/cluster/rxdock/data/scripts/dock.prm

>  <Rbt.Receptor>
rx_2.prm

>  <SCORE>
67.6224

>  <SCORE.INTER>
30.1728

>  <SCORE.INTER.CONST>
1

>  <SCORE.INTER.POLAR>
-1.43685

>  <SCORE.INTER.REPUL>
0.851246

>  <SCORE.INTER.ROT>
32

>  <SCORE.INTER.VDW>
-6.59809

>  <SCORE.INTER.norm>
0.603457

>  <SCORE.INTRA>
27.7898

>  <SCORE.INTRA.DIHEDRAL>
43.9377

>  <SCORE.INTRA.DIHEDRAL.0>
47.3121

>  <SCORE.INTRA.POLAR>
1.32046

>  <SCORE.INTRA.POLAR.0>
-1.47808

>  <SCORE.INTRA.REPUL>
0

>  <SCORE.INTRA.REPUL.0>
0

>  <SCORE.INTRA.VDW>
1.33143

>  <SCORE.INTRA.VDW.0>
-2.78316

>  <SCORE.INTRA.norm>
0.555797

>  <SCORE.RESTR>
9.65966

>  <SCORE.RESTR.CAVITY>
9.65966

>  <SCORE.RESTR.norm>
0.193193

>  <SCORE.SYSTEM>
0

>  <SCORE.SYSTEM.CONST>
0

>  <SCORE.SYSTEM.DIHEDRAL>
0

>  <SCORE.SYSTEM.norm>
0

>  <SCORE.heavy>
50

>  <SCORE.norm>
1.35245

$$$$
