FB1.pdb
  RxDock  10062015573D
librxdock.so/0.1.0
 59 58  0  0  0  0  0  0  0  0999 V2000
  -13.8910   -2.5523   11.8167 C   0  0  0  0  0  0
  -13.7465   -3.8840   12.5494 C   0  0  0  0  0  0
  -15.0469   -4.7032   12.5034 C   0  0  0  0  0  0
  -14.9637   -6.0384   13.2845 C   0  0  0  0  0  0
  -14.6668   -7.3024   12.4044 C   0  0  0  0  0  0
  -15.9722   -7.7086   11.6821 C   0  0  0  0  0  0
  -13.4867   -7.0877   11.3656 C   0  0  0  0  0  0
  -12.0314   -6.7992   11.9699 C   0  0  0  0  0  0
  -11.3520   -5.3655   12.0748 C   0  0  0  0  0  0
  -10.8804   -4.7080   10.6372 C   0  0  0  0  0  0
  -12.1245   -4.4614    9.7853 C   0  0  0  0  0  0
  -10.0186   -3.3686   10.7256 C   0  0  0  0  0  0
  -10.3154   -2.1653   11.7661 C   0  0  0  0  0  0
  -11.3517   -1.0293   11.4633 C   0  0  0  0  0  0
  -10.9510    0.0997   10.4079 C   0  0  0  0  0  0
   -9.8537    1.2065   10.6641 C   0  0  0  0  0  0
   -9.9995    2.5976    9.9926 C   0  0  0  0  0  0
   -8.7076    3.1886    9.3064 C   0  0  0  0  0  0
   -7.7525    3.9712   10.2163 C   0  0  0  0  0  0
   -8.3606    4.9932   11.2183 C   0  0  0  0  0  0
   -7.4390    5.8151   12.1674 C   0  0  0  0  0  0
   -6.4611    5.0183   13.0196 C   0  0  0  0  0  0
   -6.7433    6.8851   11.4275 N   0  0  0  0  0  0
   -9.0161    5.9814   10.3831 O   0  0  0  0  0  0
   -7.9853    2.1028    8.7155 O   0  0  0  0  0  0
  -10.8058   -2.8143   12.9514 O   0  0  0  0  0  0
  -12.0560   -7.2868   13.3389 O   0  0  0  0  0  0
  -10.8565   -7.5201   13.9321 C   0  0  0  0  0  0
   -9.8273   -6.9002   13.7425 O   0  0  0  0  0  0
  -11.0326   -8.6157   14.9471 C   0  0  0  0  0  0
  -10.6897   -8.1591   16.3741 C   0  0  0  0  0  0
  -11.1293   -6.7159   16.6520 C   0  0  0  0  0  0
  -12.6354   -6.6059   16.7073 C   0  0  0  0  0  0
  -13.3921   -7.3254   16.0643 O   0  0  0  0  0  0
  -13.0708   -5.6423   17.5324 O   0  0  0  0  0  0
  -11.4269   -9.1230   17.3140 C   0  0  0  0  0  0
  -11.4584   -8.9785   18.5267 O   0  0  0  0  0  0
  -11.9952  -10.1691   16.6987 O   0  0  0  0  0  0
  -13.4615   -8.1707   10.3525 O   0  0  0  0  0  0
  -13.2677   -7.8271    9.0250 C   0  0  0  0  0  0
  -13.5028   -6.7238    8.5498 O   0  0  0  0  0  0
  -12.7165   -8.9935    8.1944 C   0  0  0  0  0  0
  -13.4441  -10.3611    8.3808 C   0  0  0  0  0  0
  -13.9209  -11.1046    7.1197 C   0  0  0  0  0  0
  -13.2254  -10.6463    5.8705 C   0  0  0  0  0  0
  -12.0142  -10.5953    5.7059 O   0  0  0  0  0  0
  -14.0863  -10.2999    4.9014 O   0  0  0  0  0  0
  -12.6839  -11.3754    9.2443 C   0  0  0  0  0  0
  -12.2925  -12.4437    8.8176 O   0  0  0  0  0  0
  -12.3791  -10.9609   10.4919 O   0  0  0  0  0  0
   -5.7832    6.5957   11.2458 H   0  0  0  0  0  0
   -6.6612    7.7028   12.0359 H   0  0  0  0  0  0
   -9.7359    5.4880    9.9360 H   0  0  0  0  0  0
   -7.6559    1.5305    9.4328 H   0  0  0  0  0  0
  -10.9215   -2.1372   13.6390 H   0  0  0  0  0  0
  -12.4270   -4.9326   17.7205 H   0  0  0  0  0  0
  -12.3885  -10.8403   17.3099 H   0  0  0  0  0  0
  -14.9859  -10.4822    5.2460 H   0  0  0  0  0  0
  -12.7614  -10.0932   10.7510 H   0  0  0  0  0  0
  1  2  1  0  0  0
  2  3  1  0  0  0
  3  4  1  0  0  0
  4  5  1  0  0  0
  5  6  1  0  0  0
  5  7  1  0  0  0
  7  8  1  0  0  0
  7 39  1  0  0  0
  8  9  1  0  0  0
  8 27  1  0  0  0
  9 10  1  0  0  0
 10 11  1  0  0  0
 10 12  1  0  0  0
 12 13  1  0  0  0
 13 14  1  0  0  0
 13 26  1  0  0  0
 14 15  1  0  0  0
 15 16  1  0  0  0
 16 17  1  0  0  0
 17 18  1  0  0  0
 18 19  1  0  0  0
 18 25  1  0  0  0
 19 20  1  0  0  0
 20 21  1  0  0  0
 20 24  1  0  0  0
 21 22  1  0  0  0
 21 23  1  0  0  0
 23 51  1  0  0  0
 23 52  1  0  0  0
 24 53  1  0  0  0
 25 54  1  0  0  0
 26 55  1  0  0  0
 27 28  1  0  0  0
 28 29  2  0  0  0
 28 30  1  0  0  0
 30 31  1  0  0  0
 31 32  1  0  0  0
 31 36  1  0  0  0
 32 33  1  0  0  0
 33 34  2  0  0  0
 33 35  1  0  0  0
 35 56  1  0  0  0
 36 37  2  0  0  0
 36 38  1  0  0  0
 38 57  1  0  0  0
 39 40  1  0  0  0
 40 41  2  0  0  0
 40 42  1  0  0  0
 42 43  1  0  0  0
 43 44  1  0  0  0
 43 48  1  0  0  0
 44 45  1  0  0  0
 45 46  2  0  0  0
 45 47  1  0  0  0
 47 58  1  0  0  0
 48 49  2  0  0  0
 48 50  1  0  0  0
 50 59  1  0  0  0
M  END
>  <AUTHOR>
    GENERATED BY OPEN BABEL 2.4.1

>  <CHROM.1>
-177.65434917,-98.15488061,-77.45883175,63.42929679,-100.74322789,136.34168545
-70.98500085,161.04391011,64.19821553,-40.67102115,-85.07484725,-74.42284458
174.81175991,-69.93430680,-149.41554659,-133.98033052,-86.00262773,-44.37420901
-66.55850739,179.95157732,-53.33055458,64.62111881,-101.90855859,33.26091278
-119.39444773,37.44395596,69.24946836,-173.86977661,-30.47569190,22.37891609
173.88589249,-22.75661602,47.53411589,128.52221209,19.39471943,-117.49463804
53.54021539,-2.93994964,6.49115290,-11.60194289,-4.79460282,11.66308984,-0.16642036
1.24305493,1.74239606

>  <COMPND>
    UNNAMED

>  <MASTER>
        0    0    0    0    0    0    0    0  109    0  109    0

>  <Name>
FB1.pdb

>  <RI>
0

>  <Rbt.Current_Directory>
/home/fc/tossine/F10/p3/0_clust01

>  <Rbt.Executable>
rbdock/0.1.0

>  <Rbt.Library>
librxdock.so/0.1.0

>  <Rbt.Parameter_File>
/cluster/rxdock/data/scripts/dock.prm

>  <Rbt.Receptor>
rx_0.prm

>  <SCORE>
44.3845

>  <SCORE.INTER>
8.95457

>  <SCORE.INTER.CONST>
1

>  <SCORE.INTER.POLAR>
-2.37283

>  <SCORE.INTER.REPUL>
0.0550978

>  <SCORE.INTER.ROT>
32

>  <SCORE.INTER.VDW>
-20.6533

>  <SCORE.INTER.norm>
0.179091

>  <SCORE.INTRA>
25.1323

>  <SCORE.INTRA.DIHEDRAL>
26.8419

>  <SCORE.INTRA.DIHEDRAL.0>
47.3121

>  <SCORE.INTRA.POLAR>
0.478077

>  <SCORE.INTRA.POLAR.0>
-1.47808

>  <SCORE.INTRA.REPUL>
0

>  <SCORE.INTRA.REPUL.0>
0

>  <SCORE.INTRA.VDW>
10.0859

>  <SCORE.INTRA.VDW.0>
-2.78316

>  <SCORE.INTRA.norm>
0.502647

>  <SCORE.RESTR>
10.2976

>  <SCORE.RESTR.CAVITY>
10.2976

>  <SCORE.RESTR.norm>
0.205952

>  <SCORE.SYSTEM>
0

>  <SCORE.SYSTEM.CONST>
0

>  <SCORE.SYSTEM.DIHEDRAL>
0

>  <SCORE.SYSTEM.norm>
0

>  <SCORE.heavy>
50

>  <SCORE.norm>
0.88769

$$$$
