FB1.pdb
  RxDock  10052007193D
librxdock.so/0.1.0
 59 58  0  0  0  0  0  0  0  0999 V2000
    4.2202  -10.3558    5.7312 C   0  0  0  0  0  0
    4.8887  -10.1385    4.3758 C   0  0  0  0  0  0
    3.8967  -10.3230    3.2155 C   0  0  0  0  0  0
    3.8785  -11.7616    2.6414 C   0  0  0  0  0  0
    2.7771  -12.7011    3.2453 C   0  0  0  0  0  0
    3.3234  -13.3084    4.5581 C   0  0  0  0  0  0
    1.3890  -11.9726    3.4916 C   0  0  0  0  0  0
    0.5970  -11.4630    2.1958 C   0  0  0  0  0  0
    0.4884  -12.2530    0.8202 C   0  0  0  0  0  0
    1.0000  -11.4188   -0.5078 C   0  0  0  0  0  0
    2.4913  -11.1258   -0.3519 C   0  0  0  0  0  0
    0.7361  -12.1136   -1.9193 C   0  0  0  0  0  0
    1.4291  -11.6459   -3.3048 C   0  0  0  0  0  0
    0.9056  -12.1140   -4.7059 C   0  0  0  0  0  0
   -0.4140  -11.4297   -5.2886 C   0  0  0  0  0  0
   -0.4158  -10.1624   -6.2312 C   0  0  0  0  0  0
    0.6988   -9.0939   -6.0778 C   0  0  0  0  0  0
    2.1745   -9.5660   -6.3755 C   0  0  0  0  0  0
    2.6855   -9.3388   -7.8037 C   0  0  0  0  0  0
    1.6631   -8.9059   -8.8925 C   0  0  0  0  0  0
    2.1492   -8.4739  -10.3075 C   0  0  0  0  0  0
    2.8166   -7.1093  -10.4073 C   0  0  0  0  0  0
    2.9940   -9.5198  -10.9149 N   0  0  0  0  0  0
    0.8468  -10.0833   -9.1191 O   0  0  0  0  0  0
    3.0474   -8.8864   -5.4667 O   0  0  0  0  0  0
    1.3027  -10.2140   -3.3163 O   0  0  0  0  0  0
   -0.7827  -11.2731    2.6115 O   0  0  0  0  0  0
   -1.5464  -10.4430    1.8546 C   0  0  0  0  0  0
   -1.1718   -9.7963    0.8950 O   0  0  0  0  0  0
   -2.9678  -10.5313    2.3375 C   0  0  0  0  0  0
   -3.2327   -9.6370    3.5593 C   0  0  0  0  0  0
   -3.2221   -8.1435    3.2089 C   0  0  0  0  0  0
   -2.7673   -7.3109    4.3851 C   0  0  0  0  0  0
   -1.5903   -7.1595    4.6942 O   0  0  0  0  0  0
   -3.7778   -6.7474    5.0635 O   0  0  0  0  0  0
   -4.6157  -10.0429    4.0872 C   0  0  0  0  0  0
   -5.6605   -9.6793    3.5689 O   0  0  0  0  0  0
   -4.5856  -10.7922    5.1979 O   0  0  0  0  0  0
    0.5210  -12.7660    4.3955 O   0  0  0  0  0  0
    0.5432  -12.4791    5.7502 C   0  0  0  0  0  0
    1.5578  -12.2600    6.3990 O   0  0  0  0  0  0
   -0.8618  -12.4629    6.3666 C   0  0  0  0  0  0
   -1.2827  -11.1291    7.0584 C   0  0  0  0  0  0
   -1.3761   -9.8617    6.1894 C   0  0  0  0  0  0
   -0.1218   -9.5915    5.4094 C   0  0  0  0  0  0
    1.0177   -9.6387    5.8520 O   0  0  0  0  0  0
   -0.3700   -9.2990    4.1237 O   0  0  0  0  0  0
   -2.5784  -11.2153    7.8744 C   0  0  0  0  0  0
   -3.5837  -10.5973    7.5843 O   0  0  0  0  0  0
   -2.5686  -12.1103    8.8844 O   0  0  0  0  0  0
    3.9635   -9.3672  -10.6405 H   0  0  0  0  0  0
    2.9853   -9.3980  -11.9301 H   0  0  0  0  0  0
    0.1694   -9.7930   -9.7658 H   0  0  0  0  0  0
    2.9778   -7.9289   -5.6366 H   0  0  0  0  0  0
    1.9653   -9.8487   -2.7064 H   0  0  0  0  0  0
   -3.5176   -6.0495    5.6949 H   0  0  0  0  0  0
   -5.4734  -11.0947    5.5125 H   0  0  0  0  0  0
    0.5003   -9.1645    3.6927 H   0  0  0  0  0  0
   -1.7371  -12.6256    8.9805 H   0  0  0  0  0  0
  1  2  1  0  0  0
  2  3  1  0  0  0
  3  4  1  0  0  0
  4  5  1  0  0  0
  5  6  1  0  0  0
  5  7  1  0  0  0
  7  8  1  0  0  0
  7 39  1  0  0  0
  8  9  1  0  0  0
  8 27  1  0  0  0
  9 10  1  0  0  0
 10 11  1  0  0  0
 10 12  1  0  0  0
 12 13  1  0  0  0
 13 14  1  0  0  0
 13 26  1  0  0  0
 14 15  1  0  0  0
 15 16  1  0  0  0
 16 17  1  0  0  0
 17 18  1  0  0  0
 18 19  1  0  0  0
 18 25  1  0  0  0
 19 20  1  0  0  0
 20 21  1  0  0  0
 20 24  1  0  0  0
 21 22  1  0  0  0
 21 23  1  0  0  0
 23 51  1  0  0  0
 23 52  1  0  0  0
 24 53  1  0  0  0
 25 54  1  0  0  0
 26 55  1  0  0  0
 27 28  1  0  0  0
 28 29  2  0  0  0
 28 30  1  0  0  0
 30 31  1  0  0  0
 31 32  1  0  0  0
 31 36  1  0  0  0
 32 33  1  0  0  0
 33 34  2  0  0  0
 33 35  1  0  0  0
 35 56  1  0  0  0
 36 37  2  0  0  0
 36 38  1  0  0  0
 38 57  1  0  0  0
 39 40  1  0  0  0
 40 41  2  0  0  0
 40 42  1  0  0  0
 42 43  1  0  0  0
 43 44  1  0  0  0
 43 48  1  0  0  0
 44 45  1  0  0  0
 45 46  2  0  0  0
 45 47  1  0  0  0
 47 58  1  0  0  0
 48 49  2  0  0  0
 48 50  1  0  0  0
 50 59  1  0  0  0
M  END
>  <AUTHOR>
    GENERATED BY OPEN BABEL 2.4.1

>  <CHROM.1>
-92.96422541,94.56750007,-84.23508113,65.76340047,39.40451519,94.27342004
-124.05299925,158.55126389,63.37979129,-165.98162847,-165.20394569,76.62743783
76.38922170,92.15348163,-31.72386924,63.36462562,93.65942060,-10.46482712
-62.01607491,171.63443984,-73.50592424,176.71586620,-88.51304824,-3.45365331
82.64933092,70.51630151,-150.40664277,-78.05804821,80.34956114,-166.71662017
-176.92457020,-43.05613361,-121.98369481,62.55894057,-53.32917677,-115.28122822
-45.90321179,-178.42760043,-1.10446467,0.12330809,-10.38424169,0.92720160
-1.81057900,0.34426166,-1.41072130

>  <COMPND>
    UNNAMED

>  <MASTER>
        0    0    0    0    0    0    0    0  109    0  109    0

>  <Name>
FB1.pdb

>  <RI>
0

>  <Rbt.Current_Directory>
/home/fc/tossine/F10/p3/0_clust01

>  <Rbt.Executable>
rbdock/0.1.0

>  <Rbt.Library>
librxdock.so/0.1.0

>  <Rbt.Parameter_File>
dock.prm

>  <Rbt.Receptor>
rx_3.prm

>  <SCORE>
31.7319

>  <SCORE.INTER>
10.8773

>  <SCORE.INTER.CONST>
1

>  <SCORE.INTER.POLAR>
-1.78665

>  <SCORE.INTER.REPUL>
0.186022

>  <SCORE.INTER.ROT>
32

>  <SCORE.INTER.VDW>
-21.3782

>  <SCORE.INTER.norm>
0.217546

>  <SCORE.INTRA>
14.4751

>  <SCORE.INTRA.DIHEDRAL>
27.6689

>  <SCORE.INTRA.DIHEDRAL.0>
47.3121

>  <SCORE.INTRA.POLAR>
1.47808

>  <SCORE.INTRA.POLAR.0>
-1.47808

>  <SCORE.INTRA.REPUL>
0.00121033

>  <SCORE.INTRA.REPUL.0>
0

>  <SCORE.INTRA.VDW>
-4.39084

>  <SCORE.INTRA.VDW.0>
-2.78316

>  <SCORE.INTRA.norm>
0.289502

>  <SCORE.RESTR>
6.37946

>  <SCORE.RESTR.CAVITY>
6.37946

>  <SCORE.RESTR.norm>
0.127589

>  <SCORE.SYSTEM>
0

>  <SCORE.SYSTEM.CONST>
0

>  <SCORE.SYSTEM.DIHEDRAL>
0

>  <SCORE.SYSTEM.norm>
0

>  <SCORE.heavy>
50

>  <SCORE.norm>
0.634638

$$$$
