FB1.pdb
  RxDock  10062016353D
librxdock.so/0.1.0
 59 58  0  0  0  0  0  0  0  0999 V2000
  -11.5734   -4.3289   13.5191 C   0  0  0  0  0  0
  -11.3680   -2.8167   13.4703 C   0  0  0  0  0  0
  -12.4577   -2.1207   12.6381 C   0  0  0  0  0  0
  -12.3289   -2.3752   11.1155 C   0  0  0  0  0  0
  -10.9541   -1.9545   10.4884 C   0  0  0  0  0  0
   -9.9261   -3.0727   10.7776 C   0  0  0  0  0  0
  -11.0349   -1.6462    8.9340 C   0  0  0  0  0  0
   -9.9358   -0.6469    8.3342 C   0  0  0  0  0  0
   -9.9024   -0.1163    6.8357 C   0  0  0  0  0  0
  -10.7818    1.2516    6.5583 C   0  0  0  0  0  0
  -10.7614    1.5457    5.0592 C   0  0  0  0  0  0
  -12.2892    1.2363    7.0800 C   0  0  0  0  0  0
  -13.5312    0.6165    6.2482 C   0  0  0  0  0  0
  -13.7061   -0.9246    6.0231 C   0  0  0  0  0  0
  -14.9182   -1.4242    5.1120 C   0  0  0  0  0  0
  -15.1979   -2.9375    4.7566 C   0  0  0  0  0  0
  -14.3482   -3.6354    3.6620 C   0  0  0  0  0  0
  -14.8197   -5.0723    3.2121 C   0  0  0  0  0  0
  -14.0703   -5.6929    2.0265 C   0  0  0  0  0  0
  -13.9014   -7.2384    1.9884 C   0  0  0  0  0  0
  -13.0974   -7.9186    0.8411 C   0  0  0  0  0  0
  -12.8799   -7.0900   -0.4173 C   0  0  0  0  0  0
  -11.8202   -8.4596    1.3435 N   0  0  0  0  0  0
  -13.1705   -7.5582    3.1998 O   0  0  0  0  0  0
  -14.6975   -5.9495    4.3369 O   0  0  0  0  0  0
  -14.7028    1.0249    6.9743 O   0  0  0  0  0  0
   -9.9999    0.5597    9.1419 O   0  0  0  0  0  0
   -9.2904    0.5650   10.3003 C   0  0  0  0  0  0
   -8.8114   -0.4058   10.8550 O   0  0  0  0  0  0
   -9.1043    1.9916   10.7380 C   0  0  0  0  0  0
  -10.0610    2.3905   11.8729 C   0  0  0  0  0  0
   -9.7425    3.7748   12.4521 C   0  0  0  0  0  0
   -8.6970    4.4849   11.6237 C   0  0  0  0  0  0
   -8.9367    5.4601   10.9200 O   0  0  0  0  0  0
   -7.4734    3.9465   11.7318 O   0  0  0  0  0  0
  -11.4678    2.3891   11.2588 C   0  0  0  0  0  0
  -12.4624    2.0307   11.8709 O   0  0  0  0  0  0
  -11.5107    2.7679    9.9740 O   0  0  0  0  0  0
  -11.1359   -2.8977    8.1444 O   0  0  0  0  0  0
  -12.1187   -3.8130    8.4827 C   0  0  0  0  0  0
  -13.2812   -3.5249    8.7354 O   0  0  0  0  0  0
  -11.5910   -5.2535    8.5083 C   0  0  0  0  0  0
  -12.6635   -6.3638    8.7355 C   0  0  0  0  0  0
  -13.2685   -6.5076   10.1439 C   0  0  0  0  0  0
  -12.4307   -7.3537   11.0586 C   0  0  0  0  0  0
  -11.9927   -7.0089   12.1476 O   0  0  0  0  0  0
  -12.2103   -8.5812   10.5637 O   0  0  0  0  0  0
  -13.8313   -6.3352    7.7416 C   0  0  0  0  0  0
  -14.0338   -5.4042    6.9874 O   0  0  0  0  0  0
  -14.5670   -7.4649    7.6796 O   0  0  0  0  0  0
  -11.3171   -7.7239    1.8377 H   0  0  0  0  0  0
  -11.2272   -8.6928    0.5439 H   0  0  0  0  0  0
  -12.8054   -8.4538    3.0384 H   0  0  0  0  0  0
  -15.0493   -5.4894    5.1211 H   0  0  0  0  0  0
  -15.2316    1.5979    6.3942 H   0  0  0  0  0  0
   -6.7437    4.4989   11.3914 H   0  0  0  0  0  0
  -10.9127    3.5233    9.7491 H   0  0  0  0  0  0
  -11.7473   -9.0879   11.2639 H   0  0  0  0  0  0
  -14.3029   -8.1728    8.3083 H   0  0  0  0  0  0
  1  2  1  0  0  0
  2  3  1  0  0  0
  3  4  1  0  0  0
  4  5  1  0  0  0
  5  6  1  0  0  0
  5  7  1  0  0  0
  7  8  1  0  0  0
  7 39  1  0  0  0
  8  9  1  0  0  0
  8 27  1  0  0  0
  9 10  1  0  0  0
 10 11  1  0  0  0
 10 12  1  0  0  0
 12 13  1  0  0  0
 13 14  1  0  0  0
 13 26  1  0  0  0
 14 15  1  0  0  0
 15 16  1  0  0  0
 16 17  1  0  0  0
 17 18  1  0  0  0
 18 19  1  0  0  0
 18 25  1  0  0  0
 19 20  1  0  0  0
 20 21  1  0  0  0
 20 24  1  0  0  0
 21 22  1  0  0  0
 21 23  1  0  0  0
 23 51  1  0  0  0
 23 52  1  0  0  0
 24 53  1  0  0  0
 25 54  1  0  0  0
 26 55  1  0  0  0
 27 28  1  0  0  0
 28 29  2  0  0  0
 28 30  1  0  0  0
 30 31  1  0  0  0
 31 32  1  0  0  0
 31 36  1  0  0  0
 32 33  1  0  0  0
 33 34  2  0  0  0
 33 35  1  0  0  0
 35 56  1  0  0  0
 36 37  2  0  0  0
 36 38  1  0  0  0
 38 57  1  0  0  0
 39 40  1  0  0  0
 40 41  2  0  0  0
 40 42  1  0  0  0
 42 43  1  0  0  0
 43 44  1  0  0  0
 43 48  1  0  0  0
 44 45  1  0  0  0
 45 46  2  0  0  0
 45 47  1  0  0  0
 47 58  1  0  0  0
 48 49  2  0  0  0
 48 50  1  0  0  0
 50 59  1  0  0  0
M  END
>  <AUTHOR>
    GENERATED BY OPEN BABEL 2.4.1

>  <CHROM.1>
-71.68481682,-57.10947214,80.49316542,154.45664775,-174.98195707,52.14414452
87.71436951,84.26474615,-174.34280567,-84.65399899,70.54581731,-176.31270392
117.13618809,178.01371645,-77.99213374,-171.27169573,173.57977754,148.01654530
44.22687378,-177.37961270,-18.53122942,-161.60690663,-52.73551636,-14.63373834
102.12573958,171.98313819,8.46675286,143.86792634,109.61762566,-165.73841338
-40.03301419,44.65376795,-173.92632313,-72.72352106,-84.53536998,-11.97040126
124.12081403,-173.83155824,2.73531101,-11.98344330,-2.38610102,8.10758623
-0.08628547,1.26275386,2.33745843

>  <COMPND>
    UNNAMED

>  <MASTER>
        0    0    0    0    0    0    0    0  109    0  109    0

>  <Name>
FB1.pdb

>  <RI>
0

>  <Rbt.Current_Directory>
/home/fc/tossine/F10/p3/0_clust01

>  <Rbt.Executable>
rbdock/0.1.0

>  <Rbt.Library>
librxdock.so/0.1.0

>  <Rbt.Parameter_File>
/cluster/rxdock/data/scripts/dock.prm

>  <Rbt.Receptor>
rx_1.prm

>  <SCORE>
35.5942

>  <SCORE.INTER>
10.2161

>  <SCORE.INTER.CONST>
1

>  <SCORE.INTER.POLAR>
-1.78561

>  <SCORE.INTER.REPUL>
1.32759

>  <SCORE.INTER.ROT>
32

>  <SCORE.INTER.VDW>
-27.7508

>  <SCORE.INTER.norm>
0.204322

>  <SCORE.INTRA>
21.2918

>  <SCORE.INTRA.DIHEDRAL>
25.8786

>  <SCORE.INTRA.DIHEDRAL.0>
47.3121

>  <SCORE.INTRA.POLAR>
0.837847

>  <SCORE.INTRA.POLAR.0>
-1.47808

>  <SCORE.INTRA.REPUL>
0.00463724

>  <SCORE.INTRA.REPUL.0>
0

>  <SCORE.INTRA.VDW>
5.48067

>  <SCORE.INTRA.VDW.0>
-2.78316

>  <SCORE.INTRA.norm>
0.425837

>  <SCORE.RESTR>
4.08628

>  <SCORE.RESTR.CAVITY>
4.08628

>  <SCORE.RESTR.norm>
0.0817257

>  <SCORE.SYSTEM>
0

>  <SCORE.SYSTEM.CONST>
0

>  <SCORE.SYSTEM.DIHEDRAL>
0

>  <SCORE.SYSTEM.norm>
0

>  <SCORE.heavy>
50

>  <SCORE.norm>
0.711884

$$$$
