FB1.pdb
  RxDock  10062018223D
librxdock.so/0.1.0
 59 58  0  0  0  0  0  0  0  0999 V2000
    7.2184   -0.0008   -6.4045 C   0  0  0  0  0  0
    5.8349    0.6450   -6.4063 C   0  0  0  0  0  0
    4.7388   -0.3580   -6.8023 C   0  0  0  0  0  0
    4.5676   -0.5129   -8.3341 C   0  0  0  0  0  0
    4.6209   -1.9898   -8.8598 C   0  0  0  0  0  0
    5.9985   -2.5870   -8.4909 C   0  0  0  0  0  0
    3.4426   -2.9000   -8.3113 C   0  0  0  0  0  0
    3.8560   -4.1523   -7.4019 C   0  0  0  0  0  0
    4.9242   -5.2603   -7.8014 C   0  0  0  0  0  0
    4.6029   -6.0684   -9.2032 C   0  0  0  0  0  0
    5.5877   -7.2294   -9.3304 C   0  0  0  0  0  0
    3.1124   -6.6098   -9.3769 C   0  0  0  0  0  0
    2.4748   -7.0756  -10.7894 C   0  0  0  0  0  0
    1.3529   -8.1655  -10.8860 C   0  0  0  0  0  0
   -0.0249   -7.9039  -10.1229 C   0  0  0  0  0  0
   -0.2385   -8.1246   -8.5737 C   0  0  0  0  0  0
    0.0179   -9.5258   -7.9585 C   0  0  0  0  0  0
   -0.3953   -9.7197   -6.4483 C   0  0  0  0  0  0
    0.5551   -9.1243   -5.4020 C   0  0  0  0  0  0
    1.3102  -10.0978   -4.4531 C   0  0  0  0  0  0
    2.5996   -9.6380   -3.7105 C   0  0  0  0  0  0
    3.6599  -10.7037   -3.4707 C   0  0  0  0  0  0
    3.1842   -8.4492   -4.3596 N   0  0  0  0  0  0
    0.3580  -10.3982   -3.4011 O   0  0  0  0  0  0
   -1.6918   -9.1399   -6.2672 O   0  0  0  0  0  0
    1.8892   -5.8843  -11.3413 O   0  0  0  0  0  0
    4.3591   -3.6005   -6.1550 O   0  0  0  0  0  0
    3.4565   -2.9964   -5.3391 C   0  0  0  0  0  0
    2.2905   -2.7686   -5.5999 O   0  0  0  0  0  0
    4.1116   -2.7432   -4.0094 C   0  0  0  0  0  0
    3.3267   -3.3557   -2.8384 C   0  0  0  0  0  0
    3.8692   -2.9165   -1.4723 C   0  0  0  0  0  0
    2.7493   -2.4843   -0.5544 C   0  0  0  0  0  0
    2.4743   -1.3114   -0.3256 O   0  0  0  0  0  0
    2.0781   -3.5103   -0.0107 O   0  0  0  0  0  0
    1.8776   -2.8784   -3.0063 C   0  0  0  0  0  0
    0.9574   -3.6285   -3.2944 O   0  0  0  0  0  0
    1.7101   -1.5569   -2.8591 O   0  0  0  0  0  0
    2.3832   -2.0792   -7.6758 O   0  0  0  0  0  0
    1.4156   -1.5094   -8.4865 C   0  0  0  0  0  0
    0.2501   -1.3296   -8.1585 O   0  0  0  0  0  0
    1.9649   -1.1184   -9.8648 C   0  0  0  0  0  0
    1.2579    0.0871  -10.5587 C   0  0  0  0  0  0
    1.6926    1.5087  -10.1583 C   0  0  0  0  0  0
    1.9209    1.6583   -8.6818 C   0  0  0  0  0  0
    1.8587    0.7585   -7.8554 O   0  0  0  0  0  0
    2.2309    2.9170   -8.3354 O   0  0  0  0  0  0
    1.2556    0.0289  -12.0913 C   0  0  0  0  0  0
    1.5669    0.9744  -12.7883 O   0  0  0  0  0  0
    0.9866   -1.1812  -12.6248 O   0  0  0  0  0  0
    3.9922   -8.1383   -3.8219 H   0  0  0  0  0  0
    2.5139   -7.6797   -4.2965 H   0  0  0  0  0  0
   -0.4288  -10.7453   -3.8722 H   0  0  0  0  0  0
   -1.8247   -8.9837   -5.3140 H   0  0  0  0  0  0
    2.1515   -5.1337  -10.7825 H   0  0  0  0  0  0
    1.5012   -3.2785    0.7423 H   0  0  0  0  0  0
    0.8075   -1.2290   -3.0971 H   0  0  0  0  0  0
    2.1021    3.4688   -9.1355 H   0  0  0  0  0  0
    0.7732   -1.8879  -11.9758 H   0  0  0  0  0  0
  1  2  1  0  0  0
  2  3  1  0  0  0
  3  4  1  0  0  0
  4  5  1  0  0  0
  5  6  1  0  0  0
  5  7  1  0  0  0
  7  8  1  0  0  0
  7 39  1  0  0  0
  8  9  1  0  0  0
  8 27  1  0  0  0
  9 10  1  0  0  0
 10 11  1  0  0  0
 10 12  1  0  0  0
 12 13  1  0  0  0
 13 14  1  0  0  0
 13 26  1  0  0  0
 14 15  1  0  0  0
 15 16  1  0  0  0
 16 17  1  0  0  0
 17 18  1  0  0  0
 18 19  1  0  0  0
 18 25  1  0  0  0
 19 20  1  0  0  0
 20 21  1  0  0  0
 20 24  1  0  0  0
 21 22  1  0  0  0
 21 23  1  0  0  0
 23 51  1  0  0  0
 23 52  1  0  0  0
 24 53  1  0  0  0
 25 54  1  0  0  0
 26 55  1  0  0  0
 27 28  1  0  0  0
 28 29  2  0  0  0
 28 30  1  0  0  0
 30 31  1  0  0  0
 31 32  1  0  0  0
 31 36  1  0  0  0
 32 33  1  0  0  0
 33 34  2  0  0  0
 33 35  1  0  0  0
 35 56  1  0  0  0
 36 37  2  0  0  0
 36 38  1  0  0  0
 38 57  1  0  0  0
 39 40  1  0  0  0
 40 41  2  0  0  0
 40 42  1  0  0  0
 42 43  1  0  0  0
 43 44  1  0  0  0
 43 48  1  0  0  0
 44 45  1  0  0  0
 45 46  2  0  0  0
 45 47  1  0  0  0
 47 58  1  0  0  0
 48 49  2  0  0  0
 48 50  1  0  0  0
 50 59  1  0  0  0
M  END
>  <AUTHOR>
    GENERATED BY OPEN BABEL 2.4.1

>  <CHROM.1>
-84.02974314,127.67014340,-60.17165712,-117.20935947,-52.21898057,83.61299711
-57.88454650,69.10882738,-171.29754115,163.42630901,150.94882121,59.36712147
7.98477938,-79.44438777,-58.26293425,-172.24717863,-77.34100290,-114.21866571
-161.21308629,159.87087012,-146.94194368,55.89431695,176.65883677,-6.86006914
-124.66470786,-171.06853019,133.13216941,111.83846632,-101.97665190,165.78729702
171.39948138,146.83097729,-151.12873900,82.69320383,-41.05779533,-132.33723855
4.17808768,8.17929803,3.10799265,2.47966636,-3.87385511,-6.90301438,-0.94403319
1.33348651,2.10399171

>  <COMPND>
    UNNAMED

>  <MASTER>
        0    0    0    0    0    0    0    0  109    0  109    0

>  <Name>
FB1.pdb

>  <RI>
0

>  <Rbt.Current_Directory>
/home/fc/tossine/F10/p3/0_clust01

>  <Rbt.Executable>
rbdock/0.1.0

>  <Rbt.Library>
librxdock.so/0.1.0

>  <Rbt.Parameter_File>
/cluster/rxdock/data/scripts/dock.prm

>  <Rbt.Receptor>
rx_4.prm

>  <SCORE>
69.5045

>  <SCORE.INTER>
20.3092

>  <SCORE.INTER.CONST>
1

>  <SCORE.INTER.POLAR>
-1.28432

>  <SCORE.INTER.REPUL>
1.64172

>  <SCORE.INTER.ROT>
32

>  <SCORE.INTER.VDW>
-20.9327

>  <SCORE.INTER.norm>
0.406184

>  <SCORE.INTRA>
34.8962

>  <SCORE.INTRA.DIHEDRAL>
22.3255

>  <SCORE.INTRA.DIHEDRAL.0>
47.3121

>  <SCORE.INTRA.POLAR>
1.47808

>  <SCORE.INTRA.POLAR.0>
-1.47808

>  <SCORE.INTRA.REPUL>
0

>  <SCORE.INTRA.REPUL.0>
0

>  <SCORE.INTRA.VDW>
18.708

>  <SCORE.INTRA.VDW.0>
-2.78316

>  <SCORE.INTRA.norm>
0.697924

>  <SCORE.RESTR>
14.2991

>  <SCORE.RESTR.CAVITY>
14.2991

>  <SCORE.RESTR.norm>
0.285981

>  <SCORE.SYSTEM>
0

>  <SCORE.SYSTEM.CONST>
0

>  <SCORE.SYSTEM.DIHEDRAL>
0

>  <SCORE.SYSTEM.norm>
0

>  <SCORE.heavy>
50

>  <SCORE.norm>
1.39009

$$$$
