FB1.pdb
  RxDock  10062017243D
librxdock.so/0.1.0
 59 58  0  0  0  0  0  0  0  0999 V2000
  -10.8477   -7.6150   14.5085 C   0  0  0  0  0  0
  -11.1094   -6.1951   15.0054 C   0  0  0  0  0  0
  -10.7627   -5.1450   13.9370 C   0  0  0  0  0  0
  -11.5172   -5.3519   12.6000 C   0  0  0  0  0  0
  -10.6684   -5.0714   11.3111 C   0  0  0  0  0  0
   -9.7690   -6.3005   11.0450 C   0  0  0  0  0  0
  -11.5481   -4.7253   10.0366 C   0  0  0  0  0  0
  -11.9440   -3.1877    9.8238 C   0  0  0  0  0  0
  -10.9123   -1.9812    9.7334 C   0  0  0  0  0  0
   -9.8218   -1.8994   10.9685 C   0  0  0  0  0  0
   -8.6959   -0.9512   10.5595 C   0  0  0  0  0  0
  -10.4002   -1.4615   12.3893 C   0  0  0  0  0  0
  -11.2394   -0.1023   12.6478 C   0  0  0  0  0  0
  -10.5447    1.2856   12.8648 C   0  0  0  0  0  0
  -10.9013    2.4760   11.8623 C   0  0  0  0  0  0
  -10.8765    2.3497   10.2882 C   0  0  0  0  0  0
   -9.5698    1.9092    9.5769 C   0  0  0  0  0  0
   -8.3372    2.8867    9.6970 C   0  0  0  0  0  0
   -8.0142    3.4029   11.1047 C   0  0  0  0  0  0
   -7.0683    4.6297   11.2412 C   0  0  0  0  0  0
   -7.4065    5.9727   10.5288 C   0  0  0  0  0  0
   -8.8767    6.2292   10.2291 C   0  0  0  0  0  0
   -6.8079    7.1138   11.2472 N   0  0  0  0  0  0
   -7.0754    4.9437   12.6572 O   0  0  0  0  0  0
   -7.1845    2.2088    9.1856 O   0  0  0  0  0  0
  -12.0475    0.0626   11.4704 O   0  0  0  0  0  0
  -12.6793   -3.1270    8.5716 O   0  0  0  0  0  0
  -13.6637   -2.1955    8.4788 C   0  0  0  0  0  0
  -14.2334   -1.6559    9.4081 O   0  0  0  0  0  0
  -13.8675   -1.8613    7.0268 C   0  0  0  0  0  0
  -13.0090   -0.6714    6.5688 C   0  0  0  0  0  0
  -12.5633   -0.7957    5.1062 C   0  0  0  0  0  0
  -11.2893   -0.0222    4.8571 C   0  0  0  0  0  0
  -10.2051   -0.3264    5.3427 O   0  0  0  0  0  0
  -11.4553    1.0347    4.0481 O   0  0  0  0  0  0
  -13.8869    0.5751    6.7463 C   0  0  0  0  0  0
  -15.0819    0.5195    6.9937 O   0  0  0  0  0  0
  -13.2438    1.7357    6.5584 O   0  0  0  0  0  0
  -10.9703   -5.3239    8.8087 O   0  0  0  0  0  0
  -11.3503   -6.6093    8.4604 C   0  0  0  0  0  0
  -10.6146   -7.4348    7.9354 O   0  0  0  0  0  0
  -12.8166   -6.8989    8.8074 C   0  0  0  0  0  0
  -13.1368   -8.3682    9.2236 C   0  0  0  0  0  0
  -12.7772   -9.4941    8.2370 C   0  0  0  0  0  0
  -13.8654   -9.7699    7.2398 C   0  0  0  0  0  0
  -14.9716   -9.2475    7.2280 O   0  0  0  0  0  0
  -13.4956  -10.6649    6.3111 O   0  0  0  0  0  0
  -12.5874   -8.7762   10.5962 C   0  0  0  0  0  0
  -11.9567   -8.0186   11.3068 O   0  0  0  0  0  0
  -12.9413  -10.0080   11.0190 O   0  0  0  0  0  0
   -6.1713    6.7623   11.9611 H   0  0  0  0  0  0
   -7.5452    7.5962   11.7660 H   0  0  0  0  0  0
   -7.9895    5.2490   12.8377 H   0  0  0  0  0  0
   -7.0156    2.5350    8.2825 H   0  0  0  0  0  0
  -12.6967    0.7640   11.6470 H   0  0  0  0  0  0
  -10.6410    1.5314    3.8392 H   0  0  0  0  0  0
  -12.3843    1.6547    6.0752 H   0  0  0  0  0  0
  -12.6447  -11.0476    6.6123 H   0  0  0  0  0  0
  -13.5841  -10.4803   10.4446 H   0  0  0  0  0  0
  1  2  1  0  0  0
  2  3  1  0  0  0
  3  4  1  0  0  0
  4  5  1  0  0  0
  5  6  1  0  0  0
  5  7  1  0  0  0
  7  8  1  0  0  0
  7 39  1  0  0  0
  8  9  1  0  0  0
  8 27  1  0  0  0
  9 10  1  0  0  0
 10 11  1  0  0  0
 10 12  1  0  0  0
 12 13  1  0  0  0
 13 14  1  0  0  0
 13 26  1  0  0  0
 14 15  1  0  0  0
 15 16  1  0  0  0
 16 17  1  0  0  0
 17 18  1  0  0  0
 18 19  1  0  0  0
 18 25  1  0  0  0
 19 20  1  0  0  0
 20 21  1  0  0  0
 20 24  1  0  0  0
 21 22  1  0  0  0
 21 23  1  0  0  0
 23 51  1  0  0  0
 23 52  1  0  0  0
 24 53  1  0  0  0
 25 54  1  0  0  0
 26 55  1  0  0  0
 27 28  1  0  0  0
 28 29  2  0  0  0
 28 30  1  0  0  0
 30 31  1  0  0  0
 31 32  1  0  0  0
 31 36  1  0  0  0
 32 33  1  0  0  0
 33 34  2  0  0  0
 33 35  1  0  0  0
 35 56  1  0  0  0
 36 37  2  0  0  0
 36 38  1  0  0  0
 38 57  1  0  0  0
 39 40  1  0  0  0
 40 41  2  0  0  0
 40 42  1  0  0  0
 42 43  1  0  0  0
 43 44  1  0  0  0
 43 48  1  0  0  0
 44 45  1  0  0  0
 45 46  2  0  0  0
 45 47  1  0  0  0
 47 58  1  0  0  0
 48 49  2  0  0  0
 48 50  1  0  0  0
 50 59  1  0  0  0
M  END
>  <AUTHOR>
    GENERATED BY OPEN BABEL 2.4.1

>  <CHROM.1>
56.57877994,-141.07986549,79.21505813,87.63545638,55.85494254,88.59444149
-51.68493901,147.24391271,165.04548016,-54.76333731,-82.18938825,121.42738089
168.99832283,-49.89813785,-57.24622258,-64.62086920,47.95975910,-164.48301020
101.21761299,56.71144657,25.18709281,-66.78884908,9.65656257,-20.84793333
-91.62942476,147.09094059,-154.57021989,-10.55899989,67.27994310,-177.53160496
17.42668293,-144.74604164,-146.92109539,-56.92054113,-87.24791826,0.19814002
-4.80804570,10.22148639,-5.70313175,-11.20088288,-2.21500540,9.61014721,-2.21866854
-1.06679014,-0.52514735

>  <COMPND>
    UNNAMED

>  <MASTER>
        0    0    0    0    0    0    0    0  109    0  109    0

>  <Name>
FB1.pdb

>  <RI>
0

>  <Rbt.Current_Directory>
/home/fc/tossine/F10/p3/0_clust01

>  <Rbt.Executable>
rbdock/0.1.0

>  <Rbt.Library>
librxdock.so/0.1.0

>  <Rbt.Parameter_File>
/cluster/rxdock/data/scripts/dock.prm

>  <Rbt.Receptor>
rx_2.prm

>  <SCORE>
40.7525

>  <SCORE.INTER>
9.55119

>  <SCORE.INTER.CONST>
1

>  <SCORE.INTER.POLAR>
-1.35339

>  <SCORE.INTER.REPUL>
0.863465

>  <SCORE.INTER.ROT>
32

>  <SCORE.INTER.VDW>
-27.5646

>  <SCORE.INTER.norm>
0.191024

>  <SCORE.INTRA>
22.8014

>  <SCORE.INTRA.DIHEDRAL>
23.3032

>  <SCORE.INTRA.DIHEDRAL.0>
47.3121

>  <SCORE.INTRA.POLAR>
1.33173

>  <SCORE.INTRA.POLAR.0>
-1.47808

>  <SCORE.INTRA.REPUL>
0

>  <SCORE.INTRA.REPUL.0>
0

>  <SCORE.INTRA.VDW>
6.62188

>  <SCORE.INTRA.VDW.0>
-2.78316

>  <SCORE.INTRA.norm>
0.456028

>  <SCORE.RESTR>
8.39998

>  <SCORE.RESTR.CAVITY>
8.39998

>  <SCORE.RESTR.norm>
0.168

>  <SCORE.SYSTEM>
0

>  <SCORE.SYSTEM.CONST>
0

>  <SCORE.SYSTEM.DIHEDRAL>
0

>  <SCORE.SYSTEM.norm>
0

>  <SCORE.heavy>
50

>  <SCORE.norm>
0.815051

$$$$
