FB1.pdb
  RxDock  10062015503D
librxdock.so/0.1.0
 59 58  0  0  0  0  0  0  0  0999 V2000
  -14.1112   -9.5662   13.7036 C   0  0  0  0  0  0
  -13.9799   -8.9073   12.3324 C   0  0  0  0  0  0
  -14.1745   -7.3842   12.4117 C   0  0  0  0  0  0
  -14.4596   -6.7258   11.0387 C   0  0  0  0  0  0
  -13.4078   -7.0466    9.9201 C   0  0  0  0  0  0
  -14.1620   -7.5997    8.6889 C   0  0  0  0  0  0
  -12.5072   -5.8023    9.5221 C   0  0  0  0  0  0
  -13.2523   -4.5510    8.8548 C   0  0  0  0  0  0
  -12.9586   -3.0251    9.1917 C   0  0  0  0  0  0
  -13.7777   -2.4257   10.4922 C   0  0  0  0  0  0
  -14.4947   -3.5812   11.1884 C   0  0  0  0  0  0
  -12.9096   -1.6153   11.5573 C   0  0  0  0  0  0
  -11.6422   -2.2316   12.3526 C   0  0  0  0  0  0
  -10.6539   -1.3390   13.1788 C   0  0  0  0  0  0
   -9.5954   -0.4460   12.3843 C   0  0  0  0  0  0
   -9.9766    0.5878   11.2526 C   0  0  0  0  0  0
  -10.5759    1.9642   11.6448 C   0  0  0  0  0  0
   -9.8319    3.2410   11.0921 C   0  0  0  0  0  0
   -9.0892    4.0956   12.1267 C   0  0  0  0  0  0
   -7.5549    4.2866   11.9607 C   0  0  0  0  0  0
   -6.9801    5.0347   10.7216 C   0  0  0  0  0  0
   -7.5275    6.4307   10.4589 C   0  0  0  0  0  0
   -5.5051    5.0436   10.7507 N   0  0  0  0  0  0
   -7.1589    5.0902   13.1014 O   0  0  0  0  0  0
   -8.8937    2.8106   10.1000 O   0  0  0  0  0  0
  -12.2125   -3.1426   13.3074 O   0  0  0  0  0  0
  -13.0190   -4.6549    7.4240 O   0  0  0  0  0  0
  -12.9267   -3.4920    6.7280 C   0  0  0  0  0  0
  -12.1249   -2.5985    6.9232 O   0  0  0  0  0  0
  -13.9208   -3.5319    5.6004 C   0  0  0  0  0  0
  -14.4991   -2.1458    5.2738 C   0  0  0  0  0  0
  -14.7339   -1.2953    6.5288 C   0  0  0  0  0  0
  -15.7229   -0.1855    6.2580 C   0  0  0  0  0  0
  -15.5783    0.9646    6.6583 O   0  0  0  0  0  0
  -16.7805   -0.5775    5.5323 O   0  0  0  0  0  0
  -13.4699   -1.4635    4.3620 C   0  0  0  0  0  0
  -12.2813   -1.7457    4.3697 O   0  0  0  0  0  0
  -13.9746   -0.4934    3.5873 O   0  0  0  0  0  0
  -11.6339   -5.3914   10.6483 O   0  0  0  0  0  0
  -11.1130   -6.3757   11.4716 C   0  0  0  0  0  0
  -11.4367   -7.5557   11.4369 O   0  0  0  0  0  0
  -10.0676   -5.8252   12.4505 C   0  0  0  0  0  0
  -10.2949   -6.1779   13.9533 C   0  0  0  0  0  0
  -11.3001   -5.3278   14.7517 C   0  0  0  0  0  0
  -10.6361   -4.3507   15.6785 C   0  0  0  0  0  0
  -10.6760   -4.3863   16.9006 O   0  0  0  0  0  0
   -9.9497   -3.4042   15.0202 O   0  0  0  0  0  0
  -10.6353   -7.6497   14.2185 C   0  0  0  0  0  0
  -11.7714   -8.0799   14.1912 O   0  0  0  0  0  0
   -9.5754   -8.4692   14.3812 O   0  0  0  0  0  0
   -5.1904    5.5380   11.5844 H   0  0  0  0  0  0
   -5.1663    5.6063    9.9671 H   0  0  0  0  0  0
   -7.8130    5.8201   13.1280 H   0  0  0  0  0  0
   -8.5613    3.5993    9.6331 H   0  0  0  0  0  0
  -12.6237   -2.6182   14.0148 H   0  0  0  0  0  0
  -17.0545   -1.5055    5.6630 H   0  0  0  0  0  0
  -13.3513   -0.1526    2.8987 H   0  0  0  0  0  0
   -9.6031   -2.7858   15.6974 H   0  0  0  0  0  0
   -9.7383   -9.2595   14.9424 H   0  0  0  0  0  0
  1  2  1  0  0  0
  2  3  1  0  0  0
  3  4  1  0  0  0
  4  5  1  0  0  0
  5  6  1  0  0  0
  5  7  1  0  0  0
  7  8  1  0  0  0
  7 39  1  0  0  0
  8  9  1  0  0  0
  8 27  1  0  0  0
  9 10  1  0  0  0
 10 11  1  0  0  0
 10 12  1  0  0  0
 12 13  1  0  0  0
 13 14  1  0  0  0
 13 26  1  0  0  0
 14 15  1  0  0  0
 15 16  1  0  0  0
 16 17  1  0  0  0
 17 18  1  0  0  0
 18 19  1  0  0  0
 18 25  1  0  0  0
 19 20  1  0  0  0
 20 21  1  0  0  0
 20 24  1  0  0  0
 21 22  1  0  0  0
 21 23  1  0  0  0
 23 51  1  0  0  0
 23 52  1  0  0  0
 24 53  1  0  0  0
 25 54  1  0  0  0
 26 55  1  0  0  0
 27 28  1  0  0  0
 28 29  2  0  0  0
 28 30  1  0  0  0
 30 31  1  0  0  0
 31 32  1  0  0  0
 31 36  1  0  0  0
 32 33  1  0  0  0
 33 34  2  0  0  0
 33 35  1  0  0  0
 35 56  1  0  0  0
 36 37  2  0  0  0
 36 38  1  0  0  0
 38 57  1  0  0  0
 39 40  1  0  0  0
 40 41  2  0  0  0
 40 42  1  0  0  0
 42 43  1  0  0  0
 43 44  1  0  0  0
 43 48  1  0  0  0
 44 45  1  0  0  0
 45 46  2  0  0  0
 45 47  1  0  0  0
 47 58  1  0  0  0
 48 49  2  0  0  0
 48 50  1  0  0  0
 50 59  1  0  0  0
M  END
>  <AUTHOR>
    GENERATED BY OPEN BABEL 2.4.1

>  <CHROM.1>
-163.26573401,-53.69060183,126.41667262,-64.23334091,138.20228101,35.85446516
-85.53683428,-147.76133045,7.93086493,-58.61799737,168.07984008,-74.97247652
-73.65298566,54.36699704,76.91222218,125.00640222,-110.41163000,119.78259163
168.93495849,64.09696821,54.31621445,-47.41751505,-61.54712224,58.68937153
146.90716118,-37.73034180,-159.80058156,-25.72767667,-137.12073006,31.35442298
-170.64787818,-8.69445500,128.02684351,-81.33175881,-104.20649251,-87.65026439
-113.26992719,176.45435669,152.40522053,-11.76696923,-2.58336774,10.56164824
-2.10364409,-0.93237634,-0.62866649

>  <COMPND>
    UNNAMED

>  <MASTER>
        0    0    0    0    0    0    0    0  109    0  109    0

>  <Name>
FB1.pdb

>  <RI>
0

>  <Rbt.Current_Directory>
/home/fc/tossine/F10/p3/0_clust01

>  <Rbt.Executable>
rbdock/0.1.0

>  <Rbt.Library>
librxdock.so/0.1.0

>  <Rbt.Parameter_File>
/cluster/rxdock/data/scripts/dock.prm

>  <Rbt.Receptor>
rx_0.prm

>  <SCORE>
71.8195

>  <SCORE.INTER>
20.4494

>  <SCORE.INTER.CONST>
1

>  <SCORE.INTER.POLAR>
-2.67071

>  <SCORE.INTER.REPUL>
0.587587

>  <SCORE.INTER.ROT>
32

>  <SCORE.INTER.VDW>
-10.8081

>  <SCORE.INTER.norm>
0.408988

>  <SCORE.INTRA>
45.1213

>  <SCORE.INTRA.DIHEDRAL>
52.4193

>  <SCORE.INTRA.DIHEDRAL.0>
47.3121

>  <SCORE.INTRA.POLAR>
1.47808

>  <SCORE.INTRA.POLAR.0>
-1.47808

>  <SCORE.INTRA.REPUL>
0

>  <SCORE.INTRA.REPUL.0>
0

>  <SCORE.INTRA.VDW>
13.8861

>  <SCORE.INTRA.VDW.0>
-2.78316

>  <SCORE.INTRA.norm>
0.902425

>  <SCORE.RESTR>
6.24884

>  <SCORE.RESTR.CAVITY>
6.24884

>  <SCORE.RESTR.norm>
0.124977

>  <SCORE.SYSTEM>
0

>  <SCORE.SYSTEM.CONST>
0

>  <SCORE.SYSTEM.DIHEDRAL>
0

>  <SCORE.SYSTEM.norm>
0

>  <SCORE.heavy>
50

>  <SCORE.norm>
1.43639

$$$$
