FB1.pdb
  RxDock  10062017533D
librxdock.so/0.1.0
 59 58  0  0  0  0  0  0  0  0999 V2000
   -6.8468  -11.1060    4.0124 C   0  0  0  0  0  0
   -5.7266  -10.5477    3.1379 C   0  0  0  0  0  0
   -4.5595  -10.0097    3.9821 C   0  0  0  0  0  0
   -4.2551  -10.8698    5.2340 C   0  0  0  0  0  0
   -3.2039  -12.0126    5.0118 C   0  0  0  0  0  0
   -3.6822  -12.8895    3.8316 C   0  0  0  0  0  0
   -1.7309  -11.4783    4.7613 C   0  0  0  0  0  0
   -0.5262  -12.4453    5.1851 C   0  0  0  0  0  0
    0.8757  -12.5407    4.4409 C   0  0  0  0  0  0
    1.7010  -11.1176    4.3189 C   0  0  0  0  0  0
    2.2769  -10.7716    5.6910 C   0  0  0  0  0  0
    2.8606  -11.0690    3.2244 C   0  0  0  0  0  0
    2.6707  -11.5149    1.6805 C   0  0  0  0  0  0
    2.6362  -10.4791    0.5049 C   0  0  0  0  0  0
    2.5518  -11.0328   -0.9902 C   0  0  0  0  0  0
    3.2605  -10.3571   -2.2294 C   0  0  0  0  0  0
    3.2206  -11.0619   -3.6111 C   0  0  0  0  0  0
    1.9212  -10.8414   -4.4784 C   0  0  0  0  0  0
    1.6681   -9.4112   -4.9714 C   0  0  0  0  0  0
    0.2701   -9.0712   -5.5614 C   0  0  0  0  0  0
   -0.1157   -9.5314   -6.9984 C   0  0  0  0  0  0
   -1.4849   -9.0987   -7.5037 C   0  0  0  0  0  0
    0.9400   -9.1752   -7.9654 N   0  0  0  0  0  0
   -0.6715   -9.7433   -4.6865 O   0  0  0  0  0  0
    1.9969  -11.7078   -5.6156 O   0  0  0  0  0  0
    3.7965  -12.3636    1.3998 O   0  0  0  0  0  0
   -0.1842  -12.0929    6.5530 O   0  0  0  0  0  0
   -1.0841  -11.3423    7.2400 C   0  0  0  0  0  0
   -1.9034  -11.7540    8.0392 O   0  0  0  0  0  0
   -0.8339   -9.8932    6.9255 C   0  0  0  0  0  0
   -1.9931   -8.9849    7.3658 C   0  0  0  0  0  0
   -1.6121   -8.0701    8.5369 C   0  0  0  0  0  0
   -1.6720   -8.8135    9.8511 C   0  0  0  0  0  0
   -0.8785   -8.6340   10.7687 O   0  0  0  0  0  0
   -2.6820   -9.6931    9.9219 O   0  0  0  0  0  0
   -2.3577   -8.1406    6.1369 C   0  0  0  0  0  0
   -3.4860   -8.0937    5.6708 O   0  0  0  0  0  0
   -1.3226   -7.4940    5.5833 O   0  0  0  0  0  0
   -1.5737  -10.9711    3.3764 O   0  0  0  0  0  0
   -0.6626   -9.9536    3.1466 C   0  0  0  0  0  0
   -0.3075   -9.1346    3.9841 O   0  0  0  0  0  0
   -0.1328   -9.9586    1.7066 C   0  0  0  0  0  0
   -1.1327   -9.4652    0.6152 C   0  0  0  0  0  0
   -1.7936  -10.5204   -0.2904 C   0  0  0  0  0  0
   -1.5295  -10.2887   -1.7502 C   0  0  0  0  0  0
   -0.8710  -11.0165   -2.4805 O   0  0  0  0  0  0
   -2.1204   -9.1745   -2.2081 O   0  0  0  0  0  0
   -2.2499   -8.5543    1.1391 C   0  0  0  0  0  0
   -2.5919   -8.5325    2.3049 O   0  0  0  0  0  0
   -2.7644   -7.6914    0.2379 O   0  0  0  0  0  0
    1.8118   -9.6247   -7.6889 H   0  0  0  0  0  0
    1.1257   -8.1724   -7.8916 H   0  0  0  0  0  0
   -0.2857   -9.6492   -3.7901 H   0  0  0  0  0  0
    2.0892  -12.6237   -5.2947 H   0  0  0  0  0  0
    3.7090  -13.1675    1.9390 H   0  0  0  0  0  0
   -2.5895  -10.4804    9.3519 H   0  0  0  0  0  0
   -0.4509   -7.6673    6.0180 H   0  0  0  0  0  0
   -1.9948   -9.1687   -3.1805 H   0  0  0  0  0  0
   -2.3345   -7.7019   -0.6460 H   0  0  0  0  0  0
  1  2  1  0  0  0
  2  3  1  0  0  0
  3  4  1  0  0  0
  4  5  1  0  0  0
  5  6  1  0  0  0
  5  7  1  0  0  0
  7  8  1  0  0  0
  7 39  1  0  0  0
  8  9  1  0  0  0
  8 27  1  0  0  0
  9 10  1  0  0  0
 10 11  1  0  0  0
 10 12  1  0  0  0
 12 13  1  0  0  0
 13 14  1  0  0  0
 13 26  1  0  0  0
 14 15  1  0  0  0
 15 16  1  0  0  0
 16 17  1  0  0  0
 17 18  1  0  0  0
 18 19  1  0  0  0
 18 25  1  0  0  0
 19 20  1  0  0  0
 20 21  1  0  0  0
 20 24  1  0  0  0
 21 22  1  0  0  0
 21 23  1  0  0  0
 23 51  1  0  0  0
 23 52  1  0  0  0
 24 53  1  0  0  0
 25 54  1  0  0  0
 26 55  1  0  0  0
 27 28  1  0  0  0
 28 29  2  0  0  0
 28 30  1  0  0  0
 30 31  1  0  0  0
 31 32  1  0  0  0
 31 36  1  0  0  0
 32 33  1  0  0  0
 33 34  2  0  0  0
 33 35  1  0  0  0
 35 56  1  0  0  0
 36 37  2  0  0  0
 36 38  1  0  0  0
 38 57  1  0  0  0
 39 40  1  0  0  0
 40 41  2  0  0  0
 40 42  1  0  0  0
 42 43  1  0  0  0
 43 44  1  0  0  0
 43 48  1  0  0  0
 44 45  1  0  0  0
 45 46  2  0  0  0
 45 47  1  0  0  0
 47 58  1  0  0  0
 48 49  2  0  0  0
 48 50  1  0  0  0
 50 59  1  0  0  0
M  END
>  <AUTHOR>
    GENERATED BY OPEN BABEL 2.4.1

>  <CHROM.1>
38.21415542,90.53872562,-54.87860366,152.57347142,146.99427983,150.30300701
56.56412434,15.33539804,74.03548937,50.46301759,108.18543249,175.57829648
66.23570723,-144.77864342,174.09759148,82.70603939,65.60741071,-167.12848346
57.42427726,-76.34514589,-177.55390541,37.43098610,59.45260335,98.74469373
165.90064206,111.24243847,-79.96243678,124.81612843,142.89335216,69.92150760
1.98297608,-26.02326351,73.37048557,-104.72176723,-122.16377017,-21.38981212
113.64727938,-172.68395383,-3.31376357,-0.76137556,-10.20120714,2.04598159
1.79856274,-0.25536596,1.62597970

>  <COMPND>
    UNNAMED

>  <MASTER>
        0    0    0    0    0    0    0    0  109    0  109    0

>  <Name>
FB1.pdb

>  <RI>
0

>  <Rbt.Current_Directory>
/home/fc/tossine/F10/p3/0_clust01

>  <Rbt.Executable>
rbdock/0.1.0

>  <Rbt.Library>
librxdock.so/0.1.0

>  <Rbt.Parameter_File>
/cluster/rxdock/data/scripts/dock.prm

>  <Rbt.Receptor>
rx_3.prm

>  <SCORE>
45.5049

>  <SCORE.INTER>
7.59586

>  <SCORE.INTER.CONST>
1

>  <SCORE.INTER.POLAR>
-1.29972

>  <SCORE.INTER.REPUL>
0.416099

>  <SCORE.INTER.ROT>
32

>  <SCORE.INTER.VDW>
-27.4656

>  <SCORE.INTER.norm>
0.151917

>  <SCORE.INTRA>
32.215

>  <SCORE.INTRA.DIHEDRAL>
60.7251

>  <SCORE.INTRA.DIHEDRAL.0>
47.3121

>  <SCORE.INTRA.POLAR>
-0.859207

>  <SCORE.INTRA.POLAR.0>
-1.47808

>  <SCORE.INTRA.REPUL>
0

>  <SCORE.INTRA.REPUL.0>
0

>  <SCORE.INTRA.VDW>
4.77373

>  <SCORE.INTRA.VDW.0>
-2.78316

>  <SCORE.INTRA.norm>
0.644299

>  <SCORE.RESTR>
5.69408

>  <SCORE.RESTR.CAVITY>
5.69408

>  <SCORE.RESTR.norm>
0.113882

>  <SCORE.SYSTEM>
0

>  <SCORE.SYSTEM.CONST>
0

>  <SCORE.SYSTEM.DIHEDRAL>
0

>  <SCORE.SYSTEM.norm>
0

>  <SCORE.heavy>
50

>  <SCORE.norm>
0.910098

$$$$
