FB1.pdb
  RxDock  10062016403D
librxdock.so/0.1.0
 59 58  0  0  0  0  0  0  0  0999 V2000
  -11.3023   -3.8901   13.1294 C   0  0  0  0  0  0
  -12.6321   -4.2583   12.4757 C   0  0  0  0  0  0
  -13.0834   -3.1923   11.4636 C   0  0  0  0  0  0
  -13.1269   -1.7604   12.0530 C   0  0  0  0  0  0
  -12.2282   -0.7115   11.3096 C   0  0  0  0  0  0
  -11.1285   -0.2352   12.2865 C   0  0  0  0  0  0
  -11.5923   -1.2628    9.9644 C   0  0  0  0  0  0
  -10.8412   -0.2015    9.0285 C   0  0  0  0  0  0
  -11.5605    0.8832    8.1151 C   0  0  0  0  0  0
  -12.2663    0.2890    6.7476 C   0  0  0  0  0  0
  -11.3131   -0.7199    6.1089 C   0  0  0  0  0  0
  -13.7047   -0.3760    6.9308 C   0  0  0  0  0  0
  -15.0124    0.0391    6.0727 C   0  0  0  0  0  0
  -16.3900   -0.6902    6.2351 C   0  0  0  0  0  0
  -16.8948   -1.6289    5.0463 C   0  0  0  0  0  0
  -16.1757   -1.7532    3.6456 C   0  0  0  0  0  0
  -16.5424   -2.9270    2.6994 C   0  0  0  0  0  0
  -15.4255   -4.0151    2.4593 C   0  0  0  0  0  0
  -14.7569   -4.5907    3.7140 C   0  0  0  0  0  0
  -14.3397   -3.6074    4.8442 C   0  0  0  0  0  0
  -14.2157   -4.1004    6.3162 C   0  0  0  0  0  0
  -14.2052   -5.6079    6.5272 C   0  0  0  0  0  0
  -13.0656   -3.4659    6.9878 N   0  0  0  0  0  0
  -13.0044   -3.1736    4.4798 O   0  0  0  0  0  0
  -16.0104   -5.0930    1.7206 O   0  0  0  0  0  0
  -15.2684    1.4083    6.4282 O   0  0  0  0  0  0
   -9.9836    0.5782    9.9054 O   0  0  0  0  0  0
   -9.3655    1.6590    9.3623 C   0  0  0  0  0  0
   -8.5620    1.6449    8.4492 O   0  0  0  0  0  0
   -9.9166    2.8986   10.0113 C   0  0  0  0  0  0
   -8.9674    3.4825   11.0698 C   0  0  0  0  0  0
   -8.2844    4.7733   10.6000 C   0  0  0  0  0  0
   -7.1383    5.1464   11.5113 C   0  0  0  0  0  0
   -7.2665    5.8438   12.5118 O   0  0  0  0  0  0
   -5.9593    4.6389   11.1224 O   0  0  0  0  0  0
   -9.8351    3.7665   12.3037 C   0  0  0  0  0  0
   -9.6189    4.6909   13.0727 O   0  0  0  0  0  0
  -10.8252    2.8846   12.4984 O   0  0  0  0  0  0
  -10.7604   -2.4642   10.2184 O   0  0  0  0  0  0
  -10.5254   -3.3370    9.1691 C   0  0  0  0  0  0
  -10.3467   -2.9966    8.0069 O   0  0  0  0  0  0
  -10.5110   -4.8031    9.6213 C   0  0  0  0  0  0
  -11.5934   -5.7221    8.9745 C   0  0  0  0  0  0
  -11.3316   -7.2390    8.9467 C   0  0  0  0  0  0
  -11.0313   -7.8074   10.3036 C   0  0  0  0  0  0
  -11.8601   -8.0938   11.1567 O   0  0  0  0  0  0
   -9.7180   -7.9995   10.5004 O   0  0  0  0  0  0
  -13.0122   -5.5173    9.5198 C   0  0  0  0  0  0
  -13.7126   -4.5766    9.2014 O   0  0  0  0  0  0
  -13.4818   -6.5123   10.3014 O   0  0  0  0  0  0
  -12.2163   -3.9760    6.7491 H   0  0  0  0  0  0
  -13.1700   -3.5862    7.9978 H   0  0  0  0  0  0
  -12.4359   -3.9535    4.6529 H   0  0  0  0  0  0
  -15.5094   -5.2003    0.8911 H   0  0  0  0  0  0
  -15.6097    1.4240    7.3380 H   0  0  0  0  0  0
   -5.9240    4.3290   10.1970 H   0  0  0  0  0  0
  -11.6069    3.2465   12.9849 H   0  0  0  0  0  0
   -9.5857   -8.0667   11.4696 H   0  0  0  0  0  0
  -14.4472   -6.4826   10.4839 H   0  0  0  0  0  0
  1  2  1  0  0  0
  2  3  1  0  0  0
  3  4  1  0  0  0
  4  5  1  0  0  0
  5  6  1  0  0  0
  5  7  1  0  0  0
  7  8  1  0  0  0
  7 39  1  0  0  0
  8  9  1  0  0  0
  8 27  1  0  0  0
  9 10  1  0  0  0
 10 11  1  0  0  0
 10 12  1  0  0  0
 12 13  1  0  0  0
 13 14  1  0  0  0
 13 26  1  0  0  0
 14 15  1  0  0  0
 15 16  1  0  0  0
 16 17  1  0  0  0
 17 18  1  0  0  0
 18 19  1  0  0  0
 18 25  1  0  0  0
 19 20  1  0  0  0
 20 21  1  0  0  0
 20 24  1  0  0  0
 21 22  1  0  0  0
 21 23  1  0  0  0
 23 51  1  0  0  0
 23 52  1  0  0  0
 24 53  1  0  0  0
 25 54  1  0  0  0
 26 55  1  0  0  0
 27 28  1  0  0  0
 28 29  2  0  0  0
 28 30  1  0  0  0
 30 31  1  0  0  0
 31 32  1  0  0  0
 31 36  1  0  0  0
 32 33  1  0  0  0
 33 34  2  0  0  0
 33 35  1  0  0  0
 35 56  1  0  0  0
 36 37  2  0  0  0
 36 38  1  0  0  0
 38 57  1  0  0  0
 39 40  1  0  0  0
 40 41  2  0  0  0
 40 42  1  0  0  0
 42 43  1  0  0  0
 43 44  1  0  0  0
 43 48  1  0  0  0
 44 45  1  0  0  0
 45 46  2  0  0  0
 45 47  1  0  0  0
 47 58  1  0  0  0
 48 49  2  0  0  0
 48 50  1  0  0  0
 50 59  1  0  0  0
M  END
>  <AUTHOR>
    GENERATED BY OPEN BABEL 2.4.1

>  <CHROM.1>
-53.31019672,121.88200563,-115.65754735,171.14659171,-74.73330293,157.44542978
-74.41905616,-171.99210750,-43.09375963,126.85525462,176.85123631,-109.26612835
-71.73398284,-6.97145993,165.44970617,-111.97198092,49.94263104,-44.10721833
121.55324445,154.73625998,13.55608799,-72.41461748,-82.62143238,-61.94125633
102.28578398,107.10728947,-166.98207146,-147.60359633,-88.70887581,17.20053667
-152.99830666,37.13579175,118.87643118,157.32678867,54.32410429,76.87400752
80.37542890,160.92237258,-166.85534193,-11.98214125,-1.60782471,8.71056761
-0.56669990,0.95551483,2.83335844

>  <COMPND>
    UNNAMED

>  <MASTER>
        0    0    0    0    0    0    0    0  109    0  109    0

>  <Name>
FB1.pdb

>  <RI>
0

>  <Rbt.Current_Directory>
/home/fc/tossine/F10/p3/0_clust01

>  <Rbt.Executable>
rbdock/0.1.0

>  <Rbt.Library>
librxdock.so/0.1.0

>  <Rbt.Parameter_File>
/cluster/rxdock/data/scripts/dock.prm

>  <Rbt.Receptor>
rx_1.prm

>  <SCORE>
76.9066

>  <SCORE.INTER>
27.4182

>  <SCORE.INTER.CONST>
1

>  <SCORE.INTER.POLAR>
-2.43436

>  <SCORE.INTER.REPUL>
1.86341

>  <SCORE.INTER.ROT>
32

>  <SCORE.INTER.VDW>
-11.0221

>  <SCORE.INTER.norm>
0.548363

>  <SCORE.INTRA>
44.2336

>  <SCORE.INTRA.DIHEDRAL>
72.9264

>  <SCORE.INTRA.DIHEDRAL.0>
47.3121

>  <SCORE.INTRA.POLAR>
0.689419

>  <SCORE.INTRA.POLAR.0>
-1.47808

>  <SCORE.INTRA.REPUL>
0.0400911

>  <SCORE.INTRA.REPUL.0>
0

>  <SCORE.INTRA.VDW>
5.2259

>  <SCORE.INTRA.VDW.0>
-2.78316

>  <SCORE.INTRA.norm>
0.884671

>  <SCORE.RESTR>
5.25493

>  <SCORE.RESTR.CAVITY>
5.25493

>  <SCORE.RESTR.norm>
0.105099

>  <SCORE.SYSTEM>
0

>  <SCORE.SYSTEM.CONST>
0

>  <SCORE.SYSTEM.DIHEDRAL>
0

>  <SCORE.SYSTEM.norm>
0

>  <SCORE.heavy>
50

>  <SCORE.norm>
1.53813

$$$$
