FB1.pdb
  RxDock  10062016403D
librxdock.so/0.1.0
 59 58  0  0  0  0  0  0  0  0999 V2000
  -13.8758   -2.9270   11.6267 C   0  0  0  0  0  0
  -13.0051   -2.3608   12.7459 C   0  0  0  0  0  0
  -11.6012   -1.9877   12.2417 C   0  0  0  0  0  0
  -10.8743   -3.1508   11.5217 C   0  0  0  0  0  0
  -10.3308   -2.8066   10.0911 C   0  0  0  0  0  0
   -9.0462   -3.6322    9.8482 C   0  0  0  0  0  0
  -11.3900   -3.0518    8.9354 C   0  0  0  0  0  0
  -11.6561   -1.8374    7.9252 C   0  0  0  0  0  0
  -13.0266   -1.5603    7.1682 C   0  0  0  0  0  0
  -13.0988   -0.1274    6.3541 C   0  0  0  0  0  0
  -11.8468    0.0022    5.4881 C   0  0  0  0  0  0
  -14.3966    0.1066    5.4564 C   0  0  0  0  0  0
  -14.3847    0.8540    4.0211 C   0  0  0  0  0  0
  -14.3498    0.0687    2.6653 C   0  0  0  0  0  0
  -15.7377   -0.3593    2.0021 C   0  0  0  0  0  0
  -17.0461   -0.6981    2.8195 C   0  0  0  0  0  0
  -17.2279   -2.1182    3.4173 C   0  0  0  0  0  0
  -16.0698   -2.6444    4.3508 C   0  0  0  0  0  0
  -16.2036   -4.0880    4.8514 C   0  0  0  0  0  0
  -14.9046   -4.9082    5.0923 C   0  0  0  0  0  0
  -14.1156   -5.5113    3.8927 C   0  0  0  0  0  0
  -14.9477   -6.0893    2.7564 C   0  0  0  0  0  0
  -13.1206   -4.5496    3.3814 N   0  0  0  0  0  0
  -13.9874   -3.9707    5.7117 O   0  0  0  0  0  0
  -14.8360   -2.5239    3.6345 O   0  0  0  0  0  0
  -15.6083    1.6078    3.9868 O   0  0  0  0  0  0
  -11.4093   -0.6198    8.6796 O   0  0  0  0  0  0
  -10.1185   -0.3441    9.0008 C   0  0  0  0  0  0
   -9.1551   -0.4543    8.2665 O   0  0  0  0  0  0
  -10.0850    0.2213   10.3939 C   0  0  0  0  0  0
   -9.4601    1.6246   10.4465 C   0  0  0  0  0  0
   -9.8595    2.4922    9.2461 C   0  0  0  0  0  0
  -11.3599    2.6508    9.1633 C   0  0  0  0  0  0
  -12.0515    3.0555   10.0916 O   0  0  0  0  0  0
  -11.8686    2.3068    7.9709 O   0  0  0  0  0  0
   -9.9658    2.2630   11.7475 C   0  0  0  0  0  0
   -9.3664    3.1540   12.3301 O   0  0  0  0  0  0
  -11.0990    1.7278   12.2222 O   0  0  0  0  0  0
  -11.1149   -4.3201    8.2172 O   0  0  0  0  0  0
  -11.6908   -5.4858    8.6940 C   0  0  0  0  0  0
  -11.6342   -6.5713    8.1311 O   0  0  0  0  0  0
  -12.4208   -5.2736   10.0268 C   0  0  0  0  0  0
  -12.9658   -6.5642   10.7137 C   0  0  0  0  0  0
  -14.0721   -7.3555    9.9923 C   0  0  0  0  0  0
  -15.1908   -7.7655   10.9060 C   0  0  0  0  0  0
  -15.6905   -8.8805   10.9664 O   0  0  0  0  0  0
  -15.6001   -6.7629   11.6981 O   0  0  0  0  0  0
  -11.8853   -7.5710   11.1275 C   0  0  0  0  0  0
  -10.9192   -7.2645   11.7979 O   0  0  0  0  0  0
  -12.1289   -8.8544   10.7886 O   0  0  0  0  0  0
  -12.2777   -5.0537    3.1097 H   0  0  0  0  0  0
  -12.8281   -3.9424    4.1503 H   0  0  0  0  0  0
  -13.3474   -4.5346    6.1951 H   0  0  0  0  0  0
  -14.2021   -2.0446    4.1992 H   0  0  0  0  0  0
  -15.5625    2.2214    3.2346 H   0  0  0  0  0  0
  -11.2098    2.1316    7.2718 H   0  0  0  0  0  0
  -11.3226    0.8407   11.8456 H   0  0  0  0  0  0
  -15.4393   -7.0504   12.6216 H   0  0  0  0  0  0
  -11.4090   -9.4887   11.0021 H   0  0  0  0  0  0
  1  2  1  0  0  0
  2  3  1  0  0  0
  3  4  1  0  0  0
  4  5  1  0  0  0
  5  6  1  0  0  0
  5  7  1  0  0  0
  7  8  1  0  0  0
  7 39  1  0  0  0
  8  9  1  0  0  0
  8 27  1  0  0  0
  9 10  1  0  0  0
 10 11  1  0  0  0
 10 12  1  0  0  0
 12 13  1  0  0  0
 13 14  1  0  0  0
 13 26  1  0  0  0
 14 15  1  0  0  0
 15 16  1  0  0  0
 16 17  1  0  0  0
 17 18  1  0  0  0
 18 19  1  0  0  0
 18 25  1  0  0  0
 19 20  1  0  0  0
 20 21  1  0  0  0
 20 24  1  0  0  0
 21 22  1  0  0  0
 21 23  1  0  0  0
 23 51  1  0  0  0
 23 52  1  0  0  0
 24 53  1  0  0  0
 25 54  1  0  0  0
 26 55  1  0  0  0
 27 28  1  0  0  0
 28 29  2  0  0  0
 28 30  1  0  0  0
 30 31  1  0  0  0
 31 32  1  0  0  0
 31 36  1  0  0  0
 32 33  1  0  0  0
 33 34  2  0  0  0
 33 35  1  0  0  0
 35 56  1  0  0  0
 36 37  2  0  0  0
 36 38  1  0  0  0
 38 57  1  0  0  0
 39 40  1  0  0  0
 40 41  2  0  0  0
 40 42  1  0  0  0
 42 43  1  0  0  0
 43 44  1  0  0  0
 43 48  1  0  0  0
 44 45  1  0  0  0
 45 46  2  0  0  0
 45 47  1  0  0  0
 47 58  1  0  0  0
 48 49  2  0  0  0
 48 50  1  0  0  0
 50 59  1  0  0  0
M  END
>  <AUTHOR>
    GENERATED BY OPEN BABEL 2.4.1

>  <CHROM.1>
-54.13018924,127.00688323,148.16687995,127.98757198,-150.49704635,88.95768500
171.75515259,70.89047305,49.61852894,-142.72561554,97.77660732,88.75763668
168.01312462,-30.73887782,-82.80967344,54.61161557,-175.46756512,148.17178824
128.26888725,-76.88436382,-39.15029547,156.91942408,142.38121179,43.24545701
-121.54095404,38.70635288,58.63690731,155.25385602,53.84864637,-8.91942832
17.13144810,173.57495771,-173.59733931,-64.67905076,-134.58616701,52.06958835
-133.09649584,-118.41958286,176.15810594,-12.76128057,-2.46705413,8.09046494
0.74010517,1.01862202,2.65095154

>  <COMPND>
    UNNAMED

>  <MASTER>
        0    0    0    0    0    0    0    0  109    0  109    0

>  <Name>
FB1.pdb

>  <RI>
0

>  <Rbt.Current_Directory>
/home/fc/tossine/F10/p3/0_clust01

>  <Rbt.Executable>
rbdock/0.1.0

>  <Rbt.Library>
librxdock.so/0.1.0

>  <Rbt.Parameter_File>
/cluster/rxdock/data/scripts/dock.prm

>  <Rbt.Receptor>
rx_1.prm

>  <SCORE>
87.4998

>  <SCORE.INTER>
22.5866

>  <SCORE.INTER.CONST>
1

>  <SCORE.INTER.POLAR>
-1.51186

>  <SCORE.INTER.REPUL>
2.11813

>  <SCORE.INTER.ROT>
32

>  <SCORE.INTER.VDW>
-20.2637

>  <SCORE.INTER.norm>
0.451733

>  <SCORE.INTRA>
50.6041

>  <SCORE.INTRA.DIHEDRAL>
60.8006

>  <SCORE.INTRA.DIHEDRAL.0>
47.3121

>  <SCORE.INTRA.POLAR>
1.38044

>  <SCORE.INTRA.POLAR.0>
-1.47808

>  <SCORE.INTRA.REPUL>
0

>  <SCORE.INTRA.REPUL.0>
0

>  <SCORE.INTRA.VDW>
15.5103

>  <SCORE.INTRA.VDW.0>
-2.78316

>  <SCORE.INTRA.norm>
1.01208

>  <SCORE.RESTR>
14.309

>  <SCORE.RESTR.CAVITY>
14.309

>  <SCORE.RESTR.norm>
0.286181

>  <SCORE.SYSTEM>
0

>  <SCORE.SYSTEM.CONST>
0

>  <SCORE.SYSTEM.DIHEDRAL>
0

>  <SCORE.SYSTEM.norm>
0

>  <SCORE.heavy>
50

>  <SCORE.norm>
1.75

$$$$
