FB1.pdb
  RxDock  10062016023D
librxdock.so/0.1.0
 59 58  0  0  0  0  0  0  0  0999 V2000
  -13.0869  -10.2397   13.0968 C   0  0  0  0  0  0
  -14.5239   -9.9250   13.5056 C   0  0  0  0  0  0
  -15.1803   -8.9164   12.5484 C   0  0  0  0  0  0
  -14.7066   -7.4580   12.7682 C   0  0  0  0  0  0
  -15.0933   -6.4573   11.6239 C   0  0  0  0  0  0
  -15.9246   -5.3099   12.2427 C   0  0  0  0  0  0
  -13.8422   -5.8879   10.8310 C   0  0  0  0  0  0
  -14.0768   -5.4836    9.2988 C   0  0  0  0  0  0
  -12.9257   -5.2588    8.2252 C   0  0  0  0  0  0
  -11.6635   -4.3283    8.7375 C   0  0  0  0  0  0
  -10.3627   -5.0800    8.4598 C   0  0  0  0  0  0
  -11.5756   -2.8605    8.1190 C   0  0  0  0  0  0
  -10.8997   -1.5974    8.8716 C   0  0  0  0  0  0
   -9.3983   -1.5921    9.3208 C   0  0  0  0  0  0
   -9.0279   -0.9121   10.7171 C   0  0  0  0  0  0
   -9.8211    0.2953   11.3556 C   0  0  0  0  0  0
   -9.8244    1.6718   10.6397 C   0  0  0  0  0  0
   -9.4617    2.9275   11.5234 C   0  0  0  0  0  0
   -8.9506    4.1627   10.7714 C   0  0  0  0  0  0
   -8.6995    5.4669   11.5803 C   0  0  0  0  0  0
   -7.2516    5.8950   11.9621 C   0  0  0  0  0  0
   -6.4385    4.8912   12.7674 C   0  0  0  0  0  0
   -6.5052    6.3441   10.7714 N   0  0  0  0  0  0
   -9.1924    6.5302   10.7257 O   0  0  0  0  0  0
  -10.6288    3.2975   12.2654 O   0  0  0  0  0  0
  -11.0171   -0.5072    7.9420 O   0  0  0  0  0  0
  -14.9050   -6.5308    8.7244 O   0  0  0  0  0  0
  -14.5699   -7.8137    9.0194 C   0  0  0  0  0  0
  -15.2004   -8.5779    9.7250 O   0  0  0  0  0  0
  -13.3330   -8.1731    8.2433 C   0  0  0  0  0  0
  -12.4069   -9.1256    9.0163 C   0  0  0  0  0  0
  -12.1675   -8.6699   10.4614 C   0  0  0  0  0  0
  -10.9146   -7.8321   10.5684 C   0  0  0  0  0  0
   -9.7836   -8.2807   10.4161 O   0  0  0  0  0  0
  -11.1564   -6.5423   10.8456 O   0  0  0  0  0  0
  -13.1041  -10.4930    9.0053 C   0  0  0  0  0  0
  -14.1818  -10.6879    8.4639 O   0  0  0  0  0  0
  -12.4557  -11.4498    9.6836 O   0  0  0  0  0  0
  -13.1722   -4.8063   11.5934 O   0  0  0  0  0  0
  -12.2760   -5.1592   12.5885 C   0  0  0  0  0  0
  -12.3295   -6.1950   13.2386 O   0  0  0  0  0  0
  -11.1871   -4.0983   12.7965 C   0  0  0  0  0  0
  -10.8090   -3.7976   14.2801 C   0  0  0  0  0  0
  -10.3148   -2.3815   14.6279 C   0  0  0  0  0  0
   -9.7373   -2.2848   16.0105 C   0  0  0  0  0  0
  -10.3798   -2.2391   17.0505 O   0  0  0  0  0  0
   -8.3956   -2.2710   16.0064 O   0  0  0  0  0  0
  -11.8939   -4.1621   15.3011 C   0  0  0  0  0  0
  -12.6649   -3.3454   15.7652 O   0  0  0  0  0  0
  -12.0117   -5.4779   15.5765 O   0  0  0  0  0  0
   -7.0507    7.0528   10.2828 H   0  0  0  0  0  0
   -6.4383    5.5637   10.1142 H   0  0  0  0  0  0
   -9.0900    7.3449   11.2616 H   0  0  0  0  0  0
  -10.8691    2.5521   12.8460 H   0  0  0  0  0  0
  -10.7162   -0.8199    7.0723 H   0  0  0  0  0  0
  -10.3628   -5.9879   10.9738 H   0  0  0  0  0  0
  -11.5519  -11.1924    9.9929 H   0  0  0  0  0  0
   -8.1171   -2.2799   15.0664 H   0  0  0  0  0  0
  -12.8698   -5.7487   15.9722 H   0  0  0  0  0  0
  1  2  1  0  0  0
  2  3  1  0  0  0
  3  4  1  0  0  0
  4  5  1  0  0  0
  5  6  1  0  0  0
  5  7  1  0  0  0
  7  8  1  0  0  0
  7 39  1  0  0  0
  8  9  1  0  0  0
  8 27  1  0  0  0
  9 10  1  0  0  0
 10 11  1  0  0  0
 10 12  1  0  0  0
 12 13  1  0  0  0
 13 14  1  0  0  0
 13 26  1  0  0  0
 14 15  1  0  0  0
 15 16  1  0  0  0
 16 17  1  0  0  0
 17 18  1  0  0  0
 18 19  1  0  0  0
 18 25  1  0  0  0
 19 20  1  0  0  0
 20 21  1  0  0  0
 20 24  1  0  0  0
 21 22  1  0  0  0
 21 23  1  0  0  0
 23 51  1  0  0  0
 23 52  1  0  0  0
 24 53  1  0  0  0
 25 54  1  0  0  0
 26 55  1  0  0  0
 27 28  1  0  0  0
 28 29  2  0  0  0
 28 30  1  0  0  0
 30 31  1  0  0  0
 31 32  1  0  0  0
 31 36  1  0  0  0
 32 33  1  0  0  0
 33 34  2  0  0  0
 33 35  1  0  0  0
 35 56  1  0  0  0
 36 37  2  0  0  0
 36 38  1  0  0  0
 38 57  1  0  0  0
 39 40  1  0  0  0
 40 41  2  0  0  0
 40 42  1  0  0  0
 42 43  1  0  0  0
 43 44  1  0  0  0
 43 48  1  0  0  0
 44 45  1  0  0  0
 45 46  2  0  0  0
 45 47  1  0  0  0
 47 58  1  0  0  0
 48 49  2  0  0  0
 48 50  1  0  0  0
 50 59  1  0  0  0
M  END
>  <AUTHOR>
    GENERATED BY OPEN BABEL 2.4.1

>  <CHROM.1>
-76.18404686,166.84166054,122.18631868,150.88011018,-163.25439967,82.15277408
-46.40952086,-44.59326685,128.52977321,152.14355649,59.38549068,-141.52369942
-47.77833650,-30.11798020,-65.05554262,-129.87964123,157.69663195,174.65052109
61.74087824,102.95688448,-57.20730017,176.24880815,52.21827947,110.38141508
145.47459861,-47.48480280,-93.53488141,-0.05062186,-68.77933901,176.46613305
-8.42356867,-28.68215100,138.68811861,-150.24236162,-168.98719201,-98.51504679
-76.85459355,3.03062876,-160.03823894,-11.56794358,-3.77993423,11.41301923
-3.06647056,-1.18956652,-1.39963719

>  <COMPND>
    UNNAMED

>  <MASTER>
        0    0    0    0    0    0    0    0  109    0  109    0

>  <Name>
FB1.pdb

>  <RI>
0

>  <Rbt.Current_Directory>
/home/fc/tossine/F10/p3/0_clust01

>  <Rbt.Executable>
rbdock/0.1.0

>  <Rbt.Library>
librxdock.so/0.1.0

>  <Rbt.Parameter_File>
/cluster/rxdock/data/scripts/dock.prm

>  <Rbt.Receptor>
rx_0.prm

>  <SCORE>
93.6544

>  <SCORE.INTER>
58.0083

>  <SCORE.INTER.CONST>
1

>  <SCORE.INTER.POLAR>
-1.9136

>  <SCORE.INTER.REPUL>
4.17727

>  <SCORE.INTER.ROT>
32

>  <SCORE.INTER.VDW>
6.22822

>  <SCORE.INTER.norm>
1.16017

>  <SCORE.INTRA>
30.4457

>  <SCORE.INTRA.DIHEDRAL>
47.4748

>  <SCORE.INTRA.DIHEDRAL.0>
47.3121

>  <SCORE.INTRA.POLAR>
1.4761

>  <SCORE.INTRA.POLAR.0>
-1.47808

>  <SCORE.INTRA.REPUL>
0

>  <SCORE.INTRA.REPUL.0>
0

>  <SCORE.INTRA.VDW>
1.68955

>  <SCORE.INTRA.VDW.0>
-2.78316

>  <SCORE.INTRA.norm>
0.608914

>  <SCORE.RESTR>
5.2004

>  <SCORE.RESTR.CAVITY>
5.2004

>  <SCORE.RESTR.norm>
0.104008

>  <SCORE.SYSTEM>
0

>  <SCORE.SYSTEM.CONST>
0

>  <SCORE.SYSTEM.DIHEDRAL>
0

>  <SCORE.SYSTEM.norm>
0

>  <SCORE.heavy>
50

>  <SCORE.norm>
1.87309

$$$$
