FB1.pdb
  RxDock  10062018253D
librxdock.so/0.1.0
 59 58  0  0  0  0  0  0  0  0999 V2000
   11.6949    0.0273   -4.9210 C   0  0  0  0  0  0
   10.7176    0.2095   -6.0798 C   0  0  0  0  0  0
    9.4428   -0.6283   -5.8867 C   0  0  0  0  0  0
    8.4777   -0.5723   -7.0971 C   0  0  0  0  0  0
    7.6347   -1.8741   -7.3318 C   0  0  0  0  0  0
    7.2538   -2.4611   -5.9531 C   0  0  0  0  0  0
    6.3443   -1.6404   -8.2252 C   0  0  0  0  0  0
    5.2758   -2.8325   -8.2828 C   0  0  0  0  0  0
    4.7343   -3.6375   -7.0231 C   0  0  0  0  0  0
    5.5004   -5.0677   -6.7247 C   0  0  0  0  0  0
    5.1347   -5.5289   -5.3148 C   0  0  0  0  0  0
    5.2191   -6.2459   -7.7627 C   0  0  0  0  0  0
    5.5112   -6.1450   -9.3511 C   0  0  0  0  0  0
    4.3634   -6.1497  -10.4183 C   0  0  0  0  0  0
    3.0196   -6.9434  -10.0818 C   0  0  0  0  0  0
    2.9265   -8.5138   -9.9414 C   0  0  0  0  0  0
    1.8160   -9.2850  -10.7026 C   0  0  0  0  0  0
    0.3285   -8.8418  -10.4197 C   0  0  0  0  0  0
   -0.6027   -8.7720  -11.6365 C   0  0  0  0  0  0
   -1.8658   -7.8693  -11.5475 C   0  0  0  0  0  0
   -1.8686   -6.5986  -10.6471 C   0  0  0  0  0  0
   -0.5434   -5.8619  -10.5109 C   0  0  0  0  0  0
   -2.9471   -5.6744  -11.0457 N   0  0  0  0  0  0
   -2.0593   -7.3737  -12.8969 O   0  0  0  0  0  0
   -0.2316   -9.7554   -9.4703 O   0  0  0  0  0  0
    6.1797   -4.8842   -9.5246 O   0  0  0  0  0  0
    4.0807   -2.2778   -8.8963 O   0  0  0  0  0  0
    3.9250   -2.4737  -10.2315 C   0  0  0  0  0  0
    4.6491   -3.1352  -10.9508 O   0  0  0  0  0  0
    2.6429   -1.8167  -10.6626 C   0  0  0  0  0  0
    2.7781   -0.2917  -10.7997 C   0  0  0  0  0  0
    1.8462    0.2878  -11.8717 C   0  0  0  0  0  0
    0.5036   -0.4053  -11.8594 C   0  0  0  0  0  0
    0.1110   -1.1393  -12.7599 O   0  0  0  0  0  0
   -0.2234   -0.1427  -10.7634 O   0  0  0  0  0  0
    2.4214    0.2887   -9.4242 C   0  0  0  0  0  0
    2.9254   -0.1047   -8.3832 O   0  0  0  0  0  0
    1.4711    1.2333   -9.4520 O   0  0  0  0  0  0
    5.7059   -0.3384   -7.9135 O   0  0  0  0  0  0
    5.6005    0.0429   -6.5862 C   0  0  0  0  0  0
    6.4871    0.5949   -5.9478 O   0  0  0  0  0  0
    4.2314   -0.3035   -5.9862 C   0  0  0  0  0  0
    3.8441    0.4732   -4.6896 C   0  0  0  0  0  0
    3.3027    1.9067   -4.8395 C   0  0  0  0  0  0
    3.5169    2.4738   -6.2132 C   0  0  0  0  0  0
    4.4866    3.1275   -6.5721 O   0  0  0  0  0  0
    2.5163    2.1720   -7.0547 O   0  0  0  0  0  0
    2.8842   -0.2783   -3.7589 C   0  0  0  0  0  0
    1.8848    0.2303   -3.2908 O   0  0  0  0  0  0
    3.1620   -1.5859   -3.5735 O   0  0  0  0  0  0
   -2.7354   -5.2909  -11.9659 H   0  0  0  0  0  0
   -2.9365   -4.8690  -10.4159 H   0  0  0  0  0  0
   -2.1081   -8.1808  -13.4514 H   0  0  0  0  0  0
    0.2308   -9.6327   -8.6208 H   0  0  0  0  0  0
    6.8221   -4.9815  -10.2474 H   0  0  0  0  0  0
    0.1615    0.5187  -10.1568 H   0  0  0  0  0  0
    1.2139    1.5824   -8.5628 H   0  0  0  0  0  0
    1.8105    1.7571   -6.5152 H   0  0  0  0  0  0
    2.5793   -2.0521   -2.9337 H   0  0  0  0  0  0
  1  2  1  0  0  0
  2  3  1  0  0  0
  3  4  1  0  0  0
  4  5  1  0  0  0
  5  6  1  0  0  0
  5  7  1  0  0  0
  7  8  1  0  0  0
  7 39  1  0  0  0
  8  9  1  0  0  0
  8 27  1  0  0  0
  9 10  1  0  0  0
 10 11  1  0  0  0
 10 12  1  0  0  0
 12 13  1  0  0  0
 13 14  1  0  0  0
 13 26  1  0  0  0
 14 15  1  0  0  0
 15 16  1  0  0  0
 16 17  1  0  0  0
 17 18  1  0  0  0
 18 19  1  0  0  0
 18 25  1  0  0  0
 19 20  1  0  0  0
 20 21  1  0  0  0
 20 24  1  0  0  0
 21 22  1  0  0  0
 21 23  1  0  0  0
 23 51  1  0  0  0
 23 52  1  0  0  0
 24 53  1  0  0  0
 25 54  1  0  0  0
 26 55  1  0  0  0
 27 28  1  0  0  0
 28 29  2  0  0  0
 28 30  1  0  0  0
 30 31  1  0  0  0
 31 32  1  0  0  0
 31 36  1  0  0  0
 32 33  1  0  0  0
 33 34  2  0  0  0
 33 35  1  0  0  0
 35 56  1  0  0  0
 36 37  2  0  0  0
 36 38  1  0  0  0
 38 57  1  0  0  0
 39 40  1  0  0  0
 40 41  2  0  0  0
 40 42  1  0  0  0
 42 43  1  0  0  0
 43 44  1  0  0  0
 43 48  1  0  0  0
 44 45  1  0  0  0
 45 46  2  0  0  0
 45 47  1  0  0  0
 47 58  1  0  0  0
 48 49  2  0  0  0
 48 50  1  0  0  0
 50 59  1  0  0  0
M  END
>  <AUTHOR>
    GENERATED BY OPEN BABEL 2.4.1

>  <CHROM.1>
-174.89285320,148.74169398,36.78575014,-168.37975777,46.23339047,-42.06336699
-96.58476892,96.18206293,165.34195977,57.89175773,-113.05644009,-29.92730468
146.18535128,-67.26261470,-130.67049134,-56.62523498,138.76330462,-157.47284924
67.08947489,29.28627085,32.95067347,55.25405361,-67.89779706,4.60699378,77.66752600
149.66693982,38.67440503,50.79057447,-111.27931304,5.39547290,177.64194323
83.88667913,-160.88330065,79.96909782,-13.18822793,-131.58129387,-91.49369914
8.41663070,176.37696669,3.47714664,-2.68004998,-8.43011973,-0.85517651,0.47695690
-2.91666879

>  <COMPND>
    UNNAMED

>  <MASTER>
        0    0    0    0    0    0    0    0  109    0  109    0

>  <Name>
FB1.pdb

>  <RI>
0

>  <Rbt.Current_Directory>
/home/fc/tossine/F10/p3/0_clust01

>  <Rbt.Executable>
rbdock/0.1.0

>  <Rbt.Library>
librxdock.so/0.1.0

>  <Rbt.Parameter_File>
/cluster/rxdock/data/scripts/dock.prm

>  <Rbt.Receptor>
rx_4.prm

>  <SCORE>
67.6139

>  <SCORE.INTER>
19.0123

>  <SCORE.INTER.CONST>
1

>  <SCORE.INTER.POLAR>
-2.69467

>  <SCORE.INTER.REPUL>
2.0077

>  <SCORE.INTER.ROT>
32

>  <SCORE.INTER.VDW>
-19.2644

>  <SCORE.INTER.norm>
0.380245

>  <SCORE.INTRA>
33.0959

>  <SCORE.INTRA.DIHEDRAL>
45.9106

>  <SCORE.INTRA.DIHEDRAL.0>
47.3121

>  <SCORE.INTRA.POLAR>
-0.0442523

>  <SCORE.INTRA.POLAR.0>
-1.47808

>  <SCORE.INTRA.REPUL>
0.00832433

>  <SCORE.INTRA.REPUL.0>
0

>  <SCORE.INTRA.VDW>
10.2495

>  <SCORE.INTRA.VDW.0>
-2.78316

>  <SCORE.INTRA.norm>
0.661919

>  <SCORE.RESTR>
15.5057

>  <SCORE.RESTR.CAVITY>
15.5057

>  <SCORE.RESTR.norm>
0.310114

>  <SCORE.SYSTEM>
0

>  <SCORE.SYSTEM.CONST>
0

>  <SCORE.SYSTEM.DIHEDRAL>
0

>  <SCORE.SYSTEM.norm>
0

>  <SCORE.heavy>
50

>  <SCORE.norm>
1.35228

$$$$
