FB1.pdb
  RxDock  10062015553D
librxdock.so/0.1.0
 59 58  0  0  0  0  0  0  0  0999 V2000
  -11.2269   -9.9973   15.8187 C   0  0  0  0  0  0
  -10.5040   -8.6705   15.5986 C   0  0  0  0  0  0
  -10.9990   -7.9559   14.3303 C   0  0  0  0  0  0
  -10.2439   -6.6372   14.0298 C   0  0  0  0  0  0
   -9.9640   -6.3666   12.5103 C   0  0  0  0  0  0
   -8.9401   -7.4123   12.0115 C   0  0  0  0  0  0
  -11.2726   -6.3807   11.6130 C   0  0  0  0  0  0
  -12.0213   -4.9807   11.3996 C   0  0  0  0  0  0
  -13.0687   -4.6700   10.2442 C   0  0  0  0  0  0
  -13.3863   -3.0698    9.9999 C   0  0  0  0  0  0
  -14.0499   -2.5095   11.2568 C   0  0  0  0  0  0
  -12.1391   -2.1583    9.6018 C   0  0  0  0  0  0
  -12.1252   -1.1373    8.3464 C   0  0  0  0  0  0
  -11.6947   -1.5820    6.9066 C   0  0  0  0  0  0
  -12.6451   -2.5862    6.1082 C   0  0  0  0  0  0
  -14.0974   -2.2239    5.6041 C   0  0  0  0  0  0
  -14.9068   -3.2678    4.7902 C   0  0  0  0  0  0
  -14.0711   -4.3377    3.9863 C   0  0  0  0  0  0
  -14.7258   -4.8973    2.7172 C   0  0  0  0  0  0
  -14.5844   -6.4179    2.4237 C   0  0  0  0  0  0
  -14.3559   -6.9252    0.9691 C   0  0  0  0  0  0
  -14.0427   -5.8646   -0.0770 C   0  0  0  0  0  0
  -13.3523   -8.0061    0.9410 N   0  0  0  0  0  0
  -13.3988   -6.8245    3.1536 O   0  0  0  0  0  0
  -12.8196   -3.7420    3.6277 O   0  0  0  0  0  0
  -13.4874   -0.6983    8.2119 O   0  0  0  0  0  0
  -12.7528   -4.7197   12.6281 O   0  0  0  0  0  0
  -12.0856   -4.0701   13.6171 C   0  0  0  0  0  0
  -10.8983   -3.8063   13.6310 O   0  0  0  0  0  0
  -13.0810   -3.6359   14.6572 C   0  0  0  0  0  0
  -13.0981   -4.5643   15.8820 C   0  0  0  0  0  0
  -13.6549   -5.9565   15.5576 C   0  0  0  0  0  0
  -13.6251   -6.8525   16.7740 C   0  0  0  0  0  0
  -12.8705   -7.8119   16.8915 O   0  0  0  0  0  0
  -14.5060   -6.4973   17.7210 O   0  0  0  0  0  0
  -11.6394   -4.6771   16.3462 C   0  0  0  0  0  0
  -11.0417   -5.7403   16.4153 O   0  0  0  0  0  0
  -11.0861   -3.5147   16.7187 O   0  0  0  0  0  0
  -11.0336   -7.0830   10.3287 O   0  0  0  0  0  0
  -11.9304   -8.0628    9.9364 C   0  0  0  0  0  0
  -12.2512   -9.0268   10.6192 O   0  0  0  0  0  0
  -12.4923   -7.8111    8.5310 C   0  0  0  0  0  0
  -13.9975   -7.4055    8.4659 C   0  0  0  0  0  0
  -14.5322   -6.8191    7.1466 C   0  0  0  0  0  0
  -16.0288   -6.6997    7.1217 C   0  0  0  0  0  0
  -16.7782   -6.9233    8.0624 O   0  0  0  0  0  0
  -16.4912   -6.2904    5.9305 O   0  0  0  0  0  0
  -14.9737   -8.5054    8.9012 C   0  0  0  0  0  0
  -15.6436   -8.4313    9.9124 O   0  0  0  0  0  0
  -15.1249   -9.5242    8.0292 O   0  0  0  0  0  0
  -12.6511   -7.8296    1.6591 H   0  0  0  0  0  0
  -12.8422   -7.9553    0.0564 H   0  0  0  0  0  0
  -12.6703   -6.3088    2.7478 H   0  0  0  0  0  0
  -12.2316   -4.4457    3.2967 H   0  0  0  0  0  0
  -13.5228   -0.0430    7.4950 H   0  0  0  0  0  0
  -14.5063   -7.0574   18.5208 H   0  0  0  0  0  0
  -11.3038   -3.2343   17.6422 H   0  0  0  0  0  0
  -17.4697   -6.3259    5.9812 H   0  0  0  0  0  0
  -15.7248  -10.2444    8.3252 H   0  0  0  0  0  0
  1  2  1  0  0  0
  2  3  1  0  0  0
  3  4  1  0  0  0
  4  5  1  0  0  0
  5  6  1  0  0  0
  5  7  1  0  0  0
  7  8  1  0  0  0
  7 39  1  0  0  0
  8  9  1  0  0  0
  8 27  1  0  0  0
  9 10  1  0  0  0
 10 11  1  0  0  0
 10 12  1  0  0  0
 12 13  1  0  0  0
 13 14  1  0  0  0
 13 26  1  0  0  0
 14 15  1  0  0  0
 15 16  1  0  0  0
 16 17  1  0  0  0
 17 18  1  0  0  0
 18 19  1  0  0  0
 18 25  1  0  0  0
 19 20  1  0  0  0
 20 21  1  0  0  0
 20 24  1  0  0  0
 21 22  1  0  0  0
 21 23  1  0  0  0
 23 51  1  0  0  0
 23 52  1  0  0  0
 24 53  1  0  0  0
 25 54  1  0  0  0
 26 55  1  0  0  0
 27 28  1  0  0  0
 28 29  2  0  0  0
 28 30  1  0  0  0
 30 31  1  0  0  0
 31 32  1  0  0  0
 31 36  1  0  0  0
 32 33  1  0  0  0
 33 34  2  0  0  0
 33 35  1  0  0  0
 35 56  1  0  0  0
 36 37  2  0  0  0
 36 38  1  0  0  0
 38 57  1  0  0  0
 39 40  1  0  0  0
 40 41  2  0  0  0
 40 42  1  0  0  0
 42 43  1  0  0  0
 43 44  1  0  0  0
 43 48  1  0  0  0
 44 45  1  0  0  0
 45 46  2  0  0  0
 45 47  1  0  0  0
 47 58  1  0  0  0
 48 49  2  0  0  0
 48 50  1  0  0  0
 50 59  1  0  0  0
M  END
>  <AUTHOR>
    GENERATED BY OPEN BABEL 2.4.1

>  <CHROM.1>
-177.18926390,141.81858604,-67.97597877,91.09922421,161.56187085,130.13606072
-164.43071179,87.61222441,-64.13674349,130.04151856,-88.45840942,68.82997287
177.08352196,66.40532226,177.69364926,-25.86321415,-151.41203198,-139.18213324
168.51601292,-140.86248072,10.22998353,-62.49736975,-34.17424578,-8.09494646
100.81196461,-68.28958620,178.58709830,-121.03772647,-110.08665537,-179.77634805
81.76881461,-54.20208981,-110.17749548,165.70284714,169.63159102,112.08260029
5.96848371,174.62897169,177.78979461,-13.00734113,-5.69134128,9.90336090
0.62268070,1.34204145,2.56687066

>  <COMPND>
    UNNAMED

>  <MASTER>
        0    0    0    0    0    0    0    0  109    0  109    0

>  <Name>
FB1.pdb

>  <RI>
0

>  <Rbt.Current_Directory>
/home/fc/tossine/F10/p3/0_clust01

>  <Rbt.Executable>
rbdock/0.1.0

>  <Rbt.Library>
librxdock.so/0.1.0

>  <Rbt.Parameter_File>
/cluster/rxdock/data/scripts/dock.prm

>  <Rbt.Receptor>
rx_0.prm

>  <SCORE>
52.9813

>  <SCORE.INTER>
13.2665

>  <SCORE.INTER.CONST>
1

>  <SCORE.INTER.POLAR>
-0.755668

>  <SCORE.INTER.REPUL>
0.928765

>  <SCORE.INTER.ROT>
32

>  <SCORE.INTER.VDW>
-26.2081

>  <SCORE.INTER.norm>
0.26533

>  <SCORE.INTRA>
34.6725

>  <SCORE.INTRA.DIHEDRAL>
53.4872

>  <SCORE.INTRA.DIHEDRAL.0>
47.3121

>  <SCORE.INTRA.POLAR>
1.46806

>  <SCORE.INTRA.POLAR.0>
-1.47808

>  <SCORE.INTRA.REPUL>
0.0246431

>  <SCORE.INTRA.REPUL.0>
0

>  <SCORE.INTRA.VDW>
2.81428

>  <SCORE.INTRA.VDW.0>
-2.78316

>  <SCORE.INTRA.norm>
0.69345

>  <SCORE.RESTR>
5.04229

>  <SCORE.RESTR.CAVITY>
5.04229

>  <SCORE.RESTR.norm>
0.100846

>  <SCORE.SYSTEM>
0

>  <SCORE.SYSTEM.CONST>
0

>  <SCORE.SYSTEM.DIHEDRAL>
0

>  <SCORE.SYSTEM.norm>
0

>  <SCORE.heavy>
50

>  <SCORE.norm>
1.05963

$$$$
