FB1.pdb
  RxDock  10062018223D
librxdock.so/0.1.0
 59 58  0  0  0  0  0  0  0  0999 V2000
   -0.0907   -6.9641  -12.4377 C   0  0  0  0  0  0
    0.1646   -6.1521  -11.1701 C   0  0  0  0  0  0
    1.6578   -5.8328  -10.9896 C   0  0  0  0  0  0
    1.9241   -4.6488  -10.0269 C   0  0  0  0  0  0
    3.4355   -4.2697   -9.8466 C   0  0  0  0  0  0
    3.9664   -3.7354  -11.1969 C   0  0  0  0  0  0
    3.6913   -3.2227   -8.6820 C   0  0  0  0  0  0
    3.6823   -3.7880   -7.1832 C   0  0  0  0  0  0
    4.7110   -4.8509   -6.5999 C   0  0  0  0  0  0
    4.4327   -6.4134   -7.0497 C   0  0  0  0  0  0
    5.1653   -6.6778   -8.3640 C   0  0  0  0  0  0
    4.8263   -7.5328   -5.9834 C   0  0  0  0  0  0
    4.1629   -9.0077   -5.9290 C   0  0  0  0  0  0
    4.3790   -9.9821   -4.7207 C   0  0  0  0  0  0
    3.5871   -9.6942   -3.3645 C   0  0  0  0  0  0
    3.8072  -10.4933   -2.0201 C   0  0  0  0  0  0
    3.1595   -9.9762   -0.7084 C   0  0  0  0  0  0
    2.6328  -11.0713    0.2978 C   0  0  0  0  0  0
    1.5660  -12.0324   -0.2413 C   0  0  0  0  0  0
    0.1589  -11.4603   -0.5747 C   0  0  0  0  0  0
   -0.0017  -10.3070   -1.6089 C   0  0  0  0  0  0
    0.0999  -10.6949   -3.0774 C   0  0  0  0  0  0
   -1.2337   -9.5376   -1.3508 N   0  0  0  0  0  0
   -0.5674  -12.5792   -1.1441 O   0  0  0  0  0  0
    3.7560  -11.8408    0.7408 O   0  0  0  0  0  0
    2.7447   -8.7770   -5.9759 O   0  0  0  0  0  0
    3.8259   -2.6331   -6.3125 O   0  0  0  0  0  0
    2.7445   -1.8216   -6.1809 C   0  0  0  0  0  0
    1.7388   -1.8466   -6.8645 O   0  0  0  0  0  0
    2.9510   -0.9450   -4.9765 C   0  0  0  0  0  0
    3.4826    0.4492   -5.3453 C   0  0  0  0  0  0
    3.0958    1.5181   -4.3152 C   0  0  0  0  0  0
    3.5433    2.8911   -4.7601 C   0  0  0  0  0  0
    3.6881    3.8384   -3.9950 O   0  0  0  0  0  0
    3.7708    2.9776   -6.0791 O   0  0  0  0  0  0
    5.0101    0.3137   -5.4134 C   0  0  0  0  0  0
    5.6676   -0.2596   -4.5582 O   0  0  0  0  0  0
    5.5727    0.9210   -6.4673 O   0  0  0  0  0  0
    4.8940   -2.3994   -8.9568 O   0  0  0  0  0  0
    4.7258   -1.0449   -9.1918 C   0  0  0  0  0  0
    5.4929   -0.3513   -9.8467 O   0  0  0  0  0  0
    3.4542   -0.4918   -8.5349 C   0  0  0  0  0  0
    2.4781    0.2702   -9.4841 C   0  0  0  0  0  0
    1.5275   -0.5622  -10.3638 C   0  0  0  0  0  0
    2.0919   -0.8537  -11.7243 C   0  0  0  0  0  0
    3.2600   -1.1219  -11.9698 O   0  0  0  0  0  0
    1.1584   -0.8107  -12.6872 O   0  0  0  0  0  0
    1.6310    1.3478   -8.7959 C   0  0  0  0  0  0
    0.6475    1.8429   -9.3101 O   0  0  0  0  0  0
    1.9854    1.6408   -7.5271 O   0  0  0  0  0  0
   -1.3669   -9.4480   -0.3444 H   0  0  0  0  0  0
   -2.0344  -10.0846   -1.6748 H   0  0  0  0  0  0
   -0.5448  -13.2684   -0.4471 H   0  0  0  0  0  0
    4.4167  -11.2281    1.1130 H   0  0  0  0  0  0
    2.5527   -8.2441   -6.7656 H   0  0  0  0  0  0
    3.8377    3.8858   -6.4316 H   0  0  0  0  0  0
    4.9586    1.0759   -7.2273 H   0  0  0  0  0  0
    0.4261   -0.2561  -12.3444 H   0  0  0  0  0  0
    2.9349    1.8589   -7.3963 H   0  0  0  0  0  0
  1  2  1  0  0  0
  2  3  1  0  0  0
  3  4  1  0  0  0
  4  5  1  0  0  0
  5  6  1  0  0  0
  5  7  1  0  0  0
  7  8  1  0  0  0
  7 39  1  0  0  0
  8  9  1  0  0  0
  8 27  1  0  0  0
  9 10  1  0  0  0
 10 11  1  0  0  0
 10 12  1  0  0  0
 12 13  1  0  0  0
 13 14  1  0  0  0
 13 26  1  0  0  0
 14 15  1  0  0  0
 15 16  1  0  0  0
 16 17  1  0  0  0
 17 18  1  0  0  0
 18 19  1  0  0  0
 18 25  1  0  0  0
 19 20  1  0  0  0
 20 21  1  0  0  0
 20 24  1  0  0  0
 21 22  1  0  0  0
 21 23  1  0  0  0
 23 51  1  0  0  0
 23 52  1  0  0  0
 24 53  1  0  0  0
 25 54  1  0  0  0
 26 55  1  0  0  0
 27 28  1  0  0  0
 28 29  2  0  0  0
 28 30  1  0  0  0
 30 31  1  0  0  0
 31 32  1  0  0  0
 31 36  1  0  0  0
 32 33  1  0  0  0
 33 34  2  0  0  0
 33 35  1  0  0  0
 35 56  1  0  0  0
 36 37  2  0  0  0
 36 38  1  0  0  0
 38 57  1  0  0  0
 39 40  1  0  0  0
 40 41  2  0  0  0
 40 42  1  0  0  0
 42 43  1  0  0  0
 43 44  1  0  0  0
 43 48  1  0  0  0
 44 45  1  0  0  0
 45 46  2  0  0  0
 45 47  1  0  0  0
 47 58  1  0  0  0
 48 49  2  0  0  0
 48 50  1  0  0  0
 50 59  1  0  0  0
M  END
>  <AUTHOR>
    GENERATED BY OPEN BABEL 2.4.1

>  <CHROM.1>
160.60604086,-178.49344730,65.85919598,78.43196261,63.23868453,113.67862873
-77.21266191,73.52284878,88.38040320,155.48694495,-168.53779484,75.44788552
55.10492208,-173.56593941,169.78589712,143.69269675,-58.94589133,-67.65597968
55.24199199,58.18371360,76.99761182,58.03312903,38.17644648,-11.76858602
97.98498357,153.33285843,-175.70349630,-46.20585863,-159.53222810,165.10546376
-22.02354882,-154.17257066,-126.16706504,80.45961155,-92.65605089,-164.79783273
38.62044089,22.61446574,52.14988894,2.87289521,-4.16369975,-6.45077779,1.09252195
-1.36127693,-1.00718782

>  <COMPND>
    UNNAMED

>  <MASTER>
        0    0    0    0    0    0    0    0  109    0  109    0

>  <Name>
FB1.pdb

>  <RI>
0

>  <Rbt.Current_Directory>
/home/fc/tossine/F10/p3/0_clust01

>  <Rbt.Executable>
rbdock/0.1.0

>  <Rbt.Library>
librxdock.so/0.1.0

>  <Rbt.Parameter_File>
/cluster/rxdock/data/scripts/dock.prm

>  <Rbt.Receptor>
rx_4.prm

>  <SCORE>
51.7911

>  <SCORE.INTER>
15.5412

>  <SCORE.INTER.CONST>
1

>  <SCORE.INTER.POLAR>
-3.81682

>  <SCORE.INTER.REPUL>
2.03193

>  <SCORE.INTER.ROT>
32

>  <SCORE.INTER.VDW>
-19.0413

>  <SCORE.INTER.norm>
0.310823

>  <SCORE.INTRA>
19.9227

>  <SCORE.INTRA.DIHEDRAL>
27.694

>  <SCORE.INTRA.DIHEDRAL.0>
47.3121

>  <SCORE.INTRA.POLAR>
0.880404

>  <SCORE.INTRA.POLAR.0>
-1.47808

>  <SCORE.INTRA.REPUL>
0.2466

>  <SCORE.INTRA.REPUL.0>
0

>  <SCORE.INTRA.VDW>
1.8493

>  <SCORE.INTRA.VDW.0>
-2.78316

>  <SCORE.INTRA.norm>
0.398453

>  <SCORE.RESTR>
16.3272

>  <SCORE.RESTR.CAVITY>
16.3272

>  <SCORE.RESTR.norm>
0.326545

>  <SCORE.SYSTEM>
0

>  <SCORE.SYSTEM.CONST>
0

>  <SCORE.SYSTEM.DIHEDRAL>
0

>  <SCORE.SYSTEM.norm>
0

>  <SCORE.heavy>
50

>  <SCORE.norm>
1.03582

$$$$
