FB1.pdb
  RxDock  10062017523D
librxdock.so/0.1.0
 59 58  0  0  0  0  0  0  0  0999 V2000
    1.5775   -4.6289   -9.2397 C   0  0  0  0  0  0
    1.2328   -5.2718  -10.5810 C   0  0  0  0  0  0
    1.3954   -6.8002  -10.5384 C   0  0  0  0  0  0
    0.0498   -7.5661  -10.5899 C   0  0  0  0  0  0
   -0.5779   -7.8955   -9.1907 C   0  0  0  0  0  0
   -2.1073   -7.6884   -9.2838 C   0  0  0  0  0  0
   -0.2335   -9.3542   -8.6696 C   0  0  0  0  0  0
    1.3127   -9.6880   -8.4164 C   0  0  0  0  0  0
    2.4898   -9.4100   -9.4486 C   0  0  0  0  0  0
    3.9018   -8.8867   -8.7749 C   0  0  0  0  0  0
    4.6407  -10.0933   -8.1984 C   0  0  0  0  0  0
    4.8789   -8.0700   -9.7356 C   0  0  0  0  0  0
    6.1112   -7.1593   -9.2152 C   0  0  0  0  0  0
    6.0082   -5.6008   -9.0861 C   0  0  0  0  0  0
    4.8179   -4.8551   -9.8453 C   0  0  0  0  0  0
    4.7975   -3.3079  -10.1624 C   0  0  0  0  0  0
    5.0553   -2.2898   -9.0203 C   0  0  0  0  0  0
    4.3241   -0.8968   -9.1385 C   0  0  0  0  0  0
    2.8152   -0.8960   -8.8636 C   0  0  0  0  0  0
    2.3319   -1.1161   -7.4020 C   0  0  0  0  0  0
    2.8920   -0.2398   -6.2428 C   0  0  0  0  0  0
    4.2312   -0.6657   -5.6576 C   0  0  0  0  0  0
    2.9124    1.1853   -6.6240 N   0  0  0  0  0  0
    0.9108   -0.8282   -7.4374 O   0  0  0  0  0  0
    4.9530    0.0109   -8.2272 O   0  0  0  0  0  0
    6.3812   -7.6290   -7.8836 O   0  0  0  0  0  0
    1.6977   -8.9507   -7.2245 O   0  0  0  0  0  0
    2.1362   -9.6778   -6.1642 C   0  0  0  0  0  0
    2.0101  -10.8782   -6.0135 O   0  0  0  0  0  0
    2.8999   -8.7654   -5.2445 C   0  0  0  0  0  0
    3.1702   -9.4021   -3.8719 C   0  0  0  0  0  0
    2.0020  -10.2689   -3.3848 C   0  0  0  0  0  0
    2.3534  -10.9865   -2.1023 C   0  0  0  0  0  0
    3.1637  -10.5602   -1.2867 O   0  0  0  0  0  0
    1.6906  -12.1408   -1.9370 O   0  0  0  0  0  0
    4.4272  -10.2653   -4.0475 C   0  0  0  0  0  0
    4.5567  -11.0793   -4.9491 O   0  0  0  0  0  0
    5.3565  -10.0885   -3.0982 O   0  0  0  0  0  0
   -1.0774   -9.7203   -7.5062 O   0  0  0  0  0  0
   -0.9875  -11.0088   -7.0063 C   0  0  0  0  0  0
   -0.1574  -11.8363   -7.3592 O   0  0  0  0  0  0
   -2.0554  -11.2984   -5.9433 C   0  0  0  0  0  0
   -1.9149  -10.5036   -4.6079 C   0  0  0  0  0  0
   -1.1846  -11.1831   -3.4352 C   0  0  0  0  0  0
   -1.2983  -10.4157   -2.1496 C   0  0  0  0  0  0
   -0.7056  -10.6721   -1.1107 O   0  0  0  0  0  0
   -2.1293   -9.3670   -2.2498 O   0  0  0  0  0  0
   -1.3170   -9.0996   -4.7614 C   0  0  0  0  0  0
   -1.9949   -8.1122   -4.9669 O   0  0  0  0  0  0
    0.0122   -9.0092   -4.5464 O   0  0  0  0  0  0
    2.1144    1.6560   -6.1995 H   0  0  0  0  0  0
    2.7546    1.2561   -7.6317 H   0  0  0  0  0  0
    0.8529    0.0856   -7.7879 H   0  0  0  0  0  0
    5.9052    0.0391   -8.4345 H   0  0  0  0  0  0
    7.3427   -7.7374   -7.7922 H   0  0  0  0  0  0
    1.8530  -12.8164   -2.6229 H   0  0  0  0  0  0
    5.0548   -9.5515   -2.3240 H   0  0  0  0  0  0
   -2.3518   -9.0958   -1.3342 H   0  0  0  0  0  0
    0.4407   -8.1991   -4.9018 H   0  0  0  0  0  0
  1  2  1  0  0  0
  2  3  1  0  0  0
  3  4  1  0  0  0
  4  5  1  0  0  0
  5  6  1  0  0  0
  5  7  1  0  0  0
  7  8  1  0  0  0
  7 39  1  0  0  0
  8  9  1  0  0  0
  8 27  1  0  0  0
  9 10  1  0  0  0
 10 11  1  0  0  0
 10 12  1  0  0  0
 12 13  1  0  0  0
 13 14  1  0  0  0
 13 26  1  0  0  0
 14 15  1  0  0  0
 15 16  1  0  0  0
 16 17  1  0  0  0
 17 18  1  0  0  0
 18 19  1  0  0  0
 18 25  1  0  0  0
 19 20  1  0  0  0
 20 21  1  0  0  0
 20 24  1  0  0  0
 21 22  1  0  0  0
 21 23  1  0  0  0
 23 51  1  0  0  0
 23 52  1  0  0  0
 24 53  1  0  0  0
 25 54  1  0  0  0
 26 55  1  0  0  0
 27 28  1  0  0  0
 28 29  2  0  0  0
 28 30  1  0  0  0
 30 31  1  0  0  0
 31 32  1  0  0  0
 31 36  1  0  0  0
 32 33  1  0  0  0
 33 34  2  0  0  0
 33 35  1  0  0  0
 35 56  1  0  0  0
 36 37  2  0  0  0
 36 38  1  0  0  0
 38 57  1  0  0  0
 39 40  1  0  0  0
 40 41  2  0  0  0
 40 42  1  0  0  0
 42 43  1  0  0  0
 43 44  1  0  0  0
 43 48  1  0  0  0
 44 45  1  0  0  0
 45 46  2  0  0  0
 45 47  1  0  0  0
 47 58  1  0  0  0
 48 49  2  0  0  0
 48 50  1  0  0  0
 50 59  1  0  0  0
M  END
>  <AUTHOR>
    GENERATED BY OPEN BABEL 2.4.1

>  <CHROM.1>
109.60614471,-91.58735033,140.32258597,62.11887498,-49.46301586,174.22543706
141.61397374,119.37436490,79.28859625,164.01617073,-99.76779466,-16.65037645
134.25038202,-161.83938434,-51.82370549,-148.77769885,73.39165004,70.65618803
55.84567346,52.55939768,-82.65143532,-56.75036911,101.20803893,-14.65063738
167.17502544,-36.79984757,174.39146793,-50.31224854,27.69430598,61.25596979
10.32907761,8.25912170,-67.09123722,-95.55082852,-171.04730318,89.47773790
-172.54824512,163.42143572,162.12756123,1.96744801,-7.47492674,-6.60189555
1.24834361,0.13447472,-0.43196146

>  <COMPND>
    UNNAMED

>  <MASTER>
        0    0    0    0    0    0    0    0  109    0  109    0

>  <Name>
FB1.pdb

>  <RI>
0

>  <Rbt.Current_Directory>
/home/fc/tossine/F10/p3/0_clust01

>  <Rbt.Executable>
rbdock/0.1.0

>  <Rbt.Library>
librxdock.so/0.1.0

>  <Rbt.Parameter_File>
/cluster/rxdock/data/scripts/dock.prm

>  <Rbt.Receptor>
rx_3.prm

>  <SCORE>
51.2976

>  <SCORE.INTER>
5.58812

>  <SCORE.INTER.CONST>
1

>  <SCORE.INTER.POLAR>
-3.70954

>  <SCORE.INTER.REPUL>
0.300164

>  <SCORE.INTER.ROT>
32

>  <SCORE.INTER.VDW>
-20.7003

>  <SCORE.INTER.norm>
0.111762

>  <SCORE.INTRA>
29.4037

>  <SCORE.INTRA.DIHEDRAL>
50.8524

>  <SCORE.INTRA.DIHEDRAL.0>
47.3121

>  <SCORE.INTRA.POLAR>
1.43959

>  <SCORE.INTRA.POLAR.0>
-1.47808

>  <SCORE.INTRA.REPUL>
0

>  <SCORE.INTRA.REPUL.0>
0

>  <SCORE.INTRA.VDW>
-0.917112

>  <SCORE.INTRA.VDW.0>
-2.78316

>  <SCORE.INTRA.norm>
0.588074

>  <SCORE.RESTR>
16.3058

>  <SCORE.RESTR.CAVITY>
16.3058

>  <SCORE.RESTR.norm>
0.326116

>  <SCORE.SYSTEM>
0

>  <SCORE.SYSTEM.CONST>
0

>  <SCORE.SYSTEM.DIHEDRAL>
0

>  <SCORE.SYSTEM.norm>
0

>  <SCORE.heavy>
50

>  <SCORE.norm>
1.02595

$$$$
