FB1.pdb
  RxDock  10062018133D
librxdock.so/0.1.0
 59 58  0  0  0  0  0  0  0  0999 V2000
    9.2480   -0.1225   -6.5986 C   0  0  0  0  0  0
    9.0190   -1.2234   -5.5656 C   0  0  0  0  0  0
    7.5227   -1.4369   -5.2833 C   0  0  0  0  0  0
    6.6792   -1.6648   -6.5625 C   0  0  0  0  0  0
    5.1623   -1.9728   -6.3085 C   0  0  0  0  0  0
    4.5381   -0.7645   -5.5728 C   0  0  0  0  0  0
    4.3545   -2.3104   -7.6319 C   0  0  0  0  0  0
    5.1854   -2.3420   -9.0011 C   0  0  0  0  0  0
    5.2876   -3.5901   -9.9809 C   0  0  0  0  0  0
    4.2501   -3.5598  -11.2631 C   0  0  0  0  0  0
    4.2884   -4.9236  -11.9504 C   0  0  0  0  0  0
    2.7388   -3.1681  -10.9355 C   0  0  0  0  0  0
    1.5625   -4.2438  -10.6568 C   0  0  0  0  0  0
    1.5334   -5.6533  -11.3415 C   0  0  0  0  0  0
    0.5455   -5.8753  -12.5760 C   0  0  0  0  0  0
   -1.0300   -5.8705  -12.4654 C   0  0  0  0  0  0
   -1.7582   -7.1024  -11.8656 C   0  0  0  0  0  0
   -1.5847   -7.3388  -10.3154 C   0  0  0  0  0  0
   -0.1437   -7.3805   -9.7916 C   0  0  0  0  0  0
    0.5978   -8.7473   -9.7812 C   0  0  0  0  0  0
    0.0686   -9.9412  -10.6297 C   0  0  0  0  0  0
   -0.2659   -9.6428  -12.0845 C   0  0  0  0  0  0
    0.9724  -11.1025  -10.5240 N   0  0  0  0  0  0
    1.9123   -8.4566  -10.3210 O   0  0  0  0  0  0
   -2.2884   -6.2983   -9.6284 O   0  0  0  0  0  0
    1.6345   -4.5132   -9.2465 O   0  0  0  0  0  0
    4.6438   -1.2776   -9.8297 O   0  0  0  0  0  0
    3.3629   -0.8969   -9.5855 C   0  0  0  0  0  0
    2.5369   -1.5196   -8.9457 O   0  0  0  0  0  0
    3.1590    0.4801  -10.1544 C   0  0  0  0  0  0
    1.8300    1.1115   -9.7101 C   0  0  0  0  0  0
    0.6095    0.3697  -10.2701 C   0  0  0  0  0  0
    0.8345   -0.0437  -11.7060 C   0  0  0  0  0  0
    1.4568    0.6333  -12.5173 O   0  0  0  0  0  0
    0.2878   -1.2295  -12.0126 O   0  0  0  0  0  0
    1.8248    1.0484   -8.1765 C   0  0  0  0  0  0
    1.4556    0.0664   -7.5506 O   0  0  0  0  0  0
    2.2137    2.1812   -7.5751 O   0  0  0  0  0  0
    3.5266   -3.5287   -7.4577 O   0  0  0  0  0  0
    4.0658   -4.7501   -7.8256 C   0  0  0  0  0  0
    3.4349   -5.6621   -8.3439 O   0  0  0  0  0  0
    5.5647   -4.8449   -7.5117 C   0  0  0  0  0  0
    6.4407   -5.5469   -8.5954 C   0  0  0  0  0  0
    7.9659   -5.3460   -8.5340 C   0  0  0  0  0  0
    8.3585   -3.9727   -8.0711 C   0  0  0  0  0  0
    8.6382   -3.6598   -6.9220 O   0  0  0  0  0  0
    8.3954   -3.0837   -9.0754 O   0  0  0  0  0  0
    6.1877   -7.0524   -8.7427 C   0  0  0  0  0  0
    6.4249   -7.8514   -7.8584 O   0  0  0  0  0  0
    5.5798   -7.4285   -9.8874 O   0  0  0  0  0  0
    1.9180  -10.8133  -10.7706 H   0  0  0  0  0  0
    0.7112  -11.7858  -11.2383 H   0  0  0  0  0  0
    1.7513   -8.2540  -11.2667 H   0  0  0  0  0  0
   -1.9158   -5.4423   -9.9093 H   0  0  0  0  0  0
    1.1371   -5.3294   -9.0705 H   0  0  0  0  0  0
    0.4138   -1.5200  -12.9363 H   0  0  0  0  0  0
    2.1848    2.1514   -6.5866 H   0  0  0  0  0  0
    8.2757   -3.5917   -9.9054 H   0  0  0  0  0  0
    5.4496   -8.3968   -9.9949 H   0  0  0  0  0  0
  1  2  1  0  0  0
  2  3  1  0  0  0
  3  4  1  0  0  0
  4  5  1  0  0  0
  5  6  1  0  0  0
  5  7  1  0  0  0
  7  8  1  0  0  0
  7 39  1  0  0  0
  8  9  1  0  0  0
  8 27  1  0  0  0
  9 10  1  0  0  0
 10 11  1  0  0  0
 10 12  1  0  0  0
 12 13  1  0  0  0
 13 14  1  0  0  0
 13 26  1  0  0  0
 14 15  1  0  0  0
 15 16  1  0  0  0
 16 17  1  0  0  0
 17 18  1  0  0  0
 18 19  1  0  0  0
 18 25  1  0  0  0
 19 20  1  0  0  0
 20 21  1  0  0  0
 20 24  1  0  0  0
 21 22  1  0  0  0
 21 23  1  0  0  0
 23 51  1  0  0  0
 23 52  1  0  0  0
 24 53  1  0  0  0
 25 54  1  0  0  0
 26 55  1  0  0  0
 27 28  1  0  0  0
 28 29  2  0  0  0
 28 30  1  0  0  0
 30 31  1  0  0  0
 31 32  1  0  0  0
 31 36  1  0  0  0
 32 33  1  0  0  0
 33 34  2  0  0  0
 33 35  1  0  0  0
 35 56  1  0  0  0
 36 37  2  0  0  0
 36 38  1  0  0  0
 38 57  1  0  0  0
 39 40  1  0  0  0
 40 41  2  0  0  0
 40 42  1  0  0  0
 42 43  1  0  0  0
 43 44  1  0  0  0
 43 48  1  0  0  0
 44 45  1  0  0  0
 45 46  2  0  0  0
 45 47  1  0  0  0
 47 58  1  0  0  0
 48 49  2  0  0  0
 48 50  1  0  0  0
 50 59  1  0  0  0
M  END
>  <AUTHOR>
    GENERATED BY OPEN BABEL 2.4.1

>  <CHROM.1>
52.50576326,176.46244506,60.75630159,2.09113737,122.10387070,-92.74078508
97.27372845,-25.01381147,-169.71105663,-94.93245481,-31.86040649,-102.02088980
-163.68270469,-67.22644581,-75.89017062,70.34885817,-52.74899582,-88.60137183
-58.74609757,16.93685822,48.63654371,-69.35571179,-54.09311950,-16.08768519
-169.39541027,-66.19218096,-40.56778678,-84.95732614,-35.98303048,179.69879799
178.23880725,-143.20405355,-139.62815816,163.85602202,-35.40470154,-64.73091368
95.32406924,-7.96062576,177.76985175,3.36188260,-3.84238234,-9.30180035,-0.78811536
0.44551091,-3.04106837

>  <COMPND>
    UNNAMED

>  <MASTER>
        0    0    0    0    0    0    0    0  109    0  109    0

>  <Name>
FB1.pdb

>  <RI>
0

>  <Rbt.Current_Directory>
/home/fc/tossine/F10/p3/0_clust01

>  <Rbt.Executable>
rbdock/0.1.0

>  <Rbt.Library>
librxdock.so/0.1.0

>  <Rbt.Parameter_File>
/cluster/rxdock/data/scripts/dock.prm

>  <Rbt.Receptor>
rx_4.prm

>  <SCORE>
94.1917

>  <SCORE.INTER>
24.9865

>  <SCORE.INTER.CONST>
1

>  <SCORE.INTER.POLAR>
-2.65823

>  <SCORE.INTER.REPUL>
0.827539

>  <SCORE.INTER.ROT>
32

>  <SCORE.INTER.VDW>
-7.51325

>  <SCORE.INTER.norm>
0.499729

>  <SCORE.INTRA>
51.6082

>  <SCORE.INTRA.DIHEDRAL>
30.1549

>  <SCORE.INTRA.DIHEDRAL.0>
47.3121

>  <SCORE.INTRA.POLAR>
1.47612

>  <SCORE.INTRA.POLAR.0>
-1.47808

>  <SCORE.INTRA.REPUL>
0.161858

>  <SCORE.INTRA.REPUL.0>
0

>  <SCORE.INTRA.VDW>
30.7027

>  <SCORE.INTRA.VDW.0>
-2.78316

>  <SCORE.INTRA.norm>
1.03216

>  <SCORE.RESTR>
17.5971

>  <SCORE.RESTR.CAVITY>
17.5971

>  <SCORE.RESTR.norm>
0.351941

>  <SCORE.SYSTEM>
0

>  <SCORE.SYSTEM.CONST>
0

>  <SCORE.SYSTEM.DIHEDRAL>
0

>  <SCORE.SYSTEM.norm>
0

>  <SCORE.heavy>
50

>  <SCORE.norm>
1.88383

$$$$
