FB1.pdb
  RxDock  10062018243D
librxdock.so/0.1.0
 59 58  0  0  0  0  0  0  0  0999 V2000
    7.7124   -2.3139   -9.2768 C   0  0  0  0  0  0
    8.3819   -3.6221   -8.8625 C   0  0  0  0  0  0
    7.8964   -4.0984   -7.4835 C   0  0  0  0  0  0
    6.9756   -3.0793   -6.7672 C   0  0  0  0  0  0
    5.5639   -3.6323   -6.3646 C   0  0  0  0  0  0
    5.6316   -4.1137   -4.8968 C   0  0  0  0  0  0
    4.3919   -2.5814   -6.5637 C   0  0  0  0  0  0
    4.0651   -2.1349   -8.0670 C   0  0  0  0  0  0
    3.1228   -2.9279   -9.0727 C   0  0  0  0  0  0
    3.8000   -4.2677   -9.7566 C   0  0  0  0  0  0
    5.1887   -3.8982  -10.2755 C   0  0  0  0  0  0
    3.9034   -5.5574   -8.8235 C   0  0  0  0  0  0
    4.1550   -7.0582   -9.3740 C   0  0  0  0  0  0
    3.3018   -7.6828  -10.5307 C   0  0  0  0  0  0
    3.3590   -9.2639  -10.7453 C   0  0  0  0  0  0
    2.4758  -10.3016   -9.9468 C   0  0  0  0  0  0
    1.1925  -10.8773  -10.6020 C   0  0  0  0  0  0
   -0.1428  -10.0709  -10.3659 C   0  0  0  0  0  0
   -0.1741   -8.6355  -10.9055 C   0  0  0  0  0  0
   -1.3748   -8.2090  -11.7971 C   0  0  0  0  0  0
   -1.6833   -6.7021  -12.0410 C   0  0  0  0  0  0
   -2.5532   -6.0115  -11.0000 C   0  0  0  0  0  0
   -0.4407   -5.9429  -12.2775 N   0  0  0  0  0  0
   -1.0677   -8.7465  -13.1088 O   0  0  0  0  0  0
   -1.2147  -10.8059  -10.9662 O   0  0  0  0  0  0
    5.5055   -7.0496   -9.8665 O   0  0  0  0  0  0
    3.4650   -0.8142   -7.9773 O   0  0  0  0  0  0
    3.5643   -0.0158   -9.0719 C   0  0  0  0  0  0
    4.5305    0.0844   -9.8039 O   0  0  0  0  0  0
    2.2371    0.6556   -9.2933 C   0  0  0  0  0  0
    1.7995    0.6269  -10.7664 C   0  0  0  0  0  0
    1.1401   -0.7015  -11.1588 C   0  0  0  0  0  0
    2.1781   -1.7608  -11.4480 C   0  0  0  0  0  0
    1.9259   -2.9594  -11.5064 O   0  0  0  0  0  0
    3.4095   -1.2645  -11.6381 O   0  0  0  0  0  0
    0.7989    1.7791  -10.9318 C   0  0  0  0  0  0
   -0.1456    1.9556  -10.1773 O   0  0  0  0  0  0
    1.0171    2.5513  -12.0051 O   0  0  0  0  0  0
    3.1708   -2.9959   -5.8307 O   0  0  0  0  0  0
    2.5787   -2.0872   -4.9695 C   0  0  0  0  0  0
    1.9246   -2.3898   -3.9801 O   0  0  0  0  0  0
    2.8321   -0.6335   -5.3903 C   0  0  0  0  0  0
    2.6497    0.4374   -4.2703 C   0  0  0  0  0  0
    2.9365    0.0197   -2.8165 C   0  0  0  0  0  0
    1.6927   -0.3234   -2.0485 C   0  0  0  0  0  0
    0.8331   -1.1191   -2.4013 O   0  0  0  0  0  0
    1.6123    0.3340   -0.8817 O   0  0  0  0  0  0
    3.3966    1.7537   -4.5191 C   0  0  0  0  0  0
    3.9268    2.0219   -5.5791 O   0  0  0  0  0  0
    3.3381    2.6520   -3.5136 O   0  0  0  0  0  0
    0.1460   -5.9950  -11.4459 H   0  0  0  0  0  0
   -0.6761   -4.9524  -12.3722 H   0  0  0  0  0  0
   -1.6629   -8.2623  -13.7193 H   0  0  0  0  0  0
   -1.8853  -10.9807  -10.2804 H   0  0  0  0  0  0
    5.7421   -7.9598  -10.1114 H   0  0  0  0  0  0
    4.0757   -1.9091  -11.9447 H   0  0  0  0  0  0
    1.5633    2.1262  -12.7119 H   0  0  0  0  0  0
    1.6867    1.2889   -1.0911 H   0  0  0  0  0  0
    2.9439    2.3200   -2.6766 H   0  0  0  0  0  0
  1  2  1  0  0  0
  2  3  1  0  0  0
  3  4  1  0  0  0
  4  5  1  0  0  0
  5  6  1  0  0  0
  5  7  1  0  0  0
  7  8  1  0  0  0
  7 39  1  0  0  0
  8  9  1  0  0  0
  8 27  1  0  0  0
  9 10  1  0  0  0
 10 11  1  0  0  0
 10 12  1  0  0  0
 12 13  1  0  0  0
 13 14  1  0  0  0
 13 26  1  0  0  0
 14 15  1  0  0  0
 15 16  1  0  0  0
 16 17  1  0  0  0
 17 18  1  0  0  0
 18 19  1  0  0  0
 18 25  1  0  0  0
 19 20  1  0  0  0
 20 21  1  0  0  0
 20 24  1  0  0  0
 21 22  1  0  0  0
 21 23  1  0  0  0
 23 51  1  0  0  0
 23 52  1  0  0  0
 24 53  1  0  0  0
 25 54  1  0  0  0
 26 55  1  0  0  0
 27 28  1  0  0  0
 28 29  2  0  0  0
 28 30  1  0  0  0
 30 31  1  0  0  0
 31 32  1  0  0  0
 31 36  1  0  0  0
 32 33  1  0  0  0
 33 34  2  0  0  0
 33 35  1  0  0  0
 35 56  1  0  0  0
 36 37  2  0  0  0
 36 38  1  0  0  0
 38 57  1  0  0  0
 39 40  1  0  0  0
 40 41  2  0  0  0
 40 42  1  0  0  0
 42 43  1  0  0  0
 43 44  1  0  0  0
 43 48  1  0  0  0
 44 45  1  0  0  0
 45 46  2  0  0  0
 45 47  1  0  0  0
 47 58  1  0  0  0
 48 49  2  0  0  0
 48 50  1  0  0  0
 50 59  1  0  0  0
M  END
>  <AUTHOR>
    GENERATED BY OPEN BABEL 2.4.1

>  <CHROM.1>
-6.47914476,123.20521801,95.04563914,65.70570746,84.18020878,127.61264730
-77.12169313,155.45229204,-47.60478304,163.05187936,-50.40435656,-164.29206790
173.28203168,84.18446838,99.37960027,-89.46919331,61.72749341,129.09733565
123.55464024,162.63132178,-86.08744458,-163.41663790,-62.46116796,-38.92956063
-134.96167464,82.11363250,-80.81592660,-49.37342109,164.14379527,-172.08980857
20.48138309,-151.84137659,-159.72846152,29.92944599,-98.74354612,10.15481437
52.55708699,55.25788236,9.02124324,2.67409430,-3.22956423,-8.44556830,-1.15025468
0.99847887,-2.90522544

>  <COMPND>
    UNNAMED

>  <MASTER>
        0    0    0    0    0    0    0    0  109    0  109    0

>  <Name>
FB1.pdb

>  <RI>
0

>  <Rbt.Current_Directory>
/home/fc/tossine/F10/p3/0_clust01

>  <Rbt.Executable>
rbdock/0.1.0

>  <Rbt.Library>
librxdock.so/0.1.0

>  <Rbt.Parameter_File>
/cluster/rxdock/data/scripts/dock.prm

>  <Rbt.Receptor>
rx_4.prm

>  <SCORE>
100.047

>  <SCORE.INTER>
24.9989

>  <SCORE.INTER.CONST>
1

>  <SCORE.INTER.POLAR>
-1.6468

>  <SCORE.INTER.REPUL>
1.23237

>  <SCORE.INTER.ROT>
32

>  <SCORE.INTER.VDW>
-12.9638

>  <SCORE.INTER.norm>
0.499978

>  <SCORE.INTRA>
53.2392

>  <SCORE.INTRA.DIHEDRAL>
69.3453

>  <SCORE.INTRA.DIHEDRAL.0>
47.3121

>  <SCORE.INTRA.POLAR>
1.47808

>  <SCORE.INTRA.POLAR.0>
-1.47808

>  <SCORE.INTRA.REPUL>
0.156374

>  <SCORE.INTRA.REPUL.0>
0

>  <SCORE.INTRA.VDW>
12.7592

>  <SCORE.INTRA.VDW.0>
-2.78316

>  <SCORE.INTRA.norm>
1.06478

>  <SCORE.RESTR>
21.8087

>  <SCORE.RESTR.CAVITY>
21.8087

>  <SCORE.RESTR.norm>
0.436173

>  <SCORE.SYSTEM>
0

>  <SCORE.SYSTEM.CONST>
0

>  <SCORE.SYSTEM.DIHEDRAL>
0

>  <SCORE.SYSTEM.norm>
0

>  <SCORE.heavy>
50

>  <SCORE.norm>
2.00094

$$$$
