FB1.pdb
  RxDock  10062018183D
librxdock.so/0.1.0
 59 58  0  0  0  0  0  0  0  0999 V2000
   -3.3597   -6.1428  -10.9966 C   0  0  0  0  0  0
   -2.9036   -6.4569  -12.4195 C   0  0  0  0  0  0
   -1.3993   -6.1983  -12.6054 C   0  0  0  0  0  0
   -0.5096   -7.3895  -12.1706 C   0  0  0  0  0  0
   -0.6908   -7.8410  -10.6794 C   0  0  0  0  0  0
   -1.2887   -9.2668  -10.6731 C   0  0  0  0  0  0
    0.6503   -7.7842   -9.8332 C   0  0  0  0  0  0
    1.6958   -6.6294  -10.2067 C   0  0  0  0  0  0
    1.4484   -5.0715  -10.0066 C   0  0  0  0  0  0
    2.0667   -4.1070  -11.1935 C   0  0  0  0  0  0
    1.2175   -4.2811  -12.4516 C   0  0  0  0  0  0
    2.1933   -2.5556  -10.8441 C   0  0  0  0  0  0
    2.7462   -1.9850   -9.4344 C   0  0  0  0  0  0
    2.2392   -2.5240   -8.0529 C   0  0  0  0  0  0
    2.1827   -1.5118   -6.8195 C   0  0  0  0  0  0
    1.7698    0.0083   -6.9357 C   0  0  0  0  0  0
    2.8725    1.0990   -6.9787 C   0  0  0  0  0  0
    3.9749    1.0325   -5.8520 C   0  0  0  0  0  0
    3.4664    0.9851   -4.4058 C   0  0  0  0  0  0
    3.9891    2.0544   -3.4050 C   0  0  0  0  0  0
    3.3577    3.4774   -3.3659 C   0  0  0  0  0  0
    4.0205    4.4876   -2.4398 C   0  0  0  0  0  0
    3.2137    4.0260   -4.7278 N   0  0  0  0  0  0
    3.7263    1.4909   -2.0945 O   0  0  0  0  0  0
    4.7796   -0.1276   -6.0894 O   0  0  0  0  0  0
    4.1566   -2.2628   -9.4509 O   0  0  0  0  0  0
    2.8975   -6.9046   -9.4369 O   0  0  0  0  0  0
    4.0622   -7.0099  -10.1280 C   0  0  0  0  0  0
    4.5809   -8.0413  -10.5107 O   0  0  0  0  0  0
    4.5604   -5.6246  -10.4348 C   0  0  0  0  0  0
    5.6653   -5.1673   -9.4691 C   0  0  0  0  0  0
    6.4414   -3.9530   -9.9950 C   0  0  0  0  0  0
    7.4197   -3.4425   -8.9628 C   0  0  0  0  0  0
    8.5509   -3.8934   -8.8190 O   0  0  0  0  0  0
    6.9329   -2.4418   -8.2141 O   0  0  0  0  0  0
    4.9560   -4.8087   -8.1559 C   0  0  0  0  0  0
    3.7402   -4.7961   -8.0365 O   0  0  0  0  0  0
    5.7810   -4.4607   -7.1588 O   0  0  0  0  0  0
    0.3673   -7.8262   -8.3778 O   0  0  0  0  0  0
    0.3600   -9.0571   -7.7431 C   0  0  0  0  0  0
    0.5416  -10.1304   -8.3029 O   0  0  0  0  0  0
    0.0966   -8.9354   -6.2364 C   0  0  0  0  0  0
    0.9879   -9.8287   -5.3186 C   0  0  0  0  0  0
    2.0490   -9.1355   -4.4446 C   0  0  0  0  0  0
    3.3716   -8.9823   -5.1386 C   0  0  0  0  0  0
    3.8827   -9.8021   -5.8892 O   0  0  0  0  0  0
    3.9612   -7.8083   -4.8660 O   0  0  0  0  0  0
    0.2080  -10.7868   -4.4097 C   0  0  0  0  0  0
    0.4400  -11.9782   -4.3524 O   0  0  0  0  0  0
   -0.6909  -10.2039   -3.5889 O   0  0  0  0  0  0
    3.0714    3.2590   -5.3836 H   0  0  0  0  0  0
    4.1024    4.4485   -5.0055 H   0  0  0  0  0  0
    4.5526    1.6447   -1.5896 H   0  0  0  0  0  0
    5.0160   -0.1456   -7.0351 H   0  0  0  0  0  0
    4.2818   -3.1623   -9.7969 H   0  0  0  0  0  0
    5.9937   -2.2242   -8.3694 H   0  0  0  0  0  0
    5.3251   -4.2217   -6.3139 H   0  0  0  0  0  0
    3.2842   -7.2476   -4.4318 H   0  0  0  0  0  0
   -1.5822  -10.6184   -3.5806 H   0  0  0  0  0  0
  1  2  1  0  0  0
  2  3  1  0  0  0
  3  4  1  0  0  0
  4  5  1  0  0  0
  5  6  1  0  0  0
  5  7  1  0  0  0
  7  8  1  0  0  0
  7 39  1  0  0  0
  8  9  1  0  0  0
  8 27  1  0  0  0
  9 10  1  0  0  0
 10 11  1  0  0  0
 10 12  1  0  0  0
 12 13  1  0  0  0
 13 14  1  0  0  0
 13 26  1  0  0  0
 14 15  1  0  0  0
 15 16  1  0  0  0
 16 17  1  0  0  0
 17 18  1  0  0  0
 18 19  1  0  0  0
 18 25  1  0  0  0
 19 20  1  0  0  0
 20 21  1  0  0  0
 20 24  1  0  0  0
 21 22  1  0  0  0
 21 23  1  0  0  0
 23 51  1  0  0  0
 23 52  1  0  0  0
 24 53  1  0  0  0
 25 54  1  0  0  0
 26 55  1  0  0  0
 27 28  1  0  0  0
 28 29  2  0  0  0
 28 30  1  0  0  0
 30 31  1  0  0  0
 31 32  1  0  0  0
 31 36  1  0  0  0
 32 33  1  0  0  0
 33 34  2  0  0  0
 33 35  1  0  0  0
 35 56  1  0  0  0
 36 37  2  0  0  0
 36 38  1  0  0  0
 38 57  1  0  0  0
 39 40  1  0  0  0
 40 41  2  0  0  0
 40 42  1  0  0  0
 42 43  1  0  0  0
 43 44  1  0  0  0
 43 48  1  0  0  0
 44 45  1  0  0  0
 45 46  2  0  0  0
 45 47  1  0  0  0
 47 58  1  0  0  0
 48 49  2  0  0  0
 48 50  1  0  0  0
 50 59  1  0  0  0
M  END
>  <AUTHOR>
    GENERATED BY OPEN BABEL 2.4.1

>  <CHROM.1>
84.65614226,-57.68475117,114.40761544,33.02872781,66.55846076,92.54649206
-142.78592877,125.38707010,72.13822941,43.42343611,-47.98520584,-147.98868912
-43.00558132,37.39555384,-99.74924586,-50.39873612,-53.08981913,-125.24155547
46.79247874,81.57483576,-174.73441736,134.72085562,30.06381940,-96.23407929
99.99513471,163.93703007,174.10130094,-6.17721261,85.26817640,5.29933627
179.50013841,-1.76337585,-137.09559679,109.91438003,-89.25287070,128.20316252
-37.90861202,-12.43043250,131.96975724,2.56741945,-4.75051249,-7.79568140
2.95902808,1.22817276,2.06417334

>  <COMPND>
    UNNAMED

>  <MASTER>
        0    0    0    0    0    0    0    0  109    0  109    0

>  <Name>
FB1.pdb

>  <RI>
0

>  <Rbt.Current_Directory>
/home/fc/tossine/F10/p3/0_clust01

>  <Rbt.Executable>
rbdock/0.1.0

>  <Rbt.Library>
librxdock.so/0.1.0

>  <Rbt.Parameter_File>
/cluster/rxdock/data/scripts/dock.prm

>  <Rbt.Receptor>
rx_4.prm

>  <SCORE>
85.8289

>  <SCORE.INTER>
36.7631

>  <SCORE.INTER.CONST>
1

>  <SCORE.INTER.POLAR>
-1.69564

>  <SCORE.INTER.REPUL>
0.810286

>  <SCORE.INTER.ROT>
32

>  <SCORE.INTER.VDW>
1.07684

>  <SCORE.INTER.norm>
0.735262

>  <SCORE.INTRA>
36.0046

>  <SCORE.INTRA.DIHEDRAL>
64.8926

>  <SCORE.INTRA.DIHEDRAL.0>
47.3121

>  <SCORE.INTRA.POLAR>
0.478077

>  <SCORE.INTRA.POLAR.0>
-1.47808

>  <SCORE.INTRA.REPUL>
0

>  <SCORE.INTRA.REPUL.0>
0

>  <SCORE.INTRA.VDW>
1.93281

>  <SCORE.INTRA.VDW.0>
-2.78316

>  <SCORE.INTRA.norm>
0.720091

>  <SCORE.RESTR>
13.0612

>  <SCORE.RESTR.CAVITY>
13.0612

>  <SCORE.RESTR.norm>
0.261224

>  <SCORE.SYSTEM>
0

>  <SCORE.SYSTEM.CONST>
0

>  <SCORE.SYSTEM.DIHEDRAL>
0

>  <SCORE.SYSTEM.norm>
0

>  <SCORE.heavy>
50

>  <SCORE.norm>
1.71658

$$$$
