FB1.pdb
  RxDock  10062017213D
librxdock.so/0.1.0
 59 58  0  0  0  0  0  0  0  0999 V2000
  -15.0739   -7.8686    8.5343 C   0  0  0  0  0  0
  -13.5852   -7.6085    8.7521 C   0  0  0  0  0  0
  -13.2722   -6.1042    8.8084 C   0  0  0  0  0  0
  -13.5465   -5.4678   10.1939 C   0  0  0  0  0  0
  -13.3622   -3.9113   10.2551 C   0  0  0  0  0  0
  -13.5250   -3.4605   11.7251 C   0  0  0  0  0  0
  -11.9784   -3.4135    9.6589 C   0  0  0  0  0  0
  -11.5094   -1.9331   10.0520 C   0  0  0  0  0  0
  -10.1754   -1.5748   10.8396 C   0  0  0  0  0  0
   -9.3576   -0.2608   10.2687 C   0  0  0  0  0  0
   -8.6193   -0.6652    8.9937 C   0  0  0  0  0  0
  -10.2313    1.0444    9.9896 C   0  0  0  0  0  0
  -10.9701    1.9058   11.1433 C   0  0  0  0  0  0
  -10.1769    2.7315   12.2133 C   0  0  0  0  0  0
   -8.6799    3.1708   11.8738 C   0  0  0  0  0  0
   -8.1601    4.6616   11.9162 C   0  0  0  0  0  0
   -8.6832    5.6838   10.8727 C   0  0  0  0  0  0
   -7.6080    6.6310   10.2124 C   0  0  0  0  0  0
   -6.1438    6.3528   10.5743 C   0  0  0  0  0  0
   -5.3824    5.2568    9.7759 C   0  0  0  0  0  0
   -3.8517    5.0514    9.9760 C   0  0  0  0  0  0
   -2.9823    6.2971    9.8764 C   0  0  0  0  0  0
   -3.5790    4.3167   11.2259 N   0  0  0  0  0  0
   -5.9871    4.0077   10.1978 O   0  0  0  0  0  0
   -7.7508    6.5379    8.7909 O   0  0  0  0  0  0
  -11.7605    2.8738   10.4327 O   0  0  0  0  0  0
  -11.3990   -1.1969    8.8037 O   0  0  0  0  0  0
  -12.4867   -1.1959    7.9899 C   0  0  0  0  0  0
  -13.6356   -1.4141    8.3243 O   0  0  0  0  0  0
  -12.0505   -0.7777    6.6129 C   0  0  0  0  0  0
  -13.2347   -0.4081    5.7053 C   0  0  0  0  0  0
  -14.1185   -1.6162    5.3697 C   0  0  0  0  0  0
  -13.3050   -2.8884    5.3148 C   0  0  0  0  0  0
  -12.7664   -3.3056    4.2951 O   0  0  0  0  0  0
  -13.2245   -3.5225    6.4938 O   0  0  0  0  0  0
  -14.0479    0.6391    6.4785 C   0  0  0  0  0  0
  -15.1119    0.3878    7.0238 O   0  0  0  0  0  0
  -13.5186    1.8702    6.4657 O   0  0  0  0  0  0
  -10.9068   -4.4133    9.8865 O   0  0  0  0  0  0
  -10.3507   -4.5070   11.1515 C   0  0  0  0  0  0
  -10.8012   -3.9647   12.1521 O   0  0  0  0  0  0
   -9.0875   -5.3778   11.1709 C   0  0  0  0  0  0
   -9.3216   -6.9064   11.3787 C   0  0  0  0  0  0
   -9.5666   -7.4123   12.8120 C   0  0  0  0  0  0
  -10.6609   -6.6655   13.5187 C   0  0  0  0  0  0
  -11.6904   -6.2518   13.0033 O   0  0  0  0  0  0
  -10.4083   -6.5007   14.8261 O   0  0  0  0  0  0
  -10.4177   -7.5099   10.4918 C   0  0  0  0  0  0
  -11.3946   -8.0753   10.9421 O   0  0  0  0  0  0
  -10.2846   -7.2799    9.1687 O   0  0  0  0  0  0
   -3.1793    4.9578   11.9099 H   0  0  0  0  0  0
   -2.8431    3.6298   11.0472 H   0  0  0  0  0  0
   -6.8803    4.0171    9.7935 H   0  0  0  0  0  0
   -7.1535    7.1909    8.3818 H   0  0  0  0  0  0
  -11.1614    3.4055    9.8824 H   0  0  0  0  0  0
  -12.6775   -4.3314    6.4954 H   0  0  0  0  0  0
  -12.6400    1.9342    6.0155 H   0  0  0  0  0  0
  -11.2294   -6.1474   15.2289 H   0  0  0  0  0  0
  -10.9948   -7.6572    8.6036 H   0  0  0  0  0  0
  1  2  1  0  0  0
  2  3  1  0  0  0
  3  4  1  0  0  0
  4  5  1  0  0  0
  5  6  1  0  0  0
  5  7  1  0  0  0
  7  8  1  0  0  0
  7 39  1  0  0  0
  8  9  1  0  0  0
  8 27  1  0  0  0
  9 10  1  0  0  0
 10 11  1  0  0  0
 10 12  1  0  0  0
 12 13  1  0  0  0
 13 14  1  0  0  0
 13 26  1  0  0  0
 14 15  1  0  0  0
 15 16  1  0  0  0
 16 17  1  0  0  0
 17 18  1  0  0  0
 18 19  1  0  0  0
 18 25  1  0  0  0
 19 20  1  0  0  0
 20 21  1  0  0  0
 20 24  1  0  0  0
 21 22  1  0  0  0
 21 23  1  0  0  0
 23 51  1  0  0  0
 23 52  1  0  0  0
 24 53  1  0  0  0
 25 54  1  0  0  0
 26 55  1  0  0  0
 27 28  1  0  0  0
 28 29  2  0  0  0
 28 30  1  0  0  0
 30 31  1  0  0  0
 31 32  1  0  0  0
 31 36  1  0  0  0
 32 33  1  0  0  0
 33 34  2  0  0  0
 33 35  1  0  0  0
 35 56  1  0  0  0
 36 37  2  0  0  0
 36 38  1  0  0  0
 38 57  1  0  0  0
 39 40  1  0  0  0
 40 41  2  0  0  0
 40 42  1  0  0  0
 42 43  1  0  0  0
 43 44  1  0  0  0
 43 48  1  0  0  0
 44 45  1  0  0  0
 45 46  2  0  0  0
 45 47  1  0  0  0
 47 58  1  0  0  0
 48 49  2  0  0  0
 48 50  1  0  0  0
 50 59  1  0  0  0
M  END
>  <AUTHOR>
    GENERATED BY OPEN BABEL 2.4.1

>  <CHROM.1>
81.71728496,-174.75828771,-174.09830690,-162.64859348,119.18334697,-76.89172424
138.22372216,53.59261715,-76.38354693,66.50279017,67.60717782,22.31293476
-58.98743152,124.80001710,-68.03612239,-135.95075592,5.53715440,83.84246466
174.11673972,172.41740911,-50.59297952,71.00253982,-107.95271876,21.73122635
-165.83749393,-66.99630081,-31.52178082,-104.95721171,-89.79963501,-177.87830628
-4.15936826,11.08352875,-87.41766380,-80.10428134,52.14276749,-121.58595853
36.98861499,-170.57746754,-179.19470093,-10.59243922,-1.26636799,9.72455768
2.19460603,0.71109702,2.72684299

>  <COMPND>
    UNNAMED

>  <MASTER>
        0    0    0    0    0    0    0    0  109    0  109    0

>  <Name>
FB1.pdb

>  <RI>
0

>  <Rbt.Current_Directory>
/home/fc/tossine/F10/p3/0_clust01

>  <Rbt.Executable>
rbdock/0.1.0

>  <Rbt.Library>
librxdock.so/0.1.0

>  <Rbt.Parameter_File>
/cluster/rxdock/data/scripts/dock.prm

>  <Rbt.Receptor>
rx_2.prm

>  <SCORE>
34.4095

>  <SCORE.INTER>
10.5943

>  <SCORE.INTER.CONST>
1

>  <SCORE.INTER.POLAR>
-1.77086

>  <SCORE.INTER.REPUL>
0.742024

>  <SCORE.INTER.ROT>
32

>  <SCORE.INTER.VDW>
-24.4949

>  <SCORE.INTER.norm>
0.211886

>  <SCORE.INTRA>
14.7671

>  <SCORE.INTRA.DIHEDRAL>
14.5027

>  <SCORE.INTRA.DIHEDRAL.0>
47.3121

>  <SCORE.INTRA.POLAR>
1.47808

>  <SCORE.INTRA.POLAR.0>
-1.47808

>  <SCORE.INTRA.REPUL>
0

>  <SCORE.INTRA.REPUL.0>
0

>  <SCORE.INTRA.VDW>
2.49035

>  <SCORE.INTRA.VDW.0>
-2.78316

>  <SCORE.INTRA.norm>
0.295343

>  <SCORE.RESTR>
9.04812

>  <SCORE.RESTR.CAVITY>
9.04812

>  <SCORE.RESTR.norm>
0.180962

>  <SCORE.SYSTEM>
0

>  <SCORE.SYSTEM.CONST>
0

>  <SCORE.SYSTEM.DIHEDRAL>
0

>  <SCORE.SYSTEM.norm>
0

>  <SCORE.heavy>
50

>  <SCORE.norm>
0.688191

$$$$
