FB1.pdb
  RxDock  10062018273D
librxdock.so/0.1.0
 59 58  0  0  0  0  0  0  0  0999 V2000
   -0.3895   -9.0622  -11.9970 C   0  0  0  0  0  0
    0.6597   -8.5435  -11.0165 C   0  0  0  0  0  0
    0.0168   -7.7902   -9.8404 C   0  0  0  0  0  0
    0.7789   -6.5018   -9.4417 C   0  0  0  0  0  0
    1.3662   -5.6819  -10.6431 C   0  0  0  0  0  0
    0.2941   -5.6147  -11.7552 C   0  0  0  0  0  0
    1.8559   -4.2279  -10.2383 C   0  0  0  0  0  0
    3.0433   -4.1341   -9.1670 C   0  0  0  0  0  0
    2.9433   -3.4187   -7.7506 C   0  0  0  0  0  0
    3.0816   -1.7753   -7.7857 C   0  0  0  0  0  0
    1.9249   -1.1740   -6.9891 C   0  0  0  0  0  0
    4.4626   -1.1746   -7.2595 C   0  0  0  0  0  0
    4.6656    0.3622   -6.7949 C   0  0  0  0  0  0
    3.6434    1.1004   -5.8642 C   0  0  0  0  0  0
    4.1762    2.3000   -4.9552 C   0  0  0  0  0  0
    3.3336    2.9905   -3.8116 C   0  0  0  0  0  0
    2.7493    2.1253   -2.6638 C   0  0  0  0  0  0
    3.2626    0.6363   -2.5711 C   0  0  0  0  0  0
    2.7156   -0.3375   -3.6223 C   0  0  0  0  0  0
    2.0864   -1.6730   -3.1336 C   0  0  0  0  0  0
    2.9140   -2.6670   -2.2661 C   0  0  0  0  0  0
    3.4767   -3.8860   -2.9835 C   0  0  0  0  0  0
    3.9718   -1.9589   -1.5206 N   0  0  0  0  0  0
    0.9784   -1.2699   -2.2887 O   0  0  0  0  0  0
    4.6909    0.6546   -2.6677 O   0  0  0  0  0  0
    5.9062    0.3679   -6.0686 O   0  0  0  0  0  0
    3.4164   -5.5033   -8.8531 O   0  0  0  0  0  0
    4.6814   -5.8855   -9.1675 C   0  0  0  0  0  0
    4.9972   -6.7053  -10.0087 O   0  0  0  0  0  0
    5.6435   -5.0491   -8.3697 C   0  0  0  0  0  0
    7.0050   -4.8907   -9.0651 C   0  0  0  0  0  0
    7.7377   -3.6117   -8.6400 C   0  0  0  0  0  0
    7.0770   -2.3850   -9.2249 C   0  0  0  0  0  0
    5.8686   -2.2884   -9.4094 O   0  0  0  0  0  0
    7.9412   -1.4039   -9.5239 O   0  0  0  0  0  0
    7.8277   -6.1241   -8.6676 C   0  0  0  0  0  0
    9.0022   -6.0641   -8.3370 O   0  0  0  0  0  0
    7.1643   -7.2847   -8.7604 O   0  0  0  0  0  0
    2.1261   -3.4003  -11.4391 O   0  0  0  0  0  0
    2.7863   -2.1942  -11.2733 C   0  0  0  0  0  0
    3.8355   -1.8928  -11.8272 O   0  0  0  0  0  0
    2.0533   -1.2555  -10.3059 C   0  0  0  0  0  0
    1.3283   -0.0392  -10.9611 C   0  0  0  0  0  0
    2.1076    1.2821  -11.0931 C   0  0  0  0  0  0
    1.9234    1.9406  -12.4299 C   0  0  0  0  0  0
    2.7299    1.9258  -13.3497 O   0  0  0  0  0  0
    0.7372    2.5581  -12.5387 O   0  0  0  0  0  0
    0.6995   -0.3328  -12.3288 C   0  0  0  0  0  0
    1.2610   -0.0914  -13.3791 O   0  0  0  0  0  0
   -0.4840   -0.9804  -12.2954 O   0  0  0  0  0  0
    4.5083   -2.6349   -0.9786 H   0  0  0  0  0  0
    3.5313   -1.3533   -0.8244 H   0  0  0  0  0  0
    0.3304   -0.8695   -2.9061 H   0  0  0  0  0  0
    5.0034    1.5349   -2.3885 H   0  0  0  0  0  0
    6.5008   -0.2789   -6.4840 H   0  0  0  0  0  0
    7.5441   -0.6064   -9.9237 H   0  0  0  0  0  0
    7.2701   -7.8812   -7.9782 H   0  0  0  0  0  0
    0.3527    2.5896  -11.6373 H   0  0  0  0  0  0
   -0.9236   -1.0965  -13.1669 H   0  0  0  0  0  0
  1  2  1  0  0  0
  2  3  1  0  0  0
  3  4  1  0  0  0
  4  5  1  0  0  0
  5  6  1  0  0  0
  5  7  1  0  0  0
  7  8  1  0  0  0
  7 39  1  0  0  0
  8  9  1  0  0  0
  8 27  1  0  0  0
  9 10  1  0  0  0
 10 11  1  0  0  0
 10 12  1  0  0  0
 12 13  1  0  0  0
 13 14  1  0  0  0
 13 26  1  0  0  0
 14 15  1  0  0  0
 15 16  1  0  0  0
 16 17  1  0  0  0
 17 18  1  0  0  0
 18 19  1  0  0  0
 18 25  1  0  0  0
 19 20  1  0  0  0
 20 21  1  0  0  0
 20 24  1  0  0  0
 21 22  1  0  0  0
 21 23  1  0  0  0
 23 51  1  0  0  0
 23 52  1  0  0  0
 24 53  1  0  0  0
 25 54  1  0  0  0
 26 55  1  0  0  0
 27 28  1  0  0  0
 28 29  2  0  0  0
 28 30  1  0  0  0
 30 31  1  0  0  0
 31 32  1  0  0  0
 31 36  1  0  0  0
 32 33  1  0  0  0
 33 34  2  0  0  0
 33 35  1  0  0  0
 35 56  1  0  0  0
 36 37  2  0  0  0
 36 38  1  0  0  0
 38 57  1  0  0  0
 39 40  1  0  0  0
 40 41  2  0  0  0
 40 42  1  0  0  0
 42 43  1  0  0  0
 43 44  1  0  0  0
 43 48  1  0  0  0
 44 45  1  0  0  0
 45 46  2  0  0  0
 45 47  1  0  0  0
 47 58  1  0  0  0
 48 49  2  0  0  0
 48 50  1  0  0  0
 50 59  1  0  0  0
M  END
>  <AUTHOR>
    GENERATED BY OPEN BABEL 2.4.1

>  <CHROM.1>
-138.52333027,38.08485098,43.68907261,61.91036887,-119.53911529,-168.55088237
-79.28180387,117.27764602,130.21893050,-161.14835108,45.24298819,153.40593770
34.47610327,-170.12998645,56.15121501,11.00270014,-74.31576386,-128.12170270
23.73512881,-57.54152476,-102.26559958,68.38657623,-178.80913989,-113.24825554
-152.81748354,154.38973938,-71.94094532,-136.49318077,33.72918072,178.59583078
-133.96482895,122.54500747,-106.88197073,-91.81195544,136.47437230,-95.80009159
-102.35029864,11.92084850,174.77778439,3.37287323,-2.38500330,-8.32311000
-1.92102737,-1.12044737,0.67561985

>  <COMPND>
    UNNAMED

>  <MASTER>
        0    0    0    0    0    0    0    0  109    0  109    0

>  <Name>
FB1.pdb

>  <RI>
0

>  <Rbt.Current_Directory>
/home/fc/tossine/F10/p3/0_clust01

>  <Rbt.Executable>
rbdock/0.1.0

>  <Rbt.Library>
librxdock.so/0.1.0

>  <Rbt.Parameter_File>
/cluster/rxdock/data/scripts/dock.prm

>  <Rbt.Receptor>
rx_4.prm

>  <SCORE>
140.807

>  <SCORE.INTER>
63.579

>  <SCORE.INTER.CONST>
1

>  <SCORE.INTER.POLAR>
-1.22527

>  <SCORE.INTER.REPUL>
2.19189

>  <SCORE.INTER.ROT>
32

>  <SCORE.INTER.VDW>
19.3855

>  <SCORE.INTER.norm>
1.27158

>  <SCORE.INTRA>
62.5832

>  <SCORE.INTRA.DIHEDRAL>
79.7018

>  <SCORE.INTRA.DIHEDRAL.0>
47.3121

>  <SCORE.INTRA.POLAR>
1.47808

>  <SCORE.INTRA.POLAR.0>
-1.47808

>  <SCORE.INTRA.REPUL>
0.0253317

>  <SCORE.INTRA.REPUL.0>
0

>  <SCORE.INTRA.VDW>
17.5802

>  <SCORE.INTRA.VDW.0>
-2.78316

>  <SCORE.INTRA.norm>
1.25166

>  <SCORE.RESTR>
14.6449

>  <SCORE.RESTR.CAVITY>
14.6449

>  <SCORE.RESTR.norm>
0.292897

>  <SCORE.SYSTEM>
0

>  <SCORE.SYSTEM.CONST>
0

>  <SCORE.SYSTEM.DIHEDRAL>
0

>  <SCORE.SYSTEM.norm>
0

>  <SCORE.heavy>
50

>  <SCORE.norm>
2.81614

$$$$
