FB1.pdb
  RxDock  10062016363D
librxdock.so/0.1.0
 59 58  0  0  0  0  0  0  0  0999 V2000
  -11.0392    2.6636   12.0194 C   0  0  0  0  0  0
  -10.1892    1.5148   12.5570 C   0  0  0  0  0  0
  -10.4582    0.2043   11.7990 C   0  0  0  0  0  0
  -11.9612   -0.0549   11.5279 C   0  0  0  0  0  0
  -12.3142   -1.5254   11.1113 C   0  0  0  0  0  0
  -13.8169   -1.7611   11.3889 C   0  0  0  0  0  0
  -11.9569   -1.8590    9.6017 C   0  0  0  0  0  0
  -12.3043   -3.3342    9.0827 C   0  0  0  0  0  0
  -12.9463   -4.4883    9.9683 C   0  0  0  0  0  0
  -12.1877   -4.7709   11.4057 C   0  0  0  0  0  0
  -13.2511   -5.0016   12.4782 C   0  0  0  0  0  0
  -11.1404   -5.9740   11.4234 C   0  0  0  0  0  0
  -11.5519   -7.5368   11.3409 C   0  0  0  0  0  0
  -12.9957   -8.0060   10.9520 C   0  0  0  0  0  0
  -13.7563   -7.2271    9.7841 C   0  0  0  0  0  0
  -13.4515   -7.4145    8.2458 C   0  0  0  0  0  0
  -13.9985   -6.3805    7.2264 C   0  0  0  0  0  0
  -15.5509   -6.4179    6.9475 C   0  0  0  0  0  0
  -15.9746   -6.7002    5.5007 C   0  0  0  0  0  0
  -15.3513   -5.8360    4.3679 C   0  0  0  0  0  0
  -14.5960   -6.5089    3.1838 C   0  0  0  0  0  0
  -13.8216   -5.5802    2.2590 C   0  0  0  0  0  0
  -13.7390   -7.6092    3.6645 N   0  0  0  0  0  0
  -16.4803   -5.1602    3.7576 O   0  0  0  0  0  0
  -16.1277   -7.4184    7.7937 O   0  0  0  0  0  0
  -10.6922   -8.0925   10.3316 O   0  0  0  0  0  0
  -13.2350   -3.1679    7.9788 O   0  0  0  0  0  0
  -12.7005   -2.9947    6.7421 C   0  0  0  0  0  0
  -11.5512   -2.6846    6.4920 O   0  0  0  0  0  0
  -13.7434   -3.3505    5.7187 C   0  0  0  0  0  0
  -14.5651   -2.1332    5.2654 C   0  0  0  0  0  0
  -13.7749   -1.2025    4.3366 C   0  0  0  0  0  0
  -14.6649   -0.1285    3.7553 C   0  0  0  0  0  0
  -15.6726    0.2926    4.3129 O   0  0  0  0  0  0
  -14.2463    0.3259    2.5649 O   0  0  0  0  0  0
  -15.7857   -2.6995    4.5270 C   0  0  0  0  0  0
  -15.9148   -2.6465    3.3134 O   0  0  0  0  0  0
  -16.7269   -3.2159    5.3292 O   0  0  0  0  0  0
  -12.4732   -0.8132    8.6855 O   0  0  0  0  0  0
  -11.6853    0.3004    8.4458 C   0  0  0  0  0  0
  -10.7160    0.6255    9.1189 O   0  0  0  0  0  0
  -12.1607    1.1002    7.2257 C   0  0  0  0  0  0
  -11.2476    1.0167    5.9633 C   0  0  0  0  0  0
  -10.4367   -0.2732    5.7411 C   0  0  0  0  0  0
   -9.4982   -0.5782    6.8727 C   0  0  0  0  0  0
   -9.7437   -1.3019    7.8280 O   0  0  0  0  0  0
   -8.3079    0.0240    6.7288 O   0  0  0  0  0  0
  -11.9555    1.3399    4.6417 C   0  0  0  0  0  0
  -12.9632    2.0163    4.5807 O   0  0  0  0  0  0
  -11.3259    0.9120    3.5274 O   0  0  0  0  0  0
  -12.7990   -7.4887    3.2897 H   0  0  0  0  0  0
  -14.0741   -8.4857    3.2583 H   0  0  0  0  0  0
  -16.0927   -4.6591    3.0093 H   0  0  0  0  0  0
  -15.8162   -8.2907    7.4894 H   0  0  0  0  0  0
   -9.8874   -8.4185   10.7682 H   0  0  0  0  0  0
  -13.4402   -0.1008    2.2161 H   0  0  0  0  0  0
  -17.3654   -2.5529    5.6919 H   0  0  0  0  0  0
   -7.7038   -0.3868    7.3828 H   0  0  0  0  0  0
  -11.7868    1.1109    2.6823 H   0  0  0  0  0  0
  1  2  1  0  0  0
  2  3  1  0  0  0
  3  4  1  0  0  0
  4  5  1  0  0  0
  5  6  1  0  0  0
  5  7  1  0  0  0
  7  8  1  0  0  0
  7 39  1  0  0  0
  8  9  1  0  0  0
  8 27  1  0  0  0
  9 10  1  0  0  0
 10 11  1  0  0  0
 10 12  1  0  0  0
 12 13  1  0  0  0
 13 14  1  0  0  0
 13 26  1  0  0  0
 14 15  1  0  0  0
 15 16  1  0  0  0
 16 17  1  0  0  0
 17 18  1  0  0  0
 18 19  1  0  0  0
 18 25  1  0  0  0
 19 20  1  0  0  0
 20 21  1  0  0  0
 20 24  1  0  0  0
 21 22  1  0  0  0
 21 23  1  0  0  0
 23 51  1  0  0  0
 23 52  1  0  0  0
 24 53  1  0  0  0
 25 54  1  0  0  0
 26 55  1  0  0  0
 27 28  1  0  0  0
 28 29  2  0  0  0
 28 30  1  0  0  0
 30 31  1  0  0  0
 31 32  1  0  0  0
 31 36  1  0  0  0
 32 33  1  0  0  0
 33 34  2  0  0  0
 33 35  1  0  0  0
 35 56  1  0  0  0
 36 37  2  0  0  0
 36 38  1  0  0  0
 38 57  1  0  0  0
 39 40  1  0  0  0
 40 41  2  0  0  0
 40 42  1  0  0  0
 42 43  1  0  0  0
 43 44  1  0  0  0
 43 48  1  0  0  0
 44 45  1  0  0  0
 45 46  2  0  0  0
 45 47  1  0  0  0
 47 58  1  0  0  0
 48 49  2  0  0  0
 48 50  1  0  0  0
 50 59  1  0  0  0
M  END
>  <AUTHOR>
    GENERATED BY OPEN BABEL 2.4.1

>  <CHROM.1>
-42.95518140,-164.45755528,159.17302155,-179.10349187,-1.37158502,86.64227031
-50.78413789,87.67443246,138.87914391,-70.90546882,12.43206248,40.27389580
90.67719077,76.69430112,-165.46905892,-72.40695559,-119.62255859,-51.73966784
-68.29498513,123.80188173,-169.86530583,-176.63360513,-129.29516253,-16.64218151
92.45745376,73.92362064,171.94295959,-106.87675373,27.40681669,1.26212945
84.36348855,-14.99693875,-108.53066926,29.94683427,-59.15751072,23.46541260
93.78502101,-167.21945838,179.30264625,-12.94515764,-2.79434257,7.34094594
-0.37242490,1.06512125,2.45272803

>  <COMPND>
    UNNAMED

>  <MASTER>
        0    0    0    0    0    0    0    0  109    0  109    0

>  <Name>
FB1.pdb

>  <RI>
0

>  <Rbt.Current_Directory>
/home/fc/tossine/F10/p3/0_clust01

>  <Rbt.Executable>
rbdock/0.1.0

>  <Rbt.Library>
librxdock.so/0.1.0

>  <Rbt.Parameter_File>
/cluster/rxdock/data/scripts/dock.prm

>  <Rbt.Receptor>
rx_1.prm

>  <SCORE>
57.6761

>  <SCORE.INTER>
16.4134

>  <SCORE.INTER.CONST>
1

>  <SCORE.INTER.POLAR>
-2.45662

>  <SCORE.INTER.REPUL>
0.0853199

>  <SCORE.INTER.ROT>
32

>  <SCORE.INTER.VDW>
-13.0607

>  <SCORE.INTER.norm>
0.328267

>  <SCORE.INTRA>
30.6661

>  <SCORE.INTRA.DIHEDRAL>
45.5641

>  <SCORE.INTRA.DIHEDRAL.0>
47.3121

>  <SCORE.INTRA.POLAR>
1.47808

>  <SCORE.INTRA.POLAR.0>
-1.47808

>  <SCORE.INTRA.REPUL>
0

>  <SCORE.INTRA.REPUL.0>
0

>  <SCORE.INTRA.VDW>
2.85861

>  <SCORE.INTRA.VDW.0>
-2.78316

>  <SCORE.INTRA.norm>
0.613323

>  <SCORE.RESTR>
10.5966

>  <SCORE.RESTR.CAVITY>
10.5966

>  <SCORE.RESTR.norm>
0.211931

>  <SCORE.SYSTEM>
0

>  <SCORE.SYSTEM.CONST>
0

>  <SCORE.SYSTEM.DIHEDRAL>
0

>  <SCORE.SYSTEM.norm>
0

>  <SCORE.heavy>
50

>  <SCORE.norm>
1.15352

$$$$
