FB1.pdb
  RxDock  10062016363D
librxdock.so/0.1.0
 59 58  0  0  0  0  0  0  0  0999 V2000
    7.5685   -5.2922   -8.3742 C   0  0  0  0  0  0
    7.4610   -3.7839   -8.5856 C   0  0  0  0  0  0
    6.4959   -3.4369   -9.7312 C   0  0  0  0  0  0
    5.0058   -3.6635   -9.3734 C   0  0  0  0  0  0
    4.0075   -3.5179  -10.5745 C   0  0  0  0  0  0
    4.5649   -4.3251  -11.7697 C   0  0  0  0  0  0
    2.5269   -3.9697  -10.2257 C   0  0  0  0  0  0
    2.2873   -5.5322   -9.9658 C   0  0  0  0  0  0
    1.5335   -6.5198  -10.9581 C   0  0  0  0  0  0
   -0.0692   -6.1987  -11.1809 C   0  0  0  0  0  0
   -0.2433   -5.5165  -12.5368 C   0  0  0  0  0  0
   -1.0571   -7.4472  -11.0795 C   0  0  0  0  0  0
   -2.6451   -7.3749  -11.3823 C   0  0  0  0  0  0
   -3.4721   -6.0537  -11.2197 C   0  0  0  0  0  0
   -3.6842   -5.1300  -12.5046 C   0  0  0  0  0  0
   -4.5434   -5.5429  -13.7639 C   0  0  0  0  0  0
   -4.5207   -4.6486  -15.0316 C   0  0  0  0  0  0
   -4.7901   -3.1094  -14.8141 C   0  0  0  0  0  0
   -5.9855   -2.7481  -13.9235 C   0  0  0  0  0  0
   -6.1204   -1.2794  -13.4306 C   0  0  0  0  0  0
   -5.7117   -0.0939  -14.3543 C   0  0  0  0  0  0
   -6.4463    0.0139  -15.6833 C   0  0  0  0  0  0
   -5.7594    1.1848  -13.6202 N   0  0  0  0  0  0
   -7.5403   -1.0996  -13.1951 O   0  0  0  0  0  0
   -3.6097   -2.5300  -14.2480 O   0  0  0  0  0  0
   -2.7733   -7.7295  -12.7695 O   0  0  0  0  0  0
    3.6047   -6.1236   -9.8015 O   0  0  0  0  0  0
    3.8146   -6.8604   -8.6797 C   0  0  0  0  0  0
    4.3496   -6.4771   -7.6568 O   0  0  0  0  0  0
    3.1817   -8.2109   -8.8720 C   0  0  0  0  0  0
    3.3099   -8.7228  -10.3156 C   0  0  0  0  0  0
    4.5512   -9.6006  -10.5207 C   0  0  0  0  0  0
    5.8122   -8.8581  -10.1441 C   0  0  0  0  0  0
    6.8580   -9.4146   -9.8273 O   0  0  0  0  0  0
    5.6809   -7.5241  -10.1904 O   0  0  0  0  0  0
    2.0387   -9.5387  -10.5883 C   0  0  0  0  0  0
    1.1275   -9.1371  -11.2960 O   0  0  0  0  0  0
    1.9865  -10.7129   -9.9446 O   0  0  0  0  0  0
    1.9528   -3.1334   -9.1437 O   0  0  0  0  0  0
    2.4649   -3.2684   -7.8641 C   0  0  0  0  0  0
    3.0199   -4.2731   -7.4386 O   0  0  0  0  0  0
    2.2622   -2.0047   -7.0177 C   0  0  0  0  0  0
    3.5053   -1.0710   -6.8861 C   0  0  0  0  0  0
    4.0792   -0.4453   -8.1705 C   0  0  0  0  0  0
    5.5635   -0.6304   -8.3006 C   0  0  0  0  0  0
    6.3441   -0.8086   -7.3757 O   0  0  0  0  0  0
    5.9745   -0.6004   -9.5775 O   0  0  0  0  0  0
    3.3476    0.0603   -5.8626 C   0  0  0  0  0  0
    2.6748   -0.0487   -4.8565 O   0  0  0  0  0  0
    4.0945    1.1600   -6.0948 O   0  0  0  0  0  0
   -4.9075    1.7110  -13.8101 H   0  0  0  0  0  0
   -5.7289    0.9872  -12.6175 H   0  0  0  0  0  0
   -7.6214   -0.1790  -12.8677 H   0  0  0  0  0  0
   -3.5417   -2.8229  -13.3206 H   0  0  0  0  0  0
   -2.1795   -7.1562  -13.2826 H   0  0  0  0  0  0
    4.9270   -7.1978  -10.7183 H   0  0  0  0  0  0
    1.0875  -11.1251   -9.9157 H   0  0  0  0  0  0
    5.1673   -0.6262  -10.1335 H   0  0  0  0  0  0
    5.0110    0.9870   -6.4051 H   0  0  0  0  0  0
  1  2  1  0  0  0
  2  3  1  0  0  0
  3  4  1  0  0  0
  4  5  1  0  0  0
  5  6  1  0  0  0
  5  7  1  0  0  0
  7  8  1  0  0  0
  7 39  1  0  0  0
  8  9  1  0  0  0
  8 27  1  0  0  0
  9 10  1  0  0  0
 10 11  1  0  0  0
 10 12  1  0  0  0
 12 13  1  0  0  0
 13 14  1  0  0  0
 13 26  1  0  0  0
 14 15  1  0  0  0
 15 16  1  0  0  0
 16 17  1  0  0  0
 17 18  1  0  0  0
 18 19  1  0  0  0
 18 25  1  0  0  0
 19 20  1  0  0  0
 20 21  1  0  0  0
 20 24  1  0  0  0
 21 22  1  0  0  0
 21 23  1  0  0  0
 23 51  1  0  0  0
 23 52  1  0  0  0
 24 53  1  0  0  0
 25 54  1  0  0  0
 26 55  1  0  0  0
 27 28  1  0  0  0
 28 29  2  0  0  0
 28 30  1  0  0  0
 30 31  1  0  0  0
 31 32  1  0  0  0
 31 36  1  0  0  0
 32 33  1  0  0  0
 33 34  2  0  0  0
 33 35  1  0  0  0
 35 56  1  0  0  0
 36 37  2  0  0  0
 36 38  1  0  0  0
 38 57  1  0  0  0
 39 40  1  0  0  0
 40 41  2  0  0  0
 40 42  1  0  0  0
 42 43  1  0  0  0
 43 44  1  0  0  0
 43 48  1  0  0  0
 44 45  1  0  0  0
 45 46  2  0  0  0
 45 47  1  0  0  0
 47 58  1  0  0  0
 48 49  2  0  0  0
 48 50  1  0  0  0
 50 59  1  0  0  0
M  END
>  <AUTHOR>
    GENERATED BY OPEN BABEL 2.4.1

>  <CHROM.1>
72.48384467,-171.67739749,47.52234503,-68.44377363,-107.67110280,-69.59738336
-65.22559805,126.84435167,103.18823179,-174.84753361,-26.20597270,94.04806435
-52.92687650,67.12297163,-171.68447800,-50.74844326,-46.87675491,167.25941540
-72.60695225,36.37767655,59.27184356,178.92523352,133.35665622,-97.75516051
36.55091200,92.89284817,-57.20166263,106.01784600,157.07760431,-18.89881648
164.22006959,-25.01588914,-100.30318845,61.56639252,-130.06281088,31.52900001
-24.58838158,-10.16296576,-40.64131837,1.27510154,-4.41132131,-10.42007324
0.05194379,0.48915728,-2.89385850

>  <COMPND>
    UNNAMED

>  <MASTER>
        0    0    0    0    0    0    0    0  109    0  109    0

>  <Name>
FB1.pdb

>  <RI>
0

>  <Rbt.Current_Directory>
/home/fc/tossine/F10/p3/0_clust01

>  <Rbt.Executable>
rbdock/0.1.0

>  <Rbt.Library>
librxdock.so/0.1.0

>  <Rbt.Parameter_File>
/cluster/rxdock/data/scripts/dock.prm

>  <Rbt.Receptor>
rx_1.prm

>  <SCORE>
63.1015

>  <SCORE.INTER>
16.4736

>  <SCORE.INTER.CONST>
1

>  <SCORE.INTER.POLAR>
-0.868912

>  <SCORE.INTER.REPUL>
1.88182

>  <SCORE.INTER.ROT>
32

>  <SCORE.INTER.VDW>
-27.3812

>  <SCORE.INTER.norm>
0.329472

>  <SCORE.INTRA>
39.2503

>  <SCORE.INTRA.DIHEDRAL>
48.2549

>  <SCORE.INTRA.DIHEDRAL.0>
47.3121

>  <SCORE.INTRA.POLAR>
1.10169

>  <SCORE.INTRA.POLAR.0>
-1.47808

>  <SCORE.INTRA.REPUL>
0

>  <SCORE.INTRA.REPUL.0>
0

>  <SCORE.INTRA.VDW>
11.3771

>  <SCORE.INTRA.VDW.0>
-2.78316

>  <SCORE.INTRA.norm>
0.785005

>  <SCORE.RESTR>
7.37762

>  <SCORE.RESTR.CAVITY>
7.37762

>  <SCORE.RESTR.norm>
0.147552

>  <SCORE.SYSTEM>
0

>  <SCORE.SYSTEM.CONST>
0

>  <SCORE.SYSTEM.DIHEDRAL>
0

>  <SCORE.SYSTEM.norm>
0

>  <SCORE.heavy>
50

>  <SCORE.norm>
1.26203

$$$$
