FB1.pdb
  RxDock  10062017553D
librxdock.so/0.1.0
 59 58  0  0  0  0  0  0  0  0999 V2000
   -6.7746  -12.0734    5.0341 C   0  0  0  0  0  0
   -6.7889  -11.0208    3.9282 C   0  0  0  0  0  0
   -5.4766  -10.2205    3.8868 C   0  0  0  0  0  0
   -4.2720  -11.0367    3.3552 C   0  0  0  0  0  0
   -2.9823  -10.9689    4.2455 C   0  0  0  0  0  0
   -3.2255  -11.8136    5.5175 C   0  0  0  0  0  0
   -1.6678  -11.4417    3.4930 C   0  0  0  0  0  0
   -1.3995  -10.8204    2.0410 C   0  0  0  0  0  0
   -1.2482   -9.2698    1.7230 C   0  0  0  0  0  0
   -2.2917   -8.6835    0.5879 C   0  0  0  0  0  0
   -2.6209   -9.8064   -0.3944 C   0  0  0  0  0  0
   -3.6441   -8.0426    1.1404 C   0  0  0  0  0  0
   -3.9590   -6.4553    1.1488 C   0  0  0  0  0  0
   -4.0930   -5.6184   -0.1694 C   0  0  0  0  0  0
   -5.4944   -5.6292   -0.9343 C   0  0  0  0  0  0
   -5.9907   -4.4791   -1.8964 C   0  0  0  0  0  0
   -5.4923   -4.4429   -3.3653 C   0  0  0  0  0  0
   -5.9586   -3.2143   -4.2384 C   0  0  0  0  0  0
   -5.8112   -3.3656   -5.7576 C   0  0  0  0  0  0
   -5.7318   -2.0758   -6.6228 C   0  0  0  0  0  0
   -7.0257   -1.2970   -7.0029 C   0  0  0  0  0  0
   -7.7865   -0.6464   -5.8561 C   0  0  0  0  0  0
   -6.7559   -0.3222   -8.0769 N   0  0  0  0  0  0
   -4.9543   -1.1460   -5.8260 O   0  0  0  0  0  0
   -7.3345   -2.9562   -3.9385 O   0  0  0  0  0  0
   -5.2346   -6.3352    1.8008 O   0  0  0  0  0  0
   -0.1554  -11.4071    1.5715 O   0  0  0  0  0  0
    0.4997  -10.7514    0.5784 C   0  0  0  0  0  0
    0.0820  -10.5455   -0.5452 O   0  0  0  0  0  0
    1.7972  -10.2274    1.1292 C   0  0  0  0  0  0
    2.8156  -11.3451    1.4050 C   0  0  0  0  0  0
    4.0137  -10.8591    2.2307 C   0  0  0  0  0  0
    4.6783   -9.6689    1.5787 C   0  0  0  0  0  0
    4.5453   -9.3827    0.3938 O   0  0  0  0  0  0
    5.4312   -8.9484    2.4230 O   0  0  0  0  0  0
    2.0521  -12.4307    2.1760 C   0  0  0  0  0  0
    1.7252  -13.4973    1.6782 O   0  0  0  0  0  0
    1.7277  -12.0927    3.4316 O   0  0  0  0  0  0
   -0.4783  -11.3305    4.3719 O   0  0  0  0  0  0
   -0.0783  -10.0700    4.7832 C   0  0  0  0  0  0
   -0.5249   -9.0192    4.3420 O   0  0  0  0  0  0
    1.0029  -10.1265    5.8705 C   0  0  0  0  0  0
    2.3933  -10.6693    5.4157 C   0  0  0  0  0  0
    3.5371   -9.6569    5.2228 C   0  0  0  0  0  0
    4.8668  -10.1791    5.6850 C   0  0  0  0  0  0
    5.3017  -10.1129    6.8265 O   0  0  0  0  0  0
    5.5587  -10.7671    4.6971 O   0  0  0  0  0  0
    2.9426  -11.8150    6.2747 C   0  0  0  0  0  0
    3.1266  -11.7132    7.4716 O   0  0  0  0  0  0
    3.1112  -12.9904    5.6336 O   0  0  0  0  0  0
   -7.0748   -0.7069   -8.9651 H   0  0  0  0  0  0
   -5.7436   -0.2228   -8.1811 H   0  0  0  0  0  0
   -4.9912   -0.3028   -6.3250 H   0  0  0  0  0  0
   -7.8289   -3.7908   -4.0361 H   0  0  0  0  0  0
   -5.7809   -7.0935    1.5347 H   0  0  0  0  0  0
    5.5117   -9.3139    3.3249 H   0  0  0  0  0  0
    1.0655  -12.6907    3.8591 H   0  0  0  0  0  0
    6.4049  -11.0708    5.0885 H   0  0  0  0  0  0
    3.4441  -13.7285    6.1909 H   0  0  0  0  0  0
  1  2  1  0  0  0
  2  3  1  0  0  0
  3  4  1  0  0  0
  4  5  1  0  0  0
  5  6  1  0  0  0
  5  7  1  0  0  0
  7  8  1  0  0  0
  7 39  1  0  0  0
  8  9  1  0  0  0
  8 27  1  0  0  0
  9 10  1  0  0  0
 10 11  1  0  0  0
 10 12  1  0  0  0
 12 13  1  0  0  0
 13 14  1  0  0  0
 13 26  1  0  0  0
 14 15  1  0  0  0
 15 16  1  0  0  0
 16 17  1  0  0  0
 17 18  1  0  0  0
 18 19  1  0  0  0
 18 25  1  0  0  0
 19 20  1  0  0  0
 20 21  1  0  0  0
 20 24  1  0  0  0
 21 22  1  0  0  0
 21 23  1  0  0  0
 23 51  1  0  0  0
 23 52  1  0  0  0
 24 53  1  0  0  0
 25 54  1  0  0  0
 26 55  1  0  0  0
 27 28  1  0  0  0
 28 29  2  0  0  0
 28 30  1  0  0  0
 30 31  1  0  0  0
 31 32  1  0  0  0
 31 36  1  0  0  0
 32 33  1  0  0  0
 33 34  2  0  0  0
 33 35  1  0  0  0
 35 56  1  0  0  0
 36 37  2  0  0  0
 36 38  1  0  0  0
 38 57  1  0  0  0
 39 40  1  0  0  0
 40 41  2  0  0  0
 40 42  1  0  0  0
 42 43  1  0  0  0
 43 44  1  0  0  0
 43 48  1  0  0  0
 44 45  1  0  0  0
 45 46  2  0  0  0
 45 47  1  0  0  0
 47 58  1  0  0  0
 48 49  2  0  0  0
 48 50  1  0  0  0
 50 59  1  0  0  0
M  END
>  <AUTHOR>
    GENERATED BY OPEN BABEL 2.4.1

>  <CHROM.1>
71.55520004,-130.57086614,73.17288855,48.58782625,58.80902504,-65.15909308
-123.75748863,-159.96440464,-30.06492785,107.29748903,64.12804520,82.84277023
-36.68357980,155.30242393,81.54101971,-176.24858080,-163.32628772,-157.37352838
-51.90272152,-80.25804367,65.78515534,-173.77297144,100.91632683,-62.43632427
71.06325136,-167.99748367,-54.74009315,106.92120403,-19.94939469,4.43481499
166.61525119,-9.88219800,68.08234611,105.05217035,141.60129306,-57.77449446
-86.54404992,179.80578156,-178.67366030,-1.26686016,-8.64014586,1.36054134
0.95172004,-0.06098006,2.26981776

>  <COMPND>
    UNNAMED

>  <MASTER>
        0    0    0    0    0    0    0    0  109    0  109    0

>  <Name>
FB1.pdb

>  <RI>
0

>  <Rbt.Current_Directory>
/home/fc/tossine/F10/p3/0_clust01

>  <Rbt.Executable>
rbdock/0.1.0

>  <Rbt.Library>
librxdock.so/0.1.0

>  <Rbt.Parameter_File>
/cluster/rxdock/data/scripts/dock.prm

>  <Rbt.Receptor>
rx_3.prm

>  <SCORE>
44.2331

>  <SCORE.INTER>
11.6117

>  <SCORE.INTER.CONST>
1

>  <SCORE.INTER.POLAR>
-1.02368

>  <SCORE.INTER.REPUL>
0.345668

>  <SCORE.INTER.ROT>
32

>  <SCORE.INTER.VDW>
-24.0361

>  <SCORE.INTER.norm>
0.232234

>  <SCORE.INTRA>
26.531

>  <SCORE.INTRA.DIHEDRAL>
32.929

>  <SCORE.INTRA.DIHEDRAL.0>
47.3121

>  <SCORE.INTRA.POLAR>
0.442539

>  <SCORE.INTRA.POLAR.0>
-1.47808

>  <SCORE.INTRA.REPUL>
0

>  <SCORE.INTRA.REPUL.0>
0

>  <SCORE.INTRA.VDW>
8.56184

>  <SCORE.INTRA.VDW.0>
-2.78316

>  <SCORE.INTRA.norm>
0.53062

>  <SCORE.RESTR>
6.09043

>  <SCORE.RESTR.CAVITY>
6.09043

>  <SCORE.RESTR.norm>
0.121809

>  <SCORE.SYSTEM>
0

>  <SCORE.SYSTEM.CONST>
0

>  <SCORE.SYSTEM.DIHEDRAL>
0

>  <SCORE.SYSTEM.norm>
0

>  <SCORE.heavy>
50

>  <SCORE.norm>
0.884662

$$$$
