FB1.pdb
  RxDock  10062017593D
librxdock.so/0.1.0
 59 58  0  0  0  0  0  0  0  0999 V2000
   -4.9227  -11.4160    6.9283 C   0  0  0  0  0  0
   -5.0455  -12.6190    5.9961 C   0  0  0  0  0  0
   -3.8950  -12.6697    4.9773 C   0  0  0  0  0  0
   -3.8841  -11.4696    3.9978 C   0  0  0  0  0  0
   -2.5343  -11.2565    3.2276 C   0  0  0  0  0  0
   -2.5743  -12.1030    1.9344 C   0  0  0  0  0  0
   -2.2253   -9.7349    2.9005 C   0  0  0  0  0  0
   -3.3341   -8.6609    3.3289 C   0  0  0  0  0  0
   -4.7568   -8.4899    2.6397 C   0  0  0  0  0  0
   -5.0850   -6.9733    2.0797 C   0  0  0  0  0  0
   -4.3873   -5.9601    2.9857 C   0  0  0  0  0  0
   -4.6981   -6.6864    0.5589 C   0  0  0  0  0  0
   -4.8454   -5.2433   -0.1583 C   0  0  0  0  0  0
   -5.3308   -5.0873   -1.6403 C   0  0  0  0  0  0
   -5.8101   -3.6461   -2.1325 C   0  0  0  0  0  0
   -6.3653   -3.3403   -3.5791 C   0  0  0  0  0  0
   -7.2699   -2.1000   -3.8046 C   0  0  0  0  0  0
   -7.3231   -1.5230   -5.2721 C   0  0  0  0  0  0
   -7.5107   -2.5470   -6.3984 C   0  0  0  0  0  0
   -7.7592   -2.0201   -7.8402 C   0  0  0  0  0  0
   -6.7510   -1.0396   -8.5092 C   0  0  0  0  0  0
   -6.6898    0.3676   -7.9317 C   0  0  0  0  0  0
   -5.4048   -1.6388   -8.5819 N   0  0  0  0  0  0
   -7.7383   -3.2068   -8.6740 O   0  0  0  0  0  0
   -8.3947   -0.5757   -5.3356 O   0  0  0  0  0  0
   -5.8164   -4.5357    0.6310 O   0  0  0  0  0  0
   -3.6400   -8.9273    4.7245 O   0  0  0  0  0  0
   -2.7831   -8.4243    5.6508 C   0  0  0  0  0  0
   -1.8025   -7.7403    5.4272 O   0  0  0  0  0  0
   -3.3048   -8.7687    7.0185 C   0  0  0  0  0  0
   -2.2177   -8.6892    8.1022 C   0  0  0  0  0  0
   -2.5358   -7.6445    9.1796 C   0  0  0  0  0  0
   -1.3067   -7.3068    9.9912 C   0  0  0  0  0  0
   -0.1617   -7.4206    9.5674 O   0  0  0  0  0  0
   -1.5867   -6.8661   11.2266 O   0  0  0  0  0  0
   -2.1462  -10.0875    8.7313 C   0  0  0  0  0  0
   -2.4991  -10.3222    9.8771 O   0  0  0  0  0  0
   -1.6165  -11.0259    7.9346 O   0  0  0  0  0  0
   -0.8714   -9.3507    3.3688 O   0  0  0  0  0  0
   -0.4297   -9.8451    4.5847 C   0  0  0  0  0  0
   -1.1376  -10.4201    5.4012 O   0  0  0  0  0  0
    1.0674   -9.5939    4.8080 C   0  0  0  0  0  0
    2.0340  -10.6097    4.1236 C   0  0  0  0  0  0
    1.9329  -12.0911    4.5305 C   0  0  0  0  0  0
    1.5255  -12.2794    5.9634 C   0  0  0  0  0  0
    0.3790  -12.2493    6.3890 O   0  0  0  0  0  0
    2.5733  -12.5121    6.7685 O   0  0  0  0  0  0
    2.0305  -10.5598    2.5907 C   0  0  0  0  0  0
    1.2575  -11.2057    1.9109 O   0  0  0  0  0  0
    2.8759   -9.6648    2.0382 O   0  0  0  0  0  0
   -5.2326   -2.1772   -7.7340 H   0  0  0  0  0  0
   -4.7114   -0.8876   -8.5623 H   0  0  0  0  0  0
   -8.6818   -3.4539   -8.7750 H   0  0  0  0  0  0
   -8.4668   -0.2591   -6.2549 H   0  0  0  0  0  0
   -5.3833   -4.2452    1.4511 H   0  0  0  0  0  0
   -2.5371   -6.7743   11.4308 H   0  0  0  0  0  0
   -1.2247  -10.6780    7.0954 H   0  0  0  0  0  0
    2.2153  -12.6041    7.6766 H   0  0  0  0  0  0
    2.7721   -9.5317    1.0698 H   0  0  0  0  0  0
  1  2  1  0  0  0
  2  3  1  0  0  0
  3  4  1  0  0  0
  4  5  1  0  0  0
  5  6  1  0  0  0
  5  7  1  0  0  0
  7  8  1  0  0  0
  7 39  1  0  0  0
  8  9  1  0  0  0
  8 27  1  0  0  0
  9 10  1  0  0  0
 10 11  1  0  0  0
 10 12  1  0  0  0
 12 13  1  0  0  0
 13 14  1  0  0  0
 13 26  1  0  0  0
 14 15  1  0  0  0
 15 16  1  0  0  0
 16 17  1  0  0  0
 17 18  1  0  0  0
 18 19  1  0  0  0
 18 25  1  0  0  0
 19 20  1  0  0  0
 20 21  1  0  0  0
 20 24  1  0  0  0
 21 22  1  0  0  0
 21 23  1  0  0  0
 23 51  1  0  0  0
 23 52  1  0  0  0
 24 53  1  0  0  0
 25 54  1  0  0  0
 26 55  1  0  0  0
 27 28  1  0  0  0
 28 29  2  0  0  0
 28 30  1  0  0  0
 30 31  1  0  0  0
 31 32  1  0  0  0
 31 36  1  0  0  0
 32 33  1  0  0  0
 33 34  2  0  0  0
 33 35  1  0  0  0
 35 56  1  0  0  0
 36 37  2  0  0  0
 36 38  1  0  0  0
 38 57  1  0  0  0
 39 40  1  0  0  0
 40 41  2  0  0  0
 40 42  1  0  0  0
 42 43  1  0  0  0
 43 44  1  0  0  0
 43 48  1  0  0  0
 44 45  1  0  0  0
 45 46  2  0  0  0
 45 47  1  0  0  0
 47 58  1  0  0  0
 48 49  2  0  0  0
 48 50  1  0  0  0
 50 59  1  0  0  0
M  END
>  <AUTHOR>
    GENERATED BY OPEN BABEL 2.4.1

>  <CHROM.1>
-64.07160385,163.32946485,88.14149238,-2.66738050,-70.57922392,-39.48731286
-124.47545708,81.05882925,-31.91985936,-175.85809535,-141.05966534,164.08460389
75.66356230,-178.10374121,157.40660256,156.58831957,46.32045217,171.99391441
-176.46129137,55.90912716,-69.42383243,96.13801714,-37.81289960,2.15267457
160.28354047,118.53769596,-163.80308099,-111.63444048,25.87512521,-3.03689764
8.12277906,-11.15121507,-81.69591349,-60.87554008,-32.07257854,-87.85765716
82.46844217,178.96008650,-170.70550766,-3.04940635,-7.73585352,2.43725300
1.04270634,-0.75368561,1.76011804

>  <COMPND>
    UNNAMED

>  <MASTER>
        0    0    0    0    0    0    0    0  109    0  109    0

>  <Name>
FB1.pdb

>  <RI>
0

>  <Rbt.Current_Directory>
/home/fc/tossine/F10/p3/0_clust01

>  <Rbt.Executable>
rbdock/0.1.0

>  <Rbt.Library>
librxdock.so/0.1.0

>  <Rbt.Parameter_File>
/cluster/rxdock/data/scripts/dock.prm

>  <Rbt.Receptor>
rx_3.prm

>  <SCORE>
30.0581

>  <SCORE.INTER>
11.6183

>  <SCORE.INTER.CONST>
1

>  <SCORE.INTER.POLAR>
-2.6929

>  <SCORE.INTER.REPUL>
0.0809596

>  <SCORE.INTER.ROT>
32

>  <SCORE.INTER.VDW>
-17.0306

>  <SCORE.INTER.norm>
0.232366

>  <SCORE.INTRA>
11.86

>  <SCORE.INTRA.DIHEDRAL>
14.9746

>  <SCORE.INTRA.DIHEDRAL.0>
47.3121

>  <SCORE.INTRA.POLAR>
0.449978

>  <SCORE.INTRA.POLAR.0>
-1.47808

>  <SCORE.INTRA.REPUL>
0

>  <SCORE.INTRA.REPUL.0>
0

>  <SCORE.INTRA.VDW>
2.84275

>  <SCORE.INTRA.VDW.0>
-2.78316

>  <SCORE.INTRA.norm>
0.237199

>  <SCORE.RESTR>
6.57982

>  <SCORE.RESTR.CAVITY>
6.57982

>  <SCORE.RESTR.norm>
0.131596

>  <SCORE.SYSTEM>
0

>  <SCORE.SYSTEM.CONST>
0

>  <SCORE.SYSTEM.DIHEDRAL>
0

>  <SCORE.SYSTEM.norm>
0

>  <SCORE.heavy>
50

>  <SCORE.norm>
0.601162

$$$$
