@<TRIPOS>MOLECULE
dna.pdb
 1642 1846 0 0 0
SMALL
GASTEIGER

@<TRIPOS>ATOM
      1  O5'      -18.9800   -7.4590    9.9250 O.3     1  DA1        -0.2176
      2  C5'      -19.6770   -6.6860    8.9530 C.3     1  DA1         0.2140
      3  C4'      -19.8470   -5.2560    9.4320 C.3     1  DA1         0.1776
      4  O4'      -20.4500   -5.2510   10.7550 O.3     1  DA1        -0.3326
      5  C3'      -18.5540   -4.5070    9.6940 C.3     1  DA1         0.1559
      6  O3'      -17.9330   -4.0400    8.5170 O.3     1  DA1        -0.3138
      7  C2'      -19.1060   -3.3630   10.5280 C.3     1  DA1         0.0865
      8  C1'      -20.0660   -4.0930   11.4740 C.3     1  DA1         0.2094
      9  N9       -19.4810   -4.5070   12.8750 N.ar    1  DA1        -0.2714
     10  C8       -19.0330   -5.6960   13.3890 C.ar    1  DA1         0.1815
     11  N7       -18.8160   -5.6650   14.6830 N.ar    1  DA1        -0.2193
     12  C5       -19.1430   -4.3670   15.0430 C.ar    1  DA1         0.1518
     13  C6       -19.1300   -3.6970   16.2790 C.ar    1  DA1         0.1919
     14  N6       -18.7590   -4.2690   17.4260 N.pl3   1  DA1        -0.1054
     15  N1       -19.5150   -2.4030   16.2930 N.ar    1  DA1        -0.2040
     16  C2       -19.8880   -1.8310   15.1430 C.ar    1  DA1         0.2016
     17  N3       -19.9430   -2.3570   13.9210 N.ar    1  DA1        -0.2048
     18  C4       -19.5540   -3.6420   13.9400 C.ar    1  DA1         0.1691
     19  P        -16.5720   -4.0320    8.5780 P.3     2  DG2         0.2141
     20  OP1      -15.6730   -3.6000    7.4860 O.2     2  DG2        -0.5172
     21  OP2      -16.0870   -4.9950    9.5880 O.3     2  DG2        -0.4373
     22  O5'      -17.0010   -2.7530    9.4350 O.3     2  DG2        -0.3114
     23  C5'      -17.3870   -1.5310    8.8250 C.3     2  DG2         0.1811
     24  C4'      -17.4980   -0.4380    9.8600 C.3     2  DG2         0.1746
     25  O4'      -18.0870   -0.9820   11.0660 O.3     2  DG2        -0.3327
     26  C3'      -16.1810    0.1950   10.2910 C.3     2  DG2         0.1558
     27  O3'      -15.9030    1.3480    9.5080 O.3     2  DG2        -0.3138
     28  C2'      -16.3440    0.5010   11.7810 C.3     2  DG2         0.0865
     29  C1'      -17.5710   -0.3150   12.1970 C.3     2  DG2         0.2094
     30  N9       -17.3360   -1.0180   13.0880 N.ar    2  DG2        -0.2713
     31  C8       -16.5880   -2.1510   12.8790 C.ar    2  DG2         0.1816
     32  N7       -15.9270   -2.5350   13.9370 N.ar    2  DG2        -0.2173
     33  C5       -16.2570   -1.6030   14.9040 C.ar    2  DG2         0.1748
     34  C6       -15.8460   -1.4930   16.2580 C.ar    2  DG2         0.3023
     35  O6       -15.0790   -2.2310   16.8880 O.2     2  DG2        -0.2633
     36  N1       -16.4200   -0.3920   16.8870 N.ar    2  DG2        -0.1709
     37  C2       -17.2830    0.4930   16.2870 C.ar    2  DG2         0.2606
     38  N2       -17.7340    1.4930   17.0570 N.pl3   2  DG2        -0.0859
     39  N3       -17.6730    0.4040   15.0310 N.ar    2  DG2        -0.1918
     40  C4       -17.1270   -0.6570   14.3990 C.ar    2  DG2         0.1722
     41  P        -14.5490    2.1470    9.5590 P.3     3  DC3         0.2141
     42  OP1      -14.2110    3.1440    8.5110 O.2     3  DC3        -0.5172
     43  OP2      -13.6670    0.9680    9.7590 O.3     3  DC3        -0.4373
     44  O5'      -14.6790    2.9100   10.9510 O.3     3  DC3        -0.3114
     45  C5'      -15.5220    4.0530   11.0780 C.3     3  DC3         0.1811
     46  C4'      -15.2990    4.7220   12.4120 C.3     3  DC3         0.1746
     47  O4'      -15.7100    3.8250   13.4750 O.3     3  DC3        -0.3327
     48  C3'      -13.8540    5.0670   12.7340 C.3     3  DC3         0.1558
     49  O3'      -13.5090    6.3310   12.1680 O.3     3  DC3        -0.3138
     50  C2'      -13.8660    5.1020   14.2580 C.3     3  DC3         0.0866
     51  C1'      -14.8340    3.9630   14.5820 C.3     3  DC3         0.2106
     52  N1       -14.1710    2.5740   14.7580 N.ar    3  DC3        -0.2556
     53  C2       -13.5210    2.3200   15.9710 C.ar    3  DC3         0.3531
     54  O2       -13.5080    3.2090   16.8400 O.2     3  DC3        -0.2443
     55  N3       -12.9250    1.1190   16.1610 N.ar    3  DC3        -0.1739
     56  C4       -12.9630    0.1950   15.1990 C.ar    3  DC3         0.1759
     57  N4       -12.3620   -0.9740   15.4320 N.pl3   3  DC3        -0.1070
     58  C5       -13.6170    0.4330   13.9630 C.ar    3  DC3         0.0566
     59  C6       -14.2040    1.6200   13.7790 C.ar    3  DC3         0.0849
     60  P        -11.9020    6.5470   11.3800 P.3     4  DA4         0.2141
     61  OP1      -11.4870    7.6240   10.4600 O.2     4  DA4        -0.5172
     62  OP2      -11.5780    5.1380   11.0730 O.3     4  DA4        -0.4373
     63  O5'      -11.2460    6.7920   12.8200 O.3     4  DA4        -0.3114
     64  C5'      -11.2990    8.0660   13.4080 C.3     4  DA4         0.1811
     65  C4'      -11.0220    7.9850   14.8930 C.3     4  DA4         0.1746
     66  O4'      -11.7610    6.8910   15.4930 O.3     4  DA4        -0.3327
     67  C3'       -9.5900    7.5850   15.1720 C.3     4  DA4         0.1558
     68  O3'       -8.7150    8.6620   14.9470 O.3     4  DA4        -0.3138
     69  C2'       -9.6930    7.1520   16.6290 C.3     4  DA4         0.0865
     70  C1'      -10.9840    6.3520   16.5530 C.3     4  DA4         0.2094
     71  N9       -10.7530    4.9010   16.3520 N.ar    4  DA4        -0.2714
     72  C8       -10.9980    4.1710   15.2190 C.ar    4  DA4         0.1815
     73  N7       -10.7260    2.8930   15.3440 N.ar    4  DA4        -0.2193
     74  C5       -10.2700    2.7770   16.6470 C.ar    4  DA4         0.1518
     75  C6        -9.8220    1.6770   17.3980 C.ar    4  DA4         0.1919
     76  N6        -9.7590    0.4320   16.9200 N.pl3   4  DA4        -0.1054
     77  N1        -9.4360    1.9020   18.6720 N.ar    4  DA4        -0.2040
     78  C2        -9.5010    3.1500   19.1510 C.ar    4  DA4         0.2016
     79  N3        -9.9050    4.2640   18.5440 N.ar    4  DA4        -0.2048
     80  C4       -10.2800    4.0060   17.2800 C.ar    4  DA4         0.1691
     81  P         -8.1260    8.3610   14.2430 P.3     5  DG5         0.2141
     82  OP1       -7.3790    9.6310   14.1150 O.3     5  DG5        -0.4373
     83  OP2       -8.7750    7.7320   13.0680 O.2     5  DG5        -0.5172
     84  O5'       -7.1640    7.3020   14.9330 O.3     5  DG5        -0.3114
     85  C5'       -6.5690    7.6420   16.1670 C.3     5  DG5         0.1811
     86  C4'       -5.7280    6.4800   16.6280 C.3     5  DG5         0.1746
     87  O4'       -6.5560    5.4130   17.1270 O.3     5  DG5        -0.3327
     88  C3'       -4.9700    5.8070   15.5130 C.3     5  DG5         0.1558
     89  O3'       -3.8910    6.6270   15.1240 O.3     5  DG5        -0.3138
     90  C2'       -4.5920    4.5100   16.1970 C.3     5  DG5         0.0865
     91  C1'       -5.9320    4.1810   16.8320 C.3     5  DG5         0.2093
     92  N9        -6.8870    3.3770   16.0310 N.ar    5  DG5        -0.2728
     93  C8        -7.9430    3.7250   15.2240 C.ar    5  DG5         0.1814
     94  N7        -8.3870    2.7340   14.5000 N.ar    5  DG5        -0.2177
     95  C5        -7.5800    1.6670   14.8480 C.ar    5  DG5         0.1711
     96  C6        -7.5790    0.3230   14.3920 C.2     5  DG5         0.2985
     97  O6        -8.3250   -0.2030   13.5570 O.2     5  DG5        -0.2655
     98  N1        -6.5860   -0.4340   15.0070 N.am    5  DG5        -0.1054
     99  C2        -5.7030    0.0440   15.9450 C.1     5  DG5         0.1287
    100  N2        -4.8160   -0.8390   16.4250 N.2     5  DG5        -0.0780
    101  N3        -5.6910    1.2890   16.3780 N.pl3   5  DG5        -0.1271
    102  C4        -6.6460    2.0430   15.7940 C.ar    5  DG5         0.1688
    103  P         -3.6990    6.9120   13.6240 P.3     6  DC6         0.2141
    104  OP1       -2.8730    8.1150   13.8540 O.3     6  DC6        -0.4373
    105  OP2       -4.5730    6.8360   12.4340 O.2     6  DC6        -0.5172
    106  O5'       -2.7460    5.6360   13.5590 O.3     6  DC6        -0.3114
    107  C5'       -1.7460    5.4420   14.5380 C.3     6  DC6         0.1811
    108  C4'       -1.6140    3.9650   14.8310 C.3     6  DC6         0.1746
    109  O4'       -2.9350    3.3970   15.0580 O.3     6  DC6        -0.3327
    110  C3'       -1.0490    3.0900   13.7100 C.3     6  DC6         0.1558
    111  O3'        0.3730    3.2090   13.5090 O.3     6  DC6        -0.3138
    112  C2'       -1.4340    1.7320   14.2870 C.3     6  DC6         0.0866
    113  C1'       -2.8450    2.0020   14.8270 C.3     6  DC6         0.2106
    114  N1        -3.6860    1.5400   13.7530 N.ar    6  DC6        -0.2556
    115  C2        -3.9070    0.1950   13.4340 C.ar    6  DC6         0.3531
    116  O2        -3.2590   -0.6770   14.0360 O.2     6  DC6        -0.2443
    117  N3        -4.8180   -0.1150   12.4800 N.ar    6  DC6        -0.1739
    118  C4        -5.4890    0.8550   11.8580 C.ar    6  DC6         0.1759
    119  N4        -6.3760    0.5020   10.9250 N.pl3   6  DC6        -0.1070
    120  C5        -5.2790    2.2240   12.1670 C.ar    6  DC6         0.0566
    121  C6        -4.3800    2.5250   13.1100 C.ar    6  DC6         0.0849
    122  P          1.2310    2.7420   11.9290 P.3     7  DA7         0.2141
    123  OP1        2.5690    3.3370   12.1440 O.3     7  DA7        -0.4373
    124  OP2        0.3230    3.3390   10.9160 O.2     7  DA7        -0.5172
    125  O5'        1.4750    1.2010   11.6090 O.3     7  DA7        -0.3114
    126  C5'        2.4270    0.4900   12.3770 C.3     7  DA7         0.1811
    127  C4'        2.2630   -0.9850   12.1840 C.3     7  DA7         0.1746
    128  O4'        0.8870   -1.3410   12.4900 O.3     7  DA7        -0.3327
    129  C3'        2.4570   -1.5080   10.7710 C.3     7  DA7         0.1558
    130  O3'        3.8470   -1.6880   10.4690 O.3     7  DA7        -0.3138
    131  C2'        1.7540   -2.8530   10.8930 C.3     7  DA7         0.0865
    132  C1'        0.5040   -2.4680   11.7050 C.3     7  DA7         0.2094
    133  N9        -0.6260   -2.0200   10.8970 N.ar    7  DA7        -0.2714
    134  C8        -1.1240   -0.7460   10.8200 C.ar    7  DA7         0.1815
    135  N7        -2.1780   -0.6360   10.0470 N.ar    7  DA7        -0.2193
    136  C5        -2.3860   -1.9250    9.5830 C.ar    7  DA7         0.1518
    137  C6        -3.3500   -2.4770    8.7210 C.ar    7  DA7         0.1919
    138  N6        -4.3260   -1.7650    8.1520 N.pl3   7  DA7        -0.1054
    139  N1        -3.2750   -3.8000    8.4620 N.ar    7  DA7        -0.2040
    140  C2        -2.2980   -4.5120    9.0340 C.ar    7  DA7         0.2016
    141  N3        -1.3360   -4.1070    9.8600 N.ar    7  DA7        -0.2048
    142  C4        -1.4370   -2.7880   10.0970 C.ar    7  DA7         0.1691
    143  P          4.4500   -1.4480    8.8850 P.3     8  DC8         0.2141
    144  OP1        5.8540   -1.9200    8.7630 O.3     8  DC8        -0.4373
    145  OP2        4.1680   -0.1700    8.2110 O.2     8  DC8        -0.5172
    146  O5'        3.5880   -2.6420    8.2620 O.3     8  DC8        -0.3114
    147  C5'        4.0910   -3.9510    8.6390 C.3     8  DC8         0.1811
    148  C4'        3.0370   -4.9530    8.2650 C.3     8  DC8         0.1746
    149  O4'        1.7090   -4.5190    8.6520 O.3     8  DC8        -0.3327
    150  C3'        2.8680   -5.0820    6.7410 C.3     8  DC8         0.1558
    151  O3'        3.9770   -5.7530    6.2040 O.3     8  DC8        -0.3138
    152  C2'        1.5770   -5.8960    6.7530 C.3     8  DC8         0.0866
    153  C1'        0.7580   -5.0990    7.7570 C.3     8  DC8         0.2106
    154  N1        -0.0630   -3.9230    7.2820 N.ar    8  DC8        -0.2556
    155  C2        -1.2830   -4.1660    6.6400 C.ar    8  DC8         0.3531
    156  O2        -1.6280   -5.3420    6.4360 O.2     8  DC8        -0.2443
    157  N3        -2.0490   -3.1150    6.2610 N.ar    8  DC8        -0.1739
    158  C4        -1.6370   -1.8690    6.4990 C.ar    8  DC8         0.1759
    159  N4        -2.4250   -0.8650    6.1070 N.pl3   8  DC8        -0.1070
    160  C5        -0.4040   -1.6020    7.1480 C.ar    8  DC8         0.0566
    161  C6         0.3490   -2.6430    7.5210 C.ar    8  DC8         0.0849
    162  P          4.6750   -5.3360    4.8590 P.3     9  DA9         0.2141
    163  OP1        5.9160   -6.1240    5.0260 O.3     9  DA9        -0.4373
    164  OP2        4.7470   -3.8590    4.7820 O.2     9  DA9        -0.5172
    165  O5'        3.8930   -5.8920    3.5810 O.3     9  DA9        -0.3114
    166  C5'        3.4000   -7.2230    3.6250 C.3     9  DA9         0.1811
    167  C4'        2.0230   -7.3180    2.9970 C.3     9  DA9         0.1746
    168  O4'        1.0430   -6.6140    3.8000 O.3     9  DA9        -0.3327
    169  C3'        1.8940   -6.6610    1.6360 C.3     9  DA9         0.1558
    170  O3'        2.4540   -7.4870    0.6310 O.3     9  DA9        -0.3138
    171  C2'        0.3780   -6.5820    1.5280 C.3     9  DA9         0.0865
    172  C1'        0.0080   -6.1530    2.9460 C.3     9  DA9         0.2094
    173  N9        -0.1230   -4.7010    3.0590 N.ar    9  DA9        -0.2714
    174  C8         0.7420   -3.7930    3.6120 C.ar    9  DA9         0.1815
    175  N7         0.3260   -2.5510    3.5340 N.ar    9  DA9        -0.2193
    176  C5        -0.8940   -2.6490    2.8840 C.ar    9  DA9         0.1518
    177  C6        -1.8400   -1.6840    2.4960 C.ar    9  DA9         0.1919
    178  N6        -1.6950   -0.3760    2.7200 N.pl3   9  DA9        -0.1054
    179  N1        -2.9520   -2.1160    1.8640 N.ar    9  DA9        -0.2040
    180  C2        -3.0960   -3.4270    1.6410 C.ar    9  DA9         0.2016
    181  N3        -2.2790   -4.4280    1.9580 N.ar    9  DA9        -0.2048
    182  C4        -1.1830   -3.9670    2.5840 C.ar    9  DA9         0.1691
    183  P          3.2000   -6.7890   -0.8530 P.3    10  DG10        0.2141
    184  OP1        4.2300   -7.6450   -1.4760 O.2    10  DG10       -0.5172
    185  OP2        3.5510   -5.4220   -0.4070 O.3    10  DG10       -0.4373
    186  O5'        1.9820   -6.5540   -1.8620 O.3    10  DG10       -0.3114
    187  C5'        1.0560   -7.6020   -2.1070 C.3    10  DG10        0.1811
    188  C4'       -0.2100   -7.0890   -2.7490 C.3    10  DG10        0.1746
    189  O4'       -1.0350   -6.4120   -1.7660 O.3    10  DG10       -0.3327
    190  C3'       -0.0320   -6.0560   -3.8490 C.3    10  DG10        0.1558
    191  O3'        0.3070   -6.6350   -5.0950 O.3    10  DG10       -0.3138
    192  C2'       -1.3870   -5.3630   -3.8710 C.3    10  DG10        0.0865
    193  C1'       -1.7810   -5.3950   -2.3970 C.3    10  DG10        0.2094
    194  N9        -1.4800   -4.0540   -1.7320 N.ar   10  DG10       -0.2713
    195  C8        -0.4880   -3.8490   -0.8030 C.ar   10  DG10        0.1816
    196  N7        -0.4660   -2.6320   -0.3340 N.ar   10  DG10       -0.2173
    197  C5        -1.5030   -1.9930   -0.9870 C.ar   10  DG10        0.1748
    198  C6        -1.9680   -0.6560   -0.8950 C.ar   10  DG10        0.3023
    199  O6        -1.5330    0.2590   -0.1850 O.2    10  DG10       -0.2633
    200  N1        -3.0510   -0.4220   -1.7380 N.ar   10  DG10       -0.1709
    201  C2        -3.6160   -1.3600   -2.5690 C.ar   10  DG10        0.2606
    202  N2        -4.6550   -0.9470   -3.3070 N.pl3  10  DG10       -0.0859
    203  N3        -3.1940   -2.6060   -2.6660 N.ar   10  DG10       -0.1918
    204  C4        -2.1430   -2.8560   -1.8560 C.ar   10  DG10        0.1722
    205  P          1.3800   -5.9110   -6.0410 P.3    11  DA11        0.2141
    206  OP1        1.9390   -6.8170   -7.0740 O.2    11  DA11       -0.5172
    207  OP2        2.2920   -5.0510   -5.2510 O.3    11  DA11       -0.4373
    208  O5'        0.3060   -4.9720   -6.7470 O.3    11  DA11       -0.3114
    209  C5'       -0.9050   -5.5280   -7.2840 C.3    11  DA11        0.1811
    210  C4'       -1.9690   -4.4640   -7.4010 C.3    11  DA11        0.1746
    211  O4'       -2.1270   -3.7860   -6.1240 O.3    11  DA11       -0.3327
    212  C3'       -1.6950   -3.3140   -8.3540 C.3    11  DA11        0.1558
    213  O3'       -1.9360   -3.6950   -9.7070 O.3    11  DA11       -0.3138
    214  C2'       -2.6950   -2.2730   -7.8620 C.3    11  DA11        0.0865
    215  C1'       -2.6100   -2.4690   -6.3490 C.3    11  DA11        0.2094
    216  N9        -1.7070   -1.5770   -5.7510 N.ar   11  DA11       -0.2714
    217  C8        -0.4380   -1.8840   -5.3360 C.ar   11  DA11        0.1815
    218  N7         0.1980   -0.8750   -4.7880 N.ar   11  DA11       -0.2193
    219  C5        -0.7160    0.1650   -4.8480 C.ar   11  DA11        0.1518
    220  C6        -0.6520    1.5060   -4.4310 C.ar   11  DA11        0.1919
    221  N6         0.4180    2.0470   -3.8440 N.pl3  11  DA11       -0.1054
    222  N1        -1.7390    2.2800   -4.6390 N.ar   11  DA11       -0.2040
    223  C2        -2.8110    1.7360   -5.2270 C.ar   11  DA11        0.2016
    224  N3        -2.9910    0.4910   -5.6610 N.ar   11  DA11       -0.2048
    225  C4        -1.8930   -0.2520   -5.4400 C.ar   11  DA11        0.1691
    226  P         -1.5870   -2.7200  -10.7030 P.3    12  DG12        0.2141
    227  OP1       -1.8620   -3.4060  -11.9840 O.2    12  DG12       -0.5172
    228  OP2       -0.2100   -2.5550  -10.1840 O.3    12  DG12       -0.4373
    229  O5'       -2.2290   -1.2630  -10.8100 O.3    12  DG12       -0.3114
    230  C5'       -3.5890   -1.0610  -11.1530 C.3    12  DG12        0.1811
    231  C4'       -4.0240    0.3400  -10.7500 C.3    12  DG12        0.1746
    232  O4'       -4.1000    0.4530   -9.3060 O.3    12  DG12       -0.3327
    233  C3'       -3.0750    1.4650  -11.1190 C.3    12  DG12        0.1558
    234  O3'       -3.2210    1.7590  -12.4780 O.3    12  DG12       -0.3138
    235  C2'       -3.6610    2.5540  -10.2440 C.3    12  DG12        0.0865
    236  C1'       -3.7810    1.7800   -8.9380 C.3    12  DG12        0.2094
    237  N9        -2.5300    1.7910   -8.1840 N.ar   12  DG12       -0.2713
    238  C8        -1.5830    0.8000   -8.0930 C.ar   12  DG12        0.1816
    239  N7        -0.5660    1.1270   -7.3440 N.ar   12  DG12       -0.2173
    240  C5        -0.8560    2.4080   -6.9110 C.ar   12  DG12        0.1748
    241  C6        -0.1240    3.2870   -6.0720 C.ar   12  DG12        0.3023
    242  O6         0.9690    3.0920   -5.5260 O.2    12  DG12       -0.2633
    243  N1        -0.7820    4.5000   -5.8880 N.ar   12  DG12       -0.1709
    244  C2        -1.9960    4.8250   -6.4440 C.ar   12  DG12        0.2606
    245  N2        -2.4730    6.0430   -6.1510 N.pl3  12  DG12       -0.0859
    246  N3        -2.6870    4.0200   -7.2260 N.ar   12  DG12       -0.1918
    247  C4        -2.0670    2.8370   -7.4200 C.ar   12  DG12        0.1722
    248  P         -2.2260    2.0730  -13.0110 P.3    13  DG13        0.2141
    249  OP1       -2.4950    2.3280  -14.4550 O.2    13  DG13       -0.5172
    250  OP2       -0.9910    1.3400  -12.6030 O.3    13  DG13       -0.4373
    251  O5'       -2.2630    3.4970  -12.3050 O.3    13  DG13       -0.3114
    252  C5'       -3.4410    4.2720  -12.4350 C.3    13  DG13        0.1811
    253  C4'       -3.1950    5.6900  -12.0420 C.3    13  DG13        0.1767
    254  O4'       -2.9550    5.7610  -10.6260 O.3    13  DG13       -0.3154
    255  C3'       -2.0380    6.3830  -12.7240 C.3    13  DG13        0.1582
    256  O3'       -2.5310    7.6960  -12.9280 O.3    13  DG13       -0.3138
    257  C2'       -0.9280    6.2770  -11.6850 C.3    13  DG13        0.1082
    258  C1'       -1.7170    6.3810  -10.3890 C.3    13  DG13        0.2912
    259  N9        -1.1920    5.6160   -9.3490 N.pl3  13  DG13       -0.1302
    260  C8        -0.6850    4.3590   -9.5720 C.2    13  DG13        0.2799
    261  N7         0.4700    4.1600   -8.9980 N.2    13  DG13       -0.2096
    262  C5         0.7440    5.3530   -8.3560 C.3    13  DG13        0.3072
    263  C6         1.8580    5.7430   -7.5680 C.2    13  DG13        0.3535
    264  O6         2.8580    5.0770   -7.2730 O.2    13  DG13       -0.2506
    265  N1         1.7360    7.0500   -7.1050 N.am   13  DG13        0.0136
    266  C2         0.6720    7.8790   -7.3680 C.2    13  DG13        0.5244
    267  N2         0.7330    9.1060   -6.8330 N.pl3  13  DG13        0.1572
    268  N3        -0.3690    7.5320   -8.0990 N.2    13  DG13        0.0290
    269  C4        -0.2710    6.2670   -8.5610 C.2    13  DG13        0.3467
    270  P         -1.8280    8.6690  -13.9200 P.3    14  DT14        0.2141
    271  OP1       -1.8310    9.9250  -14.6990 O.2    14  DT14       -0.5172
    272  OP2       -1.1120    7.4870  -14.4680 O.3    14  DT14       -0.4373
    273  O5'       -1.1960    8.9670  -12.4850 O.3    14  DT14       -0.3114
    274  C5'       -1.1020   10.2980  -11.9850 C.3    14  DT14        0.1811
    275  C4'        0.3130   10.5920  -11.5760 C.3    14  DT14        0.1746
    276  O4'        0.6770    9.8410  -10.3900 O.3    14  DT14       -0.3327
    277  C3'        1.3240   10.1660  -12.6250 C.3    14  DT14        0.1558
    278  O3'        1.4140   11.1960  -13.5920 O.3    14  DT14       -0.3138
    279  C2'        2.5850    9.9240  -11.8040 C.3    14  DT14        0.0866
    280  C1'        2.0120    9.3720  -10.5030 C.3    14  DT14        0.2106
    281  N1         1.9440    7.8900  -10.4950 N.ar   14  DT14       -0.2559
    282  C2         3.1690    7.3410  -10.1650 C.ar   14  DT14        0.3545
    283  O2         4.0980    8.0000   -9.7340 O.2    14  DT14       -0.2443
    284  N3         3.2690    5.9840  -10.3600 N.ar   14  DT14       -0.1533
    285  C4         2.2890    5.1410  -10.8410 C.ar   14  DT14        0.2804
    286  O4         2.5280    3.9420  -10.9600 O.2    14  DT14       -0.2654
    287  C5         1.0470    5.7860  -11.1620 C.ar   14  DT14        0.0534
    288  C6         0.9230    7.1040  -10.9820 C.ar   14  DT14        0.0824
    289  C7        -0.0820    4.9530  -11.6940 C.3    14  DT14        0.0421
    290  P          1.9510   10.8050  -14.5710 P.3    15  DC15        0.2141
    291  OP1        1.8270   11.9300  -15.5330 O.2    15  DC15       -0.5172
    292  OP2        1.1280    9.5860  -14.7580 O.3    15  DC15       -0.4373
    293  O5'        3.5260   10.3290  -14.4680 O.3    15  DC15       -0.3114
    294  C5'        4.5530   11.2850  -14.1720 C.3    15  DC15        0.1811
    295  C4'        5.9230   10.6390  -13.8440 C.3    15  DC15        0.1746
    296  O4'        5.8740    9.8870  -12.6100 O.3    15  DC15       -0.3327
    297  C3'        6.3330    9.6760  -14.8970 C.3    15  DC15        0.1558
    298  O3'        7.0700   10.2740  -15.9360 O.3    15  DC15       -0.3138
    299  C2'        7.1110    8.6430  -14.2000 C.3    15  DC15        0.0866
    300  C1'        6.5480    8.6020  -12.8270 C.3    15  DC15        0.2106
    301  N1         5.5870    7.4610  -12.7240 N.ar   15  DC15       -0.2556
    302  C2         6.0820    6.1620  -12.5610 C.ar   15  DC15        0.3531
    303  O2         7.3040    6.0030  -12.4040 O.2    15  DC15       -0.2443
    304  N3         5.2170    5.1200  -12.5810 N.ar   15  DC15       -0.1739
    305  C4         3.9130    5.3390  -12.7530 C.ar   15  DC15        0.1759
    306  N4         3.0980    4.2810  -12.7650 N.pl3  15  DC15       -0.1070
    307  C5         3.3920    6.6470  -12.9200 C.ar   15  DC15        0.0566
    308  C6         4.2490    7.6740  -12.9000 C.ar   15  DC15        0.0849
    309  P          6.9430    9.6770  -17.3810 P.3    16  DA16        0.2141
    310  OP1        7.5060   10.7470  -18.2360 O.2    16  DA16       -0.5172
    311  OP2        5.5350    9.2480  -17.5520 O.3    16  DA16       -0.4373
    312  O5'        7.7890    8.3430  -17.6040 O.3    16  DA16       -0.3114
    313  C5'        9.2020    8.4020  -17.5320 C.3    16  DA16        0.1811
    314  C4'        9.7630    7.0330  -17.2730 C.3    16  DA16        0.1746
    315  O4'        9.1430    6.4810  -16.0860 O.3    16  DA16       -0.3327
    316  C3'        9.4970    5.9970  -18.3530 C.3    16  DA16        0.1558
    317  O3'       10.4400    6.0860  -19.4070 O.3    16  DA16       -0.3138
    318  C2'        9.5540    4.6790  -17.5880 C.3    16  DA16        0.0865
    319  C1'        9.0310    5.0810  -16.2060 C.3    16  DA16        0.2094
    320  N9         7.6790    4.6750  -16.0350 N.ar   16  DA16       -0.2714
    321  C8         6.5680    5.4770  -16.0150 C.ar   16  DA16        0.1815
    322  N7         5.4450    4.8210  -15.8460 N.ar   16  DA16       -0.2193
    323  C5         5.8450    3.4970  -15.7490 C.ar   16  DA16        0.1518
    324  C6         5.1270    2.3030  -15.5630 C.ar   16  DA16        0.1919
    325  N6         3.7990    2.2510  -15.4350 N.pl3  16  DA16       -0.1054
    326  N1         5.8290    1.1510  -15.5130 N.ar   16  DA16       -0.2040
    327  C2         7.1600    1.2040  -15.6410 C.ar   16  DA16        0.2016
    328  N3         7.9460    2.2640  -15.8190 N.ar   16  DA16       -0.2048
    329  C4         7.2180    3.3920  -15.8650 C.ar   16  DA16        0.1691
    330  P         10.1230    5.5400  -20.9120 P.3    17  DG17        0.2141
    331  OP1       11.2720    5.8350  -21.8150 O.2    17  DG17       -0.5172
    332  OP2        8.7980    6.1680  -21.1760 O.3    17  DG17       -0.4373
    333  O5'        9.9230    3.9610  -20.8240 O.3    17  DG17       -0.3114
    334  C5'       11.0600    3.1110  -20.8130 C.3    17  DG17        0.1811
    335  C4'       10.6610    1.6600  -20.6880 C.3    17  DG17        0.1746
    336  O4'        9.8760    1.4910  -19.4780 O.3    17  DG17       -0.3327
    337  C3'        9.7400    1.1180  -21.7710 C.3    17  DG17        0.1558
    338  O3'       10.4000    0.7560  -22.9690 O.3    17  DG17       -0.3138
    339  C2'        9.1100   -0.0820  -21.0840 C.3    17  DG17        0.0865
    340  C1'        8.9110    0.4680  -19.6760 C.3    17  DG17        0.2093
    341  N9         7.5620    1.0110  -19.5430 N.ar   17  DG17       -0.2728
    342  C8         7.2000    2.3360  -19.5220 C.ar   17  DG17        0.1814
    343  N7         5.9350    2.5210  -19.2590 N.ar   17  DG17       -0.2177
    344  C5         5.4290    1.2450  -19.0930 C.ar   17  DG17        0.1711
    345  C6         4.1140    0.8050  -18.7920 C.2    17  DG17        0.2985
    346  O6         3.1010    1.4900  -18.6060 O.2    17  DG17       -0.2655
    347  N1         4.0350   -0.5830  -18.7140 N.am   17  DG17       -0.1043
    348  C2         5.0920   -1.4410  -18.9020 C.1    17  DG17        0.1455
    349  N2         4.8210   -2.7480  -18.7850 N.2    17  DG17       -0.0089
    350  N3         6.3190   -1.0470  -19.1820 N.pl3  17  DG17       -0.1259
    351  C4         6.4190    0.2970  -19.2640 C.ar   17  DG17        0.1688
    352  P          9.6290    0.8740  -24.3240 P.3    18  DA18        0.2141
    353  OP1       10.5780    0.4350  -25.3760 O.2    18  DA18       -0.5172
    354  OP2        9.3440    2.3210  -24.1540 O.3    18  DA18       -0.4373
    355  O5'        8.2360    0.1130  -24.5090 O.3    18  DA18       -0.3114
    356  C5'        8.2010   -1.3070  -24.4770 C.3    18  DA18        0.1811
    357  C4'        6.7980   -1.7900  -24.1860 C.3    18  DA18        0.1746
    358  O4'        6.3430   -1.2860  -22.9090 O.3    18  DA18       -0.3327
    359  C3'        5.7430   -1.2480  -25.1290 C.3    18  DA18        0.1558
    360  O3'        5.7960   -1.9160  -26.3710 O.3    18  DA18       -0.3138
    361  C2'        4.4560   -1.4670  -24.3390 C.3    18  DA18        0.0865
    362  C1'        4.9410   -1.0590  -22.9510 C.3    18  DA18        0.2094
    363  N9         4.7530    0.3870  -22.5350 N.ar   18  DA18       -0.2714
    364  C8         5.6130    1.3950  -22.1880 C.ar   18  DA18        0.1815
    365  N7         5.0180    2.4460  -21.6760 N.ar   18  DA18       -0.2193
    366  C5         3.6750    2.1050  -21.6880 C.ar   18  DA18        0.1518
    367  C6         2.5200    2.7940  -21.2760 C.ar   18  DA18        0.1919
    368  N6         2.5400    4.0200  -20.7480 N.pl3  18  DA18       -0.1054
    369  N1         1.3320    2.1710  -21.4260 N.ar   18  DA18       -0.2040
    370  C2         1.3140    0.9420  -21.9540 C.ar   18  DA18        0.2016
    371  N3         2.3300    0.1940  -22.3780 N.ar   18  DA18       -0.2048
    372  C4         3.4960    0.8410  -22.2160 C.ar   18  DA18        0.1691
    373  P          5.7300   -1.0040  -27.6640 P.3    19  DT19        0.2141
    374  OP1        5.7630   -2.1980  -28.5430 O.2    19  DT19       -0.5172
    375  OP2        6.1360    0.3080  -28.2060 O.3    19  DT19       -0.4373
    376  O5'        4.2650   -0.8520  -27.0660 O.3    19  DT19       -0.3114
    377  C5'        3.1770   -1.6170  -27.5850 C.3    19  DT19        0.1811
    378  C4'        2.0490   -0.7040  -27.9860 C.3    19  DT19        0.1746
    379  O4'        1.4230   -0.1390  -26.7950 O.3    19  DT19       -0.3327
    380  C3'        2.4410    0.4840  -28.8650 C.3    19  DT19        0.1558
    381  O3'        1.3890    0.7120  -29.7970 O.3    19  DT19       -0.3138
    382  C2'        2.5210    1.6220  -27.8490 C.3    19  DT19        0.0866
    383  C1'        1.3670    1.2650  -26.9200 C.3    19  DT19        0.2106
    384  N1         1.6360    1.8590  -25.6280 N.ar   19  DT19       -0.2559
    385  C2         0.7860    2.7750  -25.0370 C.ar   19  DT19        0.3545
    386  O2        -0.4270    2.7190  -25.1410 O.2    19  DT19       -0.2443
    387  N3         1.4090    3.7650  -24.3160 N.ar   19  DT19       -0.1533
    388  C4         2.7660    3.9280  -24.1310 C.ar   19  DT19        0.2804
    389  O4         3.1760    4.8680  -23.4550 O.2    19  DT19       -0.2654
    390  C5         3.5820    2.9380  -24.7770 C.ar   19  DT19        0.0534
    391  C6         3.0020    1.9640  -25.4840 C.ar   19  DT19        0.0824
    392  C7         5.0730    3.0290  -24.6360 C.3    19  DT19        0.0377
    393  P          1.7500    1.5550  -31.1960 P.3    20  DG20        0.2141
    394  OP1        1.1630    1.3830  -32.5480 O.2    20  DG20       -0.5172
    395  OP2        3.2030    1.7370  -31.0310 O.3    20  DG20       -0.4373
    396  O5'        0.9270    2.7390  -30.5400 O.3    20  DG20       -0.3114
    397  C5'       -0.4800    2.7790  -30.6640 C.3    20  DG20        0.1811
    398  C4'       -0.9290    4.0540  -29.9890 C.3    20  DG20        0.1746
    399  O4'       -0.4910    4.0110  -28.5960 O.3    20  DG20       -0.3327
    400  C3'       -0.2800    5.3310  -30.5100 C.3    20  DG20        0.1558
    401  O3'       -0.9140    5.8400  -31.6970 O.3    20  DG20       -0.3138
    402  C2'       -0.5080    6.2680  -29.3300 C.3    20  DG20        0.0865
    403  C1'       -0.3530    5.3450  -28.1080 C.3    20  DG20        0.2094
    404  N9         0.9320    5.4010  -27.4710 N.ar   20  DG20       -0.2713
    405  C8         1.9170    4.4440  -27.4400 C.ar   20  DG20        0.1816
    406  N7         3.0140    4.8530  -26.8650 N.ar   20  DG20       -0.2173
    407  C5         2.7410    6.1550  -26.4910 C.ar   20  DG20        0.1748
    408  C6         3.5490    7.1140  -25.8270 C.ar   20  DG20        0.3023
    409  O6         4.7130    6.9880  -25.4240 O.2    20  DG20       -0.2633
    410  N1         2.8800    8.3210  -25.6430 N.ar   20  DG20       -0.1709
    411  C2         1.5910    8.5730  -26.0470 C.ar   20  DG20        0.2606
    412  N2         1.1170    9.7970  -25.7800 N.pl3  20  DG20       -0.0859
    413  N3         0.8290    7.6920  -26.6660 N.ar   20  DG20       -0.1918
    414  C4         1.4580    6.5130  -26.8560 C.ar   20  DG20        0.1722
    415  P         -0.0380    6.4610  -32.9800 P.3    21  DC21        0.2141
    416  OP1       -0.9080    6.4520  -34.1830 O.2    21  DC21       -0.5172
    417  OP2        1.3180    5.8730  -33.0460 O.3    21  DC21       -0.4373
    418  O5'        0.0570    7.9440  -32.4190 O.3    21  DC21       -0.3114
    419  C5'       -1.1210    8.6190  -32.0090 C.3    21  DC21        0.1811
    420  C4'       -0.7880    9.7520  -31.0750 C.3    21  DC21        0.1746
    421  O4'       -0.2430    9.2560  -29.8260 O.3    21  DC21       -0.3327
    422  C3'        0.2910   10.7130  -31.5250 C.3    21  DC21        0.1558
    423  O3'       -0.1700   11.5870  -32.5360 O.3    21  DC21       -0.3138
    424  C2'        0.5630   11.4450  -30.2250 C.3    21  DC21        0.0866
    425  C1'        0.5640   10.2710  -29.2420 C.3    21  DC21        0.2106
    426  N1         1.9260    9.7430  -29.0320 N.ar   21  DC21       -0.2556
    427  C2         2.7230   10.3210  -28.0370 C.ar   21  DC21        0.3531
    428  O2         2.3010   11.3280  -27.4430 O.2    21  DC21       -0.2443
    429  N3         3.9260    9.7690  -27.7520 N.ar   21  DC21       -0.1739
    430  C4         4.3390    8.6890  -28.4160 C.ar   21  DC21        0.1759
    431  N4         5.5320    8.1790  -28.1000 N.pl3  21  DC21       -0.1070
    432  C5         3.5470    8.0880  -29.4280 C.ar   21  DC21        0.0566
    433  C6         2.3590    8.6360  -29.7060 C.ar   21  DC21        0.0849
    434  P          0.7570   11.9220  -33.6790 P.3    22  DG22        0.2141
    435  OP1        0.3850   12.7660  -34.8490 O.2    22  DG22       -0.5172
    436  OP2        1.8760   10.9590  -33.8030 O.3    22  DG22       -0.4373
    437  O5'        1.1840   12.8720  -32.4840 O.3    22  DG22       -0.3114
    438  C5'        0.5940   14.1410  -32.3130 C.3    22  DG22        0.1811
    439  C4'        1.5970   15.0770  -31.7090 C.3    22  DG22        0.1746
    440  O4'        2.0010   14.5430  -30.4260 O.3    22  DG22       -0.3327
    441  C3'        2.8960   15.1690  -32.4900 C.3    22  DG22        0.1558
    442  O3'        2.8710   16.1430  -33.5070 O.3    22  DG22       -0.3138
    443  C2'        3.9090   15.5450  -31.4310 C.3    22  DG22        0.0865
    444  C1'        3.3890   14.7630  -30.2270 C.3    22  DG22        0.2094
    445  N9         4.1170   13.3910  -30.0950 N.ar   22  DG22       -0.2713
    446  C8         3.8290   12.1410  -30.5880 C.ar   22  DG22        0.1816
    447  N7         4.7930   11.2800  -30.4030 N.ar   22  DG22       -0.2173
    448  C5         5.7740   11.9990  -29.7470 C.ar   22  DG22        0.1748
    449  C6         7.0550   11.6030  -29.2840 C.ar   22  DG22        0.3023
    450  O6         7.5900   10.4900  -29.3670 O.2    22  DG22       -0.2633
    451  N1         7.7340   12.6520  -28.6700 N.ar   22  DG22       -0.1709
    452  C2         7.2400   13.9260  -28.5210 C.ar   22  DG22        0.2606
    453  N2         8.0420   14.8020  -27.9020 N.pl3  22  DG22       -0.0859
    454  N3         6.0530   14.3090  -28.9470 N.ar   22  DG22       -0.1918
    455  C4         5.3760   13.3070  -29.5470 C.ar   22  DG22        0.1722
    456  P          3.8050   15.9040  -34.7800 P.3    23  DA23        0.2141
    457  OP1        3.0260   16.5070  -35.8820 O.2    23  DA23       -0.5172
    458  OP2        4.0090   14.4380  -34.7410 O.3    23  DA23       -0.4373
    459  O5'        5.2900   16.5020  -34.7990 O.3    23  DA23       -0.3114
    460  C5'        5.5910   17.8390  -34.4220 C.3    23  DA23        0.1811
    461  C4'        6.8360   17.8900  -33.5680 C.3    23  DA23        0.1746
    462  O4'        6.6930   16.9570  -32.4690 O.3    23  DA23       -0.3327
    463  C3'        8.1470   17.5120  -34.2550 C.3    23  DA23        0.1558
    464  O3'        8.7830   18.6440  -34.8400 O.3    23  DA23       -0.3138
    465  C2'        8.9840   16.8480  -33.1660 C.3    23  DA23        0.0865
    466  C1'        7.9500   16.4220  -32.1200 C.3    23  DA23        0.2094
    467  N9         7.9040   15.1370  -31.8760 N.ar   23  DA23       -0.2714
    468  C8         7.1010   14.2560  -32.5540 C.ar   23  DA23        0.1815
    469  N7         7.3670   12.9960  -32.3010 N.ar   23  DA23       -0.2193
    470  C5         8.4160   13.0540  -31.3970 C.ar   23  DA23        0.1518
    471  C6         9.1540   12.0530  -30.7400 C.ar   23  DA23        0.1919
    472  N6         8.9360   10.7460  -30.9020 N.pl3  23  DA23       -0.1054
    473  N1        10.1360   12.4480  -29.9010 N.ar   23  DA23       -0.2040
    474  C2        10.3530   13.7580  -29.7390 C.ar   23  DA23        0.2016
    475  N3         9.7270   14.7900  -30.2980 N.ar   23  DA23       -0.2048
    476  C4         8.7580   14.3650  -31.1270 C.ar   23  DA23        0.1691
    477  P         10.3180   18.7070  -35.3270 P.3    24  DT24        0.2141
    478  OP1       10.4170   19.9600  -36.1340 O.2    24  DT24       -0.5172
    479  OP2       10.1220   17.4130  -36.0140 O.3    24  DT24       -0.4373
    480  O5'       11.5500   18.5240  -34.3430 O.3    24  DT24       -0.3114
    481  C5'       11.7090   19.4120  -33.2420 C.3    24  DT24        0.1812
    482  C4'       12.4260   18.7380  -32.1060 C.3    24  DT24        0.1775
    483  O4'       11.6080   17.6900  -31.5160 O.3    24  DT24       -0.3326
    484  C3'       13.6910   17.9930  -32.4640 C.3    24  DT24        0.1864
    485  O3'       14.7790   18.8230  -32.7940 O.3    24  DT24       -0.2133
    486  C2'       13.8940   17.1380  -31.2300 C.3    24  DT24        0.0895
    487  C1'       12.4590   16.7220  -30.9220 C.3    24  DT24        0.2107
    488  N1        12.1970   15.4530  -31.5980 N.ar   24  DT24       -0.2559
    489  C2        12.7960   14.2710  -31.2060 C.ar   24  DT24        0.3545
    490  O2        13.6820   14.2210  -30.3710 O.2    24  DT24       -0.2443
    491  N3        12.3210   13.1430  -31.8300 N.ar   24  DT24       -0.1533
    492  C4        11.3280   13.0800  -32.7860 C.ar   24  DT24        0.2804
    493  O4        11.0080   11.9900  -33.2540 O.2    24  DT24       -0.2654
    494  C5        10.7560   14.3480  -33.1400 C.ar   24  DT24        0.0534
    495  C6        11.2000   15.4610  -32.5490 C.ar   24  DT24        0.0824
    496  C7         9.6680   14.3840  -34.1720 C.3    24  DT24        0.0377
    497  P         15.4480   18.5240  -34.1200 P.3    25  DC25        0.3939
    498  OP1       15.6410   19.8380  -33.4330 O.3    25  DC25       -0.1496
    499  OP2       15.0500   18.4210  -35.5380 O.3    25  DC25       -0.1425
    500  O5'       16.7550   17.6630  -33.8840 O.3    25  DC25       -0.2926
    501  C5'       17.2940   17.9020  -32.6040 C.3    25  DC25        0.1828
    502  C4'       17.7860   16.6270  -32.0000 C.3    25  DC25        0.1747
    503  O4'       16.6920   15.7900  -31.6100 O.3    25  DC25       -0.3327
    504  C3'       18.5400   15.7630  -32.9840 C.3    25  DC25        0.1558
    505  O3'       19.8050   16.3310  -33.2630 O.3    25  DC25       -0.3138
    506  C2'       18.5920   14.5270  -32.1190 C.3    25  DC25        0.0866
    507  C1'       17.1260   14.4540  -31.6920 C.3    25  DC25        0.2106
    508  N1        16.2080   13.6640  -32.5620 N.ar   25  DC25       -0.2556
    509  C2        16.2210   12.2650  -32.5370 C.ar   25  DC25        0.3531
    510  O2        16.9880   11.6880  -31.7480 O.2    25  DC25       -0.2443
    511  N3        15.4010   11.5830  -33.3720 N.ar   25  DC25       -0.1739
    512  C4        14.5950   12.2450  -34.2030 C.ar   25  DC25        0.1759
    513  N4        13.8040   11.5300  -35.0070 N.pl3  25  DC25       -0.1070
    514  C5        14.5670   13.6620  -34.2440 C.ar   25  DC25        0.0566
    515  C6        15.3780   14.3320  -33.4180 C.ar   25  DC25        0.0849
    516  P         20.7670   15.7470  -34.5450 P.3    26  DT26        0.2141
    517  OP1       22.0240   16.5000  -34.3150 O.3    26  DT26       -0.4373
    518  OP2       19.9820   15.9840  -35.7800 O.2    26  DT26       -0.5172
    519  O5'       21.0360   14.1620  -34.5440 O.3    26  DT26       -0.3114
    520  C5'       21.9550   13.5450  -33.6470 C.3    26  DT26        0.1811
    521  C4'       21.7270   12.0560  -33.5140 C.3    26  DT26        0.1746
    522  O4'       20.3170   11.7940  -33.2840 O.3    26  DT26       -0.3327
    523  C3'       22.0600   11.2020  -34.7290 C.3    26  DT26        0.1558
    524  O3'       23.4410   10.9110  -34.8650 O.3    26  DT26       -0.3138
    525  C2'       21.1940    9.9660  -34.5180 C.3    26  DT26        0.0866
    526  C1'       19.9370   10.5900  -33.9140 C.3    26  DT26        0.2105
    527  N1        18.9880   10.8650  -34.9280 N.ar   26  DT26       -0.2591
    528  C2        18.2790    9.8170  -35.4840 C.ar   26  DT26        0.3079
    529  O2        18.4480    8.6550  -35.1600 O.3    26  DT26       -0.4110
    530  N3        17.3600   10.1800  -36.4390 N.ar   26  DT26       -0.1567
    531  C4        17.0860   11.4560  -36.8840 C.ar   26  DT26        0.2803
    532  O4        16.2300   11.6240  -37.7500 O.2    26  DT26       -0.2654
    533  C5        17.8640   12.4890  -36.2600 C.ar   26  DT26        0.0534
    534  C6        18.7640   12.1640  -35.3280 C.ar   26  DT26        0.0823
    535  C7        17.6400   13.9120  -36.6770 C.3    26  DT26        0.0377
    536  P         23.8740    9.8870  -36.5310 P.3    27  DG27        0.2141
    537  OP1       25.2860    9.7950  -36.0940 O.3    27  DG27       -0.4373
    538  OP2       23.4890   10.8110  -37.6200 O.2    27  DG27       -0.5172
    539  O5'       23.2960    8.4720  -37.0240 O.3    27  DG27       -0.3114
    540  C5'       23.3190    7.3160  -36.1990 C.3    27  DG27        0.1812
    541  C4'       21.9790    7.0380  -35.5570 C.3    27  DG27        0.1780
    542  O4'       21.2000    8.2560  -35.4640 O.3    27  DG27       -0.3053
    543  C3'       21.0480    6.0530  -36.2520 C.3    27  DG27        0.1597
    544  O3'       21.4060    4.7110  -35.9650 O.3    27  DG27       -0.3137
    545  C2'       19.6850    6.4370  -35.6880 C.3    27  DG27        0.1279
    546  C1'       19.8250    7.9460  -35.5000 C.3    27  DG27        0.3179
    547  N9        19.1020    8.3030  -36.7470 N.ar   27  DG27       -0.2429
    548  C8        19.6660    9.1840  -37.6370 C.ar   27  DG27        0.1840
    549  N7        18.8450    9.5630  -38.5780 N.ar   27  DG27       -0.2176
    550  C5        17.6670    8.8970  -38.2940 C.ar   27  DG27        0.1712
    551  C6        16.4160    8.9070  -38.9630 C.2    27  DG27        0.2985
    552  O6        16.0970    9.5360  -39.9800 O.2    27  DG27       -0.2655
    553  N1        15.4850    8.0820  -38.3390 N.am   27  DG27       -0.1056
    554  C2        15.7280    7.3400  -37.2080 C.1    27  DG27        0.1244
    555  N2        14.7050    6.6050  -36.7520 N.2    27  DG27       -0.1096
    556  N3        16.8850    7.3200  -36.5760 N.pl3  27  DG27       -0.1272
    557  C4        17.8050    8.1130  -37.1650 C.ar   27  DG27        0.1712
    558  P         20.3490    3.5920  -35.8990 P.3    28  DG28        0.2141
    559  OP1       21.5260    2.8640  -36.4320 O.3    28  DG28       -0.4373
    560  OP2       19.0280    3.2590  -36.4720 O.2    28  DG28       -0.5172
    561  O5'       20.2680    3.4170  -34.3150 O.3    28  DG28       -0.3113
    562  C5'       19.0000    3.0000  -33.7720 C.3    28  DG28        0.1837
    563  C4'       18.3730    4.1990  -33.1000 C.3    28  DG28        0.2012
    564  O4'       17.6760    4.9880  -34.1290 O.3    28  DG28       -0.3130
    565  C3'       17.2830    3.9130  -32.1350 C.3    28  DG28        0.2404
    566  O3'       17.7130    3.4500  -30.8880 O.3    28  DG28       -0.2490
    567  C2'       16.4830    5.2310  -32.1060 C.3    28  DG28        0.1394
    568  C1'       16.5230    5.6280  -33.5490 C.3    28  DG28        0.2895
    569  N9        15.2740    5.4130  -34.4310 N.pl3  28  DG28       -0.1509
    570  C8        14.7760    5.0850  -35.6690 C.3    28  DG28        0.3242
    571  N7        14.0040    6.0080  -36.1740 N.pl3  28  DG28       -0.1618
    572  C5        13.9910    7.0060  -35.2170 C.3    28  DG28        0.2798
    573  C6        13.3260    8.2590  -35.1990 C.2    28  DG28        0.2880
    574  O6        12.5890    8.7480  -36.0640 O.2    28  DG28       -0.2697
    575  N1        13.5840    8.9690  -34.0290 N.am   28  DG28       -0.0865
    576  C2        14.3840    8.5250  -33.0030 C.1    28  DG28        0.2329
    577  N2        14.5130    9.3510  -31.9560 N.2    28  DG28       -0.1495
    578  N3        15.0080    7.3640  -33.0060 N.2    28  DG28        0.0304
    579  C4        14.7710    6.6570  -34.1320 C.2    28  DG28        0.3438
    580  P         16.9270    2.7910  -30.3700 P.3    29  DA29        0.4833
    581  OP1       17.0520    1.5000  -29.6500 O.2    29  DA29       -0.2269
    582  OP2       15.9620    2.9110  -31.4810 O.3    29  DA29       -0.2490
    583  O5'       16.5740    3.9440  -29.3230 O.3    29  DA29       -0.2704
    584  C5'       17.3950    4.2020  -28.1780 C.3    29  DA29        0.1857
    585  C4'       17.3590    5.6760  -27.8280 C.3    29  DA29        0.1774
    586  O4'       17.2690    6.4410  -29.0600 O.3    29  DA29       -0.3348
    587  C3'       16.1910    6.2050  -27.0100 C.3    29  DA29        0.1857
    588  O3'       16.3720    5.9920  -25.6140 O.3    29  DA29       -0.2202
    589  C2'       16.2520    7.6910  -27.3270 C.3    29  DA29        0.0864
    590  C1'       16.5850    7.6580  -28.8160 C.3    29  DA29        0.1974
    591  N9        15.3530    7.6950  -29.5910 N.pl3  29  DA29       -0.2474
    592  C8        14.8100    6.6520  -30.2950 C.2    29  DA29        0.1642
    593  N7        13.7350    6.9750  -30.9740 N.2    29  DA29       -0.2198
    594  C5        13.5600    8.3220  -30.6970 C.3    29  DA29        0.3213
    595  C6        12.5960    9.2560  -31.1150 C.2    29  DA29        0.4391
    596  N6        11.5860    8.9590  -31.9360 N.pl3  29  DA29        0.2156
    597  N1        12.7070   10.5200  -30.6540 N.2    29  DA29       -0.0071
    598  C2        13.7200   10.8170  -29.8330 C.2    29  DA29        0.3360
    599  N3        14.6880   10.0280  -29.3710 N.2    29  DA29       -0.2021
    600  C4        14.5480    8.7790  -29.8460 C.3    29  DA29        0.2398
    601  P         15.1210    5.6590  -24.8340 P.3    30  DT30        0.4149
    602  OP1       15.0120    5.6180  -23.3520 O.2    30  DT30       -0.2668
    603  OP2       13.9450    5.2970  -25.6730 O.3    30  DT30       -0.1481
    604  O5'       15.5540    7.1320  -25.2600 O.3    30  DT30       -0.2177
    605  C5'       16.0920    8.0360  -24.3050 C.3    30  DT30        0.2140
    606  C4'       15.8870    9.4680  -24.7510 C.3    30  DT30        0.1776
    607  O4'       15.6190    9.5400  -26.1780 O.3    30  DT30       -0.3326
    608  C3'       14.6890   10.1690  -24.1420 C.3    30  DT30        0.1559
    609  O3'       14.9830   10.6200  -22.8350 O.3    30  DT30       -0.3138
    610  C2'       14.4910   11.3280  -25.1050 C.3    30  DT30        0.0866
    611  C1'       14.7460   10.6310  -26.4390 C.3    30  DT30        0.2106
    612  N1        13.4350   10.1290  -27.0390 N.ar   30  DT30       -0.2559
    613  C2        12.5430   10.9990  -27.6380 C.ar   30  DT30        0.3545
    614  O2        12.6990   12.2070  -27.6480 O.2    30  DT30       -0.2443
    615  N3        11.4560   10.4000  -28.2280 N.ar   30  DT30       -0.1533
    616  C4        11.1770    9.0510  -28.2770 C.ar   30  DT30        0.2804
    617  O4        10.1590    8.6630  -28.8450 O.2    30  DT30       -0.2654
    618  C5        12.1490    8.2140  -27.6320 C.ar   30  DT30        0.0534
    619  C6        13.2160    8.7690  -27.0510 C.ar   30  DT30        0.0824
    620  C7        11.9340    6.7290  -27.6310 C.3    30  DT30        0.0377
    621  P         13.8940   10.5930  -21.7730 P.3    31  DA31        0.2141
    622  OP1       14.7440   11.2870  -20.7470 O.3    31  DA31       -0.4373
    623  OP2       13.1030    9.3980  -21.3720 O.2    31  DA31       -0.5172
    624  O5'       13.0130   11.7130  -22.5580 O.3    31  DA31       -0.3114
    625  C5'       13.0120   13.0280  -21.9780 C.3    31  DA31        0.1811
    626  C4'       11.9410   13.9480  -22.5120 C.3    31  DA31        0.1746
    627  O4'       11.7350   13.6550  -23.8930 O.3    31  DA31       -0.3327
    628  C3'       10.5750   13.8040  -21.9240 C.3    31  DA31        0.1558
    629  O3'       10.4660   14.6280  -20.7850 O.3    31  DA31       -0.3138
    630  C2'        9.8110   14.4070  -23.0500 C.3    31  DA31        0.0865
    631  C1'       10.3670   13.6090  -24.1610 C.3    31  DA31        0.2094
    632  N9         9.9180   12.2020  -24.4250 N.ar   31  DA31       -0.2714
    633  C8        10.5860   11.0670  -24.0470 C.ar   31  DA31        0.1815
    634  N7         9.9690    9.9560  -24.3740 N.ar   31  DA31       -0.2193
    635  C5         8.8160   10.3910  -25.0080 C.ar   31  DA31        0.1518
    636  C6         7.7390    9.7010  -25.5900 C.ar   31  DA31        0.1919
    637  N6         7.6480    8.3700  -25.6290 N.pl3  31  DA31       -0.1054
    638  N1         6.7470   10.4350  -26.1380 N.ar   31  DA31       -0.2040
    639  C2         6.8400   11.7700  -26.1000 C.ar   31  DA31        0.2016
    640  N3         7.8010   12.5310  -25.5830 N.ar   31  DA31       -0.2048
    641  C4         8.7700   11.7720  -25.0460 C.ar   31  DA31        0.1691
    642  P          9.3250   14.3340  -19.7640 P.3    32  DT32        0.2141
    643  OP1        9.2350   15.6330  -19.0570 O.2    32  DT32       -0.5172
    644  OP2        9.5310   13.0860  -18.9820 O.3    32  DT32       -0.4373
    645  O5'        7.9930   14.1770  -20.6290 O.3    32  DT32       -0.3114
    646  C5'        6.7440   14.6830  -20.1630 C.3    32  DT32        0.1811
    647  C4'        5.6350   14.4110  -21.1660 C.3    32  DT32        0.1746
    648  O4'        6.1720   13.8420  -22.3930 O.3    32  DT32       -0.3327
    649  C3'        4.5680   13.4140  -20.7250 C.3    32  DT32        0.1558
    650  O3'        3.5820   14.0390  -19.9100 O.3    32  DT32       -0.3138
    651  C2'        4.0170   12.9260  -22.0580 C.3    32  DT32        0.0866
    652  C1'        5.2970   12.8410  -22.8910 C.3    32  DT32        0.2106
    653  N1         5.9370   11.4950  -22.7170 N.ar   32  DT32       -0.2559
    654  C2         5.4080   10.4110  -23.3920 C.ar   32  DT32        0.3545
    655  O2         4.3930   10.4770  -24.0620 O.2    32  DT32       -0.2443
    656  N3         6.1120    9.2400  -23.2530 N.ar   32  DT32       -0.1533
    657  C4         7.2670    9.0480  -22.5240 C.ar   32  DT32        0.2804
    658  O4         7.7870    7.9350  -22.4950 O.2    32  DT32       -0.2654
    659  C5         7.7530   10.2200  -21.8510 C.ar   32  DT32        0.0534
    660  C6         7.0870   11.3720  -21.9690 C.ar   32  DT32        0.0824
    661  C7         9.0040   10.1130  -21.0300 C.3    32  DT32        0.0377
    662  P          2.8710   13.2280  -18.7390 P.3    33  DT33        0.2141
    663  OP1        2.6880   13.8780  -17.4150 O.3    33  DT33       -0.4373
    664  OP2        2.9110   11.7510  -18.8270 O.2    33  DT33       -0.5172
    665  O5'        1.7570   13.7200  -19.7560 O.3    33  DT33       -0.3114
    666  C5'        0.4380   13.3270  -19.5470 C.3    33  DT33        0.1812
    667  C4'       -0.1820   12.8160  -20.8130 C.3    33  DT33        0.1775
    668  O4'        0.7550   12.1670  -21.7250 O.3    33  DT33       -0.3326
    669  C3'       -1.1610   11.7140  -20.5010 C.3    33  DT33        0.1859
    670  O3'       -2.3010   12.1820  -19.8260 O.3    33  DT33       -0.2202
    671  C2'       -1.3430   11.0400  -21.8510 C.3    33  DT33        0.0895
    672  C1'        0.0860   11.0960  -22.4040 C.3    33  DT33        0.2107
    673  N1         0.8120    9.8240  -22.1060 N.ar   33  DT33       -0.2559
    674  C2         0.4930    8.6350  -22.7350 C.ar   33  DT33        0.3545
    675  O2        -0.5280    8.4790  -23.3810 O.2    33  DT33       -0.2443
    676  N3         1.4160    7.6290  -22.5790 N.ar   33  DT33       -0.1533
    677  C4         2.5990    7.6900  -21.8720 C.ar   33  DT33        0.2804
    678  O4         3.3260    6.7020  -21.8240 O.2    33  DT33       -0.2654
    679  C5         2.8580    8.9570  -21.2470 C.ar   33  DT33        0.0534
    680  C6         1.9780    9.9520  -21.3830 C.ar   33  DT33        0.0824
    681  C7         4.1200    9.1240  -20.4540 C.3    33  DT33        0.0377
    682  P         -2.8420   11.3320  -18.4830 P.3    34  DA34        0.4149
    683  OP1       -4.1170   11.7930  -17.8770 O.2    34  DA34       -0.2668
    684  OP2       -2.1850   10.1080  -17.9640 O.3    34  DA34       -0.1481
    685  O5'       -3.0870   11.1730  -20.0520 O.3    34  DA34       -0.2177
    686  C5'       -4.3310   11.5590  -20.6540 C.3    34  DA34        0.2140
    687  C4'       -4.8160   10.4870  -21.6210 C.3    34  DA34        0.1776
    688  O4'       -3.7640   10.1930  -22.5780 O.3    34  DA34       -0.3326
    689  C3'       -5.1800    9.1360  -21.0130 C.3    34  DA34        0.1559
    690  O3'       -6.5500    9.1290  -20.6130 O.3    34  DA34       -0.3138
    691  C2'       -4.9620    8.1760  -22.1780 C.3    34  DA34        0.0865
    692  C1'       -3.7590    8.8100  -22.8800 C.3    34  DA34        0.2094
    693  N9        -2.5150    8.2390  -22.4780 N.ar   34  DA34       -0.2714
    694  C8        -1.6490    8.6610  -21.5040 C.ar   34  DA34        0.1815
    695  N7        -0.6550    7.8340  -21.2840 N.ar   34  DA34       -0.2193
    696  C5        -0.8840    6.7970  -22.1750 C.ar   34  DA34        0.1518
    697  C6        -0.1860    5.6050  -22.4390 C.ar   34  DA34        0.1919
    698  N6         0.9320    5.2470  -21.8030 N.pl3  34  DA34       -0.1054
    699  N1        -0.6830    4.7860  -23.3900 N.ar   34  DA34       -0.2040
    700  C2        -1.8030    5.1470  -24.0270 C.ar   34  DA34        0.2016
    701  N3        -2.5460    6.2390  -23.8680 N.ar   34  DA34       -0.2048
    702  C4        -2.0270    7.0320  -22.9160 C.ar   34  DA34        0.1691
    703  P         -7.2040    7.9450  -19.2720 P.3    35  DT35        0.2141
    704  OP1       -8.6020    8.2000  -18.9450 O.2    35  DT35       -0.5172
    705  OP2       -6.0990    8.0970  -18.2860 O.3    35  DT35       -0.4373
    706  O5'       -6.9670    6.5330  -19.9700 O.3    35  DT35       -0.3114
    707  C5'       -8.0840    5.9420  -20.5420 C.3    35  DT35        0.1811
    708  C4'       -7.5800    5.0370  -21.6320 C.3    35  DT35        0.1746
    709  O4'       -6.3760    5.6390  -22.0550 O.3    35  DT35       -0.3327
    710  C3'       -7.0850    3.6780  -21.2370 C.3    35  DT35        0.1558
    711  O3'       -8.1290    2.7000  -21.1040 O.3    35  DT35       -0.3138
    712  C2'       -6.2490    3.4420  -22.4570 C.3    35  DT35        0.0866
    713  C1'       -5.4580    4.6640  -22.4930 C.3    35  DT35        0.2106
    714  N1        -4.2630    4.4990  -21.6930 N.ar   35  DT35       -0.2559
    715  C2        -3.1910    3.6910  -22.0220 C.ar   35  DT35        0.3545
    716  O2        -3.2470    2.8290  -22.8810 O.2    35  DT35       -0.2443
    717  N3        -2.0430    3.9280  -21.3040 N.ar   35  DT35       -0.1533
    718  C4        -1.8640    4.8710  -20.3140 C.ar   35  DT35        0.2804
    719  O4        -0.7720    4.9660  -19.7600 O.2    35  DT35       -0.2654
    720  C5        -3.0230    5.6700  -20.0300 C.ar   35  DT35        0.0534
    721  C6        -4.1520    5.4600  -20.7120 C.ar   35  DT35        0.0824
    722  C7        -2.9290    6.7240  -18.9670 C.3    35  DT35        0.0377
    723  P         -8.2370    2.0510  -19.6010 P.3    36  DT36        0.2141
    724  OP1       -9.5050    1.3490  -19.2840 O.2    36  DT36       -0.5172
    725  OP2       -7.5390    2.7950  -18.5020 O.3    36  DT36       -0.4373
    726  O5'       -7.2510    0.9660  -20.2090 O.3    36  DT36       -0.3114
    727  C5'       -7.7620   -0.0550  -21.0370 C.3    36  DT36        0.1811
    728  C4'       -6.6910   -1.0530  -21.3380 C.3    36  DT36        0.1746
    729  O4'       -5.6630   -0.4250  -22.1360 O.3    36  DT36       -0.3327
    730  C3'       -5.9560   -1.6040  -20.1290 C.3    36  DT36        0.1558
    731  O3'       -6.6460   -2.7100  -19.5650 O.3    36  DT36       -0.3138
    732  C2'       -4.6370   -2.0400  -20.7330 C.3    36  DT36        0.0866
    733  C1'       -4.3940   -0.9320  -21.7580 C.3    36  DT36        0.2106
    734  N1        -3.5720    0.1770  -21.2210 N.ar   36  DT36       -0.2559
    735  C2        -2.2020    0.0450  -21.3440 C.ar   36  DT36        0.3545
    736  O2        -1.6760   -0.8480  -21.9850 O.2    36  DT36       -0.2443
    737  N3        -1.4650    1.0000  -20.6870 N.ar   36  DT36       -0.1533
    738  C4        -1.9500    2.0500  -19.9350 C.ar   36  DT36        0.2804
    739  O4        -1.1610    2.8290  -19.4050 O.2    36  DT36       -0.2654
    740  C5        -3.3810    2.1180  -19.8540 C.ar   36  DT36        0.0534
    741  C6        -4.1220    1.2030  -20.4830 C.ar   36  DT36        0.0824
    742  C7        -4.0050    3.2250  -19.0580 C.3    36  DT36        0.0377
    743  P         -5.9310   -3.5910  -18.2960 P.3    37  DT37        0.2141
    744  OP1       -6.6880   -4.8610  -18.1770 O.2    37  DT37       -0.5172
    745  OP2       -6.1080   -2.5100  -17.3000 O.3    37  DT37       -0.4373
    746  O5'       -4.3540   -3.9090  -18.3000 O.3    37  DT37       -0.3114
    747  C5'       -3.8990   -5.1380  -18.8610 C.3    37  DT37        0.1811
    748  C4'       -2.4110   -5.1910  -19.1240 C.3    37  DT37        0.1746
    749  O4'       -1.9570   -3.9500  -19.7210 O.3    37  DT37       -0.3327
    750  C3'       -1.5030   -5.3570  -17.9170 C.3    37  DT37        0.1558
    751  O3'       -1.4350   -6.6840  -17.4220 O.3    37  DT37       -0.3138
    752  C2'       -0.1730   -4.8530  -18.4580 C.3    37  DT37        0.0866
    753  C1'       -0.6310   -3.6730  -19.3100 C.3    37  DT37        0.2106
    754  N1        -0.6340   -2.3550  -18.5910 N.ar   37  DT37       -0.2559
    755  C2         0.5870   -1.7290  -18.4280 C.ar   37  DT37        0.3545
    756  O2         1.6300   -2.1840  -18.8630 O.2    37  DT37       -0.2443
    757  N3         0.5440   -0.5440  -17.7330 N.ar   37  DT37       -0.1533
    758  C4        -0.5720    0.0630  -17.1970 C.ar   37  DT37        0.2804
    759  O4        -0.4520    1.1290  -16.5980 O.2    37  DT37       -0.2654
    760  C5        -1.8010   -0.6490  -17.4070 C.ar   37  DT37        0.0534
    761  C6        -1.7880   -1.8030  -18.0790 C.ar   37  DT37        0.0824
    762  C7        -3.0720   -0.0700  -16.8610 C.3    37  DT37        0.0377
    763  P         -1.0900   -6.9260  -15.9270 P.3    38  DT38        0.2141
    764  OP1       -1.8230   -8.0600  -15.3110 O.2    38  DT38       -0.5172
    765  OP2       -0.9850   -5.6280  -15.2070 O.3    38  DT38       -0.4373
    766  O5'        0.3880   -7.3980  -16.2870 O.3    38  DT38       -0.3114
    767  C5'        0.9030   -7.2870  -17.6080 C.3    38  DT38        0.1811
    768  C4'        2.3420   -6.8270  -17.5730 C.3    38  DT38        0.1744
    769  O4'        2.4610   -5.5480  -18.2370 O.3    38  DT38       -0.3348
    770  C3'        2.9090   -6.5580  -16.1970 C.3    38  DT38        0.1555
    771  O3'        3.3300   -7.7300  -15.5610 O.3    38  DT38       -0.3139
    772  C2'        4.0400   -5.5980  -16.4720 C.3    38  DT38        0.0836
    773  C1'        3.4330   -4.7540  -17.5790 C.3    38  DT38        0.1985
    774  N1         2.7610   -3.5510  -16.9390 N.pl3  38  DT38       -0.2334
    775  C2         3.5560   -2.4450  -16.7040 C.3    38  DT38        0.3657
    776  O2         4.7350   -2.3970  -17.0090 O.2    38  DT38       -0.3290
    777  N3         2.9200   -1.3910  -16.0940 N.am   38  DT38       -0.1829
    778  C4         1.5980   -1.3330  -15.7060 C.2    38  DT38        0.2531
    779  O4         1.1690   -0.3140  -15.1690 O.2    38  DT38       -0.2700
    780  C5         0.8390   -2.5200  -15.9830 C.2    38  DT38        0.0466
    781  C6         1.4330   -3.5600  -16.5750 C.2    38  DT38        0.0675
    782  C7        -0.6100   -2.5550  -15.5970 C.3    38  DT38        0.0372
    783  P          3.1530   -7.7750  -14.0920 P.3    39  DT39        0.2141
    784  OP1        2.3290   -8.6800  -13.2620 O.3    39  DT39       -0.4373
    785  OP2        3.1620   -6.3230  -13.8030 O.2    39  DT39       -0.5172
    786  O5'        4.6630   -8.2970  -14.0860 O.3    39  DT39       -0.3114
    787  C5'        5.4340   -8.2470  -15.2760 C.3    39  DT39        0.1811
    788  C4'        6.4150   -7.0890  -15.2590 C.3    39  DT39        0.1744
    789  O4'        5.8970   -5.9860  -16.0390 O.3    39  DT39       -0.3346
    790  C3'        6.6840   -6.4330  -13.9150 C.3    39  DT39        0.1555
    791  O3'        7.5280   -7.2420  -13.1010 O.3    39  DT39       -0.3139
    792  C2'        7.4090   -5.1850  -14.4010 C.3    39  DT39        0.0839
    793  C1'        6.5980   -4.8220  -15.6460 C.3    39  DT39        0.2017
    794  N1         5.6230   -3.8170  -15.5670 N.am   39  DT39       -0.2180
    795  C2         5.9680   -2.4820  -15.6550 C.2    39  DT39        0.3322
    796  O2         7.0230   -2.0980  -16.1280 O.2    39  DT39       -0.2502
    797  N3         5.0290   -1.6060  -15.1670 N.am   39  DT39       -0.1407
    798  C4         3.8080   -1.9240  -14.6110 C.3    39  DT39        0.2921
    799  O4         3.0700   -1.0240  -14.2160 O.3    39  DT39       -0.1767
    800  C5         3.5230   -3.3300  -14.5540 C.2    39  DT39        0.0361
    801  C6         4.4180   -4.2040  -15.0220 C.2    39  DT39        0.0684
    802  C7         2.2180   -3.7780  -13.9660 C.3    39  DT39        0.0338
    803  P          8.1360   -6.6230  -11.6410 P.3    40  DG40        0.2141
    804  OP1        8.6360   -7.6970  -10.7460 O.3    40  DG40       -0.4373
    805  OP2        6.6730   -6.4470  -11.8260 O.2    40  DG40       -0.5172
    806  O5'        8.7580   -5.2410  -11.1400 O.3    40  DG40       -0.3114
    807  C5'       10.1760   -5.1000  -10.9800 C.3    40  DG40        0.1811
    808  C4'       10.6440   -3.7430  -11.4610 C.3    40  DG40        0.1746
    809  O4'        9.8120   -3.2810  -12.5610 O.3    40  DG40       -0.3327
    810  C3'       10.6010   -2.5900  -10.4760 C.3    40  DG40        0.1558
    811  O3'       11.7160   -2.5980   -9.6000 O.3    40  DG40       -0.3138
    812  C2'       10.6300   -1.3780  -11.4020 C.3    40  DG40        0.0865
    813  C1'        9.7810   -1.8600  -12.5730 C.3    40  DG40        0.2094
    814  N9         8.4090   -1.4120  -12.3450 N.ar   40  DG40       -0.2713
    815  C8         7.3140   -2.2370  -12.2500 C.ar   40  DG40        0.1816
    816  N7         6.1870   -1.5870  -12.1540 N.ar   40  DG40       -0.2173
    817  C5         6.5540   -0.2540  -12.1880 C.ar   40  DG40        0.1748
    818  C6         5.7660    0.9230  -12.1200 C.ar   40  DG40        0.3023
    819  O6         4.5370    1.0170  -12.0130 O.2    40  DG40       -0.2633
    820  N1         6.5440    2.0750  -12.1890 N.ar   40  DG40       -0.1709
    821  C2         7.9130    2.0910  -12.3090 C.ar   40  DG40        0.2606
    822  N2         8.4880    3.3000  -12.3610 N.pl3  40  DG40       -0.0859
    823  N3         8.6590    1.0060  -12.3720 N.ar   40  DG40       -0.1918
    824  C4         7.9250   -0.1250  -12.3060 C.ar   40  DG40        0.1722
    825  P         11.5730   -1.8760   -8.5270 P.3    41  DA41        0.2141
    826  OP1       12.8990   -2.2510   -7.9890 O.2    41  DA41       -0.5172
    827  OP2       10.3040   -2.2620   -7.8780 O.3    41  DA41       -0.4373
    828  O5'       11.5490   -0.2820   -8.6420 O.3    41  DA41       -0.3114
    829  C5'       12.6690    0.4840   -9.0410 C.3    41  DA41        0.1811
    830  C4'       12.2760    1.9070   -9.4450 C.3    41  DA41        0.1746
    831  O4'       11.1270    1.8780  -10.3350 O.3    41  DA41       -0.3327
    832  C3'       11.8300    2.8770   -8.3520 C.3    41  DA41        0.1558
    833  O3'       12.9220    3.4770   -7.6470 O.3    41  DA41       -0.3138
    834  C2'       11.0970    3.9090   -9.1970 C.3    41  DA41        0.0865
    835  C1'       10.3250    3.0310  -10.1650 C.3    41  DA41        0.2094
    836  N9         8.9900    2.6860   -9.6670 N.ar   41  DA41       -0.2714
    837  C8         8.6230    1.4510   -9.1990 C.ar   41  DA41        0.1815
    838  N7         7.3370    1.3330   -8.9690 N.ar   41  DA41       -0.2193
    839  C5         6.8240    2.5750   -9.3070 C.ar   41  DA41        0.1518
    840  C6         5.5180    3.0970   -9.2880 C.ar   41  DA41        0.1919
    841  N6         4.4490    2.3990   -8.8970 N.pl3  41  DA41       -0.1054
    842  N1         5.3490    4.3750   -9.6880 N.ar   41  DA41       -0.2040
    843  C2         6.4210    5.0730  -10.0800 C.ar   41  DA41        0.2016
    844  N3         7.6950    4.6930  -10.1430 N.ar   41  DA41       -0.2048
    845  C4         7.8300    3.4190   -9.7380 C.ar   41  DA41        0.1691
    846  P         12.7710    3.9890   -6.0460 P.3    42  DT42        0.2141
    847  OP1       14.1060    4.3640   -5.4860 O.2    42  DT42       -0.5172
    848  OP2       12.0120    2.8530   -5.4630 O.3    42  DT42       -0.4373
    849  O5'       11.8340    5.2720   -6.0300 O.3    42  DT42       -0.3114
    850  C5'       12.1620    6.4290   -6.7900 C.3    42  DT42        0.1811
    851  C4'       10.9730    7.3470   -6.8610 C.3    42  DT42        0.1748
    852  O4'        9.8600    6.6310   -7.4530 O.3    42  DT42       -0.3326
    853  C3'       10.4140    7.8220   -5.5370 C.3    42  DT42        0.1592
    854  O3'       11.1250    8.9030   -4.9820 O.3    42  DT42       -0.3137
    855  C2'        8.9860    8.1870   -5.8960 C.3    42  DT42        0.1228
    856  C1'        8.6410    7.0870   -6.8870 C.3    42  DT42        0.2141
    857  N1         7.9530    5.9770   -6.2530 N.ar   42  DT42       -0.2573
    858  C2         6.5920    6.0520   -6.0300 C.ar   42  DT42        0.3310
    859  O2         5.9270    7.0360   -6.3020 O.3    42  DT42       -0.3353
    860  N3         6.0320    4.9280   -5.4710 N.ar   42  DT42       -0.1549
    861  C4         6.6830    3.7640   -5.1220 C.ar   42  DT42        0.2804
    862  O4         6.0430    2.8370   -4.6290 O.2    42  DT42       -0.2654
    863  C5         8.0940    3.7640   -5.3840 C.ar   42  DT42        0.0534
    864  C6         8.6640    4.8430   -5.9260 C.ar   42  DT42        0.0824
    865  C7         8.8910    2.5420   -5.0380 C.3    42  DT42        0.0377
    866  P         11.2860    8.9600   -3.6180 P.3    43  DA43        0.2141
    867  OP1       12.1960    9.4030   -2.5400 O.3    43  DA43       -0.4373
    868  OP2       10.8570    7.5460   -3.7000 O.2    43  DA43       -0.5172
    869  O5'        9.9190    9.7890   -3.5180 O.3    43  DA43       -0.3114
    870  C5'       10.0020   11.1590   -3.1580 C.3    43  DA43        0.1811
    871  C4'        8.8660   11.9800   -3.7210 C.3    43  DA43        0.1744
    872  O4'        8.6590   11.6740   -5.1240 O.3    43  DA43       -0.3349
    873  C3'        7.5030   11.7800   -3.0760 C.3    43  DA43        0.1555
    874  O3'        7.3490   12.5620   -1.9060 O.3    43  DA43       -0.3139
    875  C2'        6.5300   12.1930   -4.1720 C.3    43  DA43        0.0835
    876  C1'        7.2930   11.8220   -5.4430 C.3    43  DA43        0.1972
    877  N9         6.8700   10.6210   -5.9670 N.pl3  43  DA43       -0.2504
    878  C8         7.5510    9.4320   -5.9290 C.3    43  DA43        0.2055
    879  N7         6.8460    8.4060   -6.3430 N.4    43  DA43       -0.1690
    880  C5         5.6190    8.9580   -6.6740 C.ar   43  DA43        0.1612
    881  C6         4.4330    8.3950   -7.1770 C.ar   43  DA43        0.1927
    882  N6         4.2870    7.0950   -7.4450 N.pl3  43  DA43       -0.1054
    883  N1         3.3900    9.2240   -7.3980 N.ar   43  DA43       -0.2040
    884  C2         3.5370   10.5260   -7.1300 C.ar   43  DA43        0.2014
    885  N3         4.6000   11.1720   -6.6560 N.ar   43  DA43       -0.2072
    886  C4         5.6180   10.3210   -6.4470 C.ar   43  DA43        0.1581
    887  P          7.5840   11.9930   -0.1090 P.3    44  DC44        0.2141
    888  OP1        7.8320   12.9390    1.0180 O.3    44  DC44       -0.4373
    889  OP2        8.0630   10.5870   -0.0420 O.2    44  DC44       -0.5172
    890  O5'        6.0050   11.8450   -0.4350 O.3    44  DC44       -0.3114
    891  C5'        5.2070   13.0180   -0.4710 C.3    44  DC44        0.1811
    892  C4'        4.1490   12.9720   -1.5480 C.3    44  DC44        0.1746
    893  O4'        4.6560   12.4580   -2.8140 O.3    44  DC44       -0.3327
    894  C3'        3.0010   12.0370   -1.2760 C.3    44  DC44        0.1558
    895  O3'        2.1490   12.5560   -0.3130 O.3    44  DC44       -0.3138
    896  C2'        2.3300   12.0550   -2.6380 C.3    44  DC44        0.0866
    897  C1'        3.5590   11.9100   -3.5290 C.3    44  DC44        0.2106
    898  N1         3.8280   10.4500   -3.8000 N.ar   44  DC44       -0.2556
    899  C2         3.0920    9.8570   -4.8320 C.ar   44  DC44        0.3531
    900  O2         2.2230   10.5320   -5.4110 O.2    44  DC44       -0.2443
    901  N3         3.3460    8.5700   -5.1690 N.ar   44  DC44       -0.1739
    902  C4         4.2870    7.8840   -4.5200 C.ar   44  DC44        0.1759
    903  N4         4.5030    6.6190   -4.8870 N.pl3  44  DC44       -0.1070
    904  C5         5.0440    8.4660   -3.4710 C.ar   44  DC44        0.0566
    905  C6         4.7900    9.7370   -3.1410 C.ar   44  DC44        0.0849
    906  P          1.6180   11.6940    0.3760 P.3    45  DC45        0.2141
    907  OP1        0.7240   12.3180    1.3450 O.3    45  DC45       -0.4373
    908  OP2        2.2610   10.3970    0.7290 O.2    45  DC45       -0.5172
    909  O5'        0.9120   11.5780   -1.0350 O.3    45  DC45       -0.3114
    910  C5'        0.0900   12.6340   -1.5240 C.3    45  DC45        0.1811
    911  C4'       -1.0830   12.0910   -2.3060 C.3    45  DC45        0.1746
    912  O4'       -0.6180   11.4610   -3.5300 O.3    45  DC45       -0.3327
    913  C3'       -1.8690   10.9840   -1.6340 C.3    45  DC45        0.1558
    914  O3'       -2.7550   11.5410   -0.6970 O.3    45  DC45       -0.3138
    915  C2'       -2.5710   10.3770   -2.8420 C.3    45  DC45        0.0866
    916  C1'       -1.4190   10.3340   -3.8180 C.3    45  DC45        0.2106
    917  N1        -0.4950    9.0730   -3.6920 N.ar   45  DC45       -0.2556
    918  C2        -0.8630    7.9750   -4.4780 C.ar   45  DC45        0.3531
    919  O2        -1.8160    8.0980   -5.2670 O.2    45  DC45       -0.2443
    920  N3        -0.1740    6.8160   -4.3550 N.ar   45  DC45       -0.1739
    921  C4         0.8410    6.7310   -3.4940 C.ar   45  DC45        0.1759
    922  N4         1.4910    5.5680   -3.4080 N.pl3  45  DC45       -0.1070
    923  C5         1.2300    7.8320   -2.6890 C.ar   45  DC45        0.0566
    924  C6         0.5460    8.9750   -2.8130 C.ar   45  DC45        0.0849
    925  P         -3.0370   10.8410    0.3760 P.3    46  DC46        0.2141
    926  OP1       -2.9480   11.7900    1.5260 O.3    46  DC46       -0.4373
    927  OP2       -2.8650    9.3880    0.6200 O.2    46  DC46       -0.5172
    928  O5'       -4.3350   11.0780   -0.5340 O.3    46  DC46       -0.3114
    929  C5'       -5.4040   10.1420   -0.5150 C.3    46  DC46        0.1811
    930  C4'       -5.6910    9.5910   -1.9040 C.3    46  DC46        0.1746
    931  O4'       -4.4710    9.0880   -2.5240 O.3    46  DC46       -0.3327
    932  C3'       -6.5730    8.3520   -1.8310 C.3    46  DC46        0.1558
    933  O3'       -7.9510    8.6020   -1.6010 O.3    46  DC46       -0.3138
    934  C2'       -6.2340    7.5590   -3.0930 C.3    46  DC46        0.0866
    935  C1'       -4.7580    7.8990   -3.2670 C.3    46  DC46        0.2106
    936  N1        -3.8880    6.8060   -2.7500 N.ar   46  DC46       -0.2556
    937  C2        -3.8550    5.6210   -3.4950 C.ar   46  DC46        0.3531
    938  O2        -4.6890    5.4610   -4.4010 O.2    46  DC46       -0.2443
    939  N3        -2.9170    4.6870   -3.2060 N.ar   46  DC46       -0.1739
    940  C4        -2.0420    4.9010   -2.2230 C.ar   46  DC46        0.1759
    941  N4        -1.1370    3.9520   -1.9750 N.pl3  46  DC46       -0.1070
    942  C5        -2.0590    6.0950   -1.4570 C.ar   46  DC46        0.0566
    943  C6        -2.9860    7.0150   -1.7450 C.ar   46  DC46        0.0849
    944  P         -8.6830    7.5910   -1.0350 P.3    47  DC47        0.2141
    945  OP1      -10.0250    8.2190   -0.9380 O.2    47  DC47       -0.5172
    946  OP2       -7.9240    7.2910    0.2020 O.3    47  DC47       -0.4373
    947  O5'       -8.7650    6.2630   -1.9080 O.3    47  DC47       -0.3114
    948  C5'       -9.4240    6.2500   -3.1880 C.3    47  DC47        0.1811
    949  C4'       -9.3150    4.8750   -3.8150 C.3    47  DC47        0.1746
    950  O4'       -7.9490    4.6260   -4.2440 O.3    47  DC47       -0.3327
    951  C3'       -9.6070    3.7250   -2.8700 C.3    47  DC47        0.1558
    952  O3'      -10.9940    3.5050   -2.6860 O.3    47  DC47       -0.3138
    953  C2'       -8.8990    2.5700   -3.5490 C.3    47  DC47        0.0866
    954  C1'       -7.6260    3.2630   -4.0360 C.3    47  DC47        0.2106
    955  N1        -6.5270    3.2110   -3.0100 N.ar   47  DC47       -0.2556
    956  C2        -5.7740    2.0340   -2.9300 C.ar   47  DC47        0.3531
    957  O2        -6.0500    1.0950   -3.6960 O.2    47  DC47       -0.2443
    958  N3        -4.7690    1.9530   -2.0250 N.ar   47  DC47       -0.1739
    959  C4        -4.5090    2.9870   -1.2230 C.ar   47  DC47        0.1759
    960  N4        -3.5100    2.8610   -0.3470 N.pl3  47  DC47       -0.1070
    961  C5        -5.2610    4.1880   -1.2880 C.ar   47  DC47        0.0566
    962  C6        -6.2510    4.2640   -2.1830 C.ar   47  DC47        0.0849
    963  P        -11.5400    3.1950   -1.2310 P.3    48  DT48        0.2141
    964  OP1      -12.9920    3.4230   -1.3990 O.2    48  DT48       -0.5172
    965  OP2      -10.8320    3.8650   -0.1170 O.3    48  DT48       -0.4373
    966  O5'      -11.3020    1.6290   -1.0190 O.3    48  DT48       -0.3114
    967  C5'      -11.5340    0.7340   -2.0930 C.3    48  DT48        0.1811
    968  C4'      -10.6540   -0.4860   -1.9950 C.3    48  DT48        0.1746
    969  O4'       -9.2610   -0.0880   -2.1130 O.3    48  DT48       -0.3327
    970  C3'      -10.6830   -1.2580   -0.6800 C.3    48  DT48        0.1558
    971  O3'      -11.8190   -2.0860   -0.4790 O.3    48  DT48       -0.3138
    972  C2'       -9.3830   -2.0400   -0.7610 C.3    48  DT48        0.0866
    973  C1'       -8.4590   -0.9780   -1.3590 C.3    48  DT48        0.2106
    974  N1        -7.7130   -0.2700   -0.2870 N.ar   48  DT48       -0.2559
    975  C2        -6.5890   -0.8630    0.2560 C.ar   48  DT48        0.3545
    976  O2        -6.2230   -1.9870   -0.0380 O.2    48  DT48       -0.2443
    977  N3        -5.9040   -0.0890    1.1610 N.ar   48  DT48       -0.1533
    978  C4        -6.2240    1.1890    1.5700 C.ar   48  DT48        0.2804
    979  O4        -5.5090    1.7580    2.3920 O.2    48  DT48       -0.2654
    980  C5        -7.4050    1.7350    0.9620 C.ar   48  DT48        0.0534
    981  C6        -8.0900    1.0040    0.0790 C.ar   48  DT48        0.0824
    982  C7        -7.8370    3.1200    1.3420 C.3    48  DT48        0.0377
    983  P        -12.3050   -2.4400    1.0930 P.3    49  DT49        0.2141
    984  OP1      -13.6550   -3.0430    1.0110 O.2    49  DT49       -0.5172
    985  OP2      -12.1050   -1.2010    1.8940 O.3    49  DT49       -0.4373
    986  O5'      -11.2610   -3.5330    1.6140 O.3    49  DT49       -0.3114
    987  C5'      -11.1640   -4.8240    0.9970 C.3    49  DT49        0.1812
    988  C4'      -10.0260   -5.6340    1.5990 C.3    49  DT49        0.1775
    989  O4'       -8.7500   -5.0310    1.2390 O.3    49  DT49       -0.3326
    990  C3'       -9.9680   -5.7400    3.1200 C.3    49  DT49        0.1859
    991  O3'      -10.8260   -6.7280    3.6800 O.3    49  DT49       -0.2202
    992  C2'       -8.4970   -6.0490    3.3750 C.3    49  DT49        0.0895
    993  C1'       -7.8160   -5.2040    2.2990 C.3    49  DT49        0.2107
    994  N1        -7.4570   -3.8670    2.8610 N.ar   49  DT49       -0.2559
    995  C2        -6.2580   -3.8000    3.5440 C.ar   49  DT49        0.3545
    996  O2        -5.5270   -4.7620    3.7010 O.2    49  DT49       -0.2443
    997  N3        -5.9420   -2.5590    4.0420 N.ar   49  DT49       -0.1533
    998  C4        -6.6890   -1.4050    3.9280 C.ar   49  DT49        0.2804
    999  O4        -6.2730   -0.3630    4.4290 O.2    49  DT49       -0.2654
   1000  C5        -7.9200   -1.5560    3.2060 C.ar   49  DT49        0.0534
   1001  C6        -8.2520   -2.7520    2.7110 C.ar   49  DT49        0.0824
   1002  C7        -8.8030   -0.3570    3.0280 C.3    49  DT49        0.0377
   1003  P        -11.5200   -6.4780    5.2490 P.3    50  DT50        0.4149
   1004  OP1      -12.0890   -7.6460    5.9530 O.2    50  DT50       -0.2668
   1005  OP2      -11.3600   -5.1860    5.9510 O.3    50  DT50       -0.1481
   1006  O5'      -10.0430   -6.8550    4.7640 O.3    50  DT50       -0.2177
   1007  C5'       -9.7700   -8.1560    4.2650 C.3    50  DT50        0.2141
   1008  C4'       -8.4260   -8.6380    4.7390 C.3    50  DT50        0.1804
   1009  O4'       -7.4180   -7.6720    4.3460 O.3    50  DT50       -0.3325
   1010  C3'       -8.2720   -8.7540    6.2450 C.3    50  DT50        0.1865
   1011  O3'       -8.7410   -9.9900    6.7510 O.3    50  DT50       -0.2133
   1012  C2'       -6.7770   -8.5590    6.4420 C.3    50  DT50        0.0895
   1013  C1'       -6.4660   -7.5110    5.3750 C.3    50  DT50        0.2107
   1014  N1        -6.6980   -6.0060    5.9680 N.ar   50  DT50       -0.2559
   1015  C2        -5.7490   -5.5650    6.8700 C.ar   50  DT50        0.3545
   1016  O2        -4.8110   -6.2510    7.2350 O.2    50  DT50       -0.2443
   1017  N3        -5.9380   -4.2850    7.3330 N.ar   50  DT50       -0.1533
   1018  C4        -6.9580   -3.4210    6.9920 C.ar   50  DT50        0.2804
   1019  O4        -6.9930   -2.3000    7.4920 O.2    50  DT50       -0.2654
   1020  C5        -7.9030   -3.9530    6.0520 C.ar   50  DT50        0.0534
   1021  C6        -7.7440   -5.1940    5.5850 C.ar   50  DT50        0.0824
   1022  C7        -9.0510   -3.0900    5.6190 C.3    50  DT50        0.0377
   1023  P         -9.6680  -10.0340    8.0860 P.3    51  DG51        0.3939
   1024  OP1       -9.8630  -11.0030    6.9870 O.3    51  DG51       -0.1496
   1025  OP2      -10.3120  -10.2640    9.3930 O.3    51  DG51       -0.1425
   1026  O5'       -8.1110   -9.8380    8.3720 O.3    51  DG51       -0.2926
   1027  C5'       -7.3490  -10.9580    8.7900 C.3    51  DG51        0.1828
   1028  C4'       -6.6120  -10.6630   10.0760 C.3    51  DG51        0.1747
   1029  O4'       -5.6260   -9.6440    9.7980 O.3    51  DG51       -0.3327
   1030  C3'       -7.4470  -10.0710   11.2020 C.3    51  DG51        0.1558
   1031  O3'       -8.0870  -11.0980   11.9490 O.3    51  DG51       -0.3138
   1032  C2'       -6.3660   -9.3660   12.0100 C.3    51  DG51        0.0865
   1033  C1'       -5.5030   -8.7670   10.9040 C.3    51  DG51        0.2094
   1034  N9        -5.9370   -7.3610   10.3270 N.ar   51  DG51       -0.2713
   1035  C8        -6.9640   -7.0310    9.4760 C.ar   51  DG51        0.1816
   1036  N7        -7.1870   -5.7470    9.4090 N.ar   51  DG51       -0.2173
   1037  C5        -6.2520   -5.1920   10.2640 C.ar   51  DG51        0.1748
   1038  C6        -6.0050   -3.8380   10.6080 C.ar   51  DG51        0.3023
   1039  O6        -6.5910   -2.8260   10.2050 O.2    51  DG51       -0.2633
   1040  N1        -4.9580   -3.7160   11.5180 N.ar   51  DG51       -0.1709
   1041  C2        -4.2380   -4.7670   12.0320 C.ar   51  DG51        0.2606
   1042  N2        -3.2650   -4.4510   12.8960 N.pl3  51  DG51       -0.0859
   1043  N3        -4.4560   -6.0300   11.7220 N.ar   51  DG51       -0.1918
   1044  C4        -5.4690   -6.1740   10.8410 C.ar   51  DG51        0.1722
   1045  P         -9.5850  -10.8710   12.7400 P.3    52  DG52        0.2141
   1046  OP1      -10.2130  -12.2140   12.7370 O.3    52  DG52       -0.4373
   1047  OP2      -10.4090   -9.6840   12.4080 O.2    52  DG52       -0.5172
   1048  O5'       -8.9120  -10.6540   14.1660 O.3    52  DG52       -0.3114
   1049  C5'       -7.9370  -11.5900   14.6420 C.3    52  DG52        0.1811
   1050  C4'       -7.2300  -11.0620   15.8650 C.3    52  DG52        0.1746
   1051  O4'       -6.6640   -9.7590   15.5920 O.3    52  DG52       -0.3327
   1052  C3'       -8.0650  -10.8320   17.1050 C.3    52  DG52        0.1558
   1053  O3'       -8.2630  -12.0480   17.7980 O.3    52  DG52       -0.3138
   1054  C2'       -7.2040   -9.8610   17.9060 C.3    52  DG52        0.0865
   1055  C1'       -6.5490   -9.0350   16.8020 C.3    52  DG52        0.2094
   1056  N9        -7.0080   -7.7020   16.6180 N.ar   52  DG52       -0.2713
   1057  C8        -7.7760   -7.1140   15.6420 C.ar   52  DG52        0.1816
   1058  N7        -8.2040   -5.9260   15.9690 N.ar   52  DG52       -0.2173
   1059  C5        -7.6900   -5.7120   17.2350 C.ar   52  DG52        0.1748
   1060  C6        -7.8160   -4.6000   18.1070 C.ar   52  DG52        0.3023
   1061  O6        -8.4330   -3.5440   17.9170 O.2    52  DG52       -0.2633
   1062  N1        -7.1320   -4.7970   19.3030 N.ar   52  DG52       -0.1709
   1063  C2        -6.4160   -5.9260   19.6210 C.ar   52  DG52        0.2606
   1064  N2        -5.8240   -5.9310   20.8230 N.pl3  52  DG52       -0.0859
   1065  N3        -6.2910   -6.9670   18.8220 N.ar   52  DG52       -0.1918
   1066  C4        -6.9470   -6.7990   17.6540 C.ar   52  DG52        0.1722
   1067  P         -9.7040  -12.3040   18.7760 P.3    53  DG53        0.2141
   1068  OP1       -9.7650  -13.6640   19.3560 O.3    53  DG53       -0.4373
   1069  OP2      -10.9060  -11.7380   18.1160 O.2    53  DG53       -0.5172
   1070  O5'       -9.2440  -11.3010   19.9220 O.3    53  DG53       -0.3114
   1071  C5'       -8.1910  -11.6550   20.8050 C.3    53  DG53        0.1811
   1072  C4'       -8.0410  -10.6110   21.8800 C.3    53  DG53        0.1746
   1073  O4'       -7.5420   -9.3760   21.2960 O.3    53  DG53       -0.3327
   1074  C3'       -9.3230  -10.1810   22.5700 C.3    53  DG53        0.1558
   1075  O3'       -9.7510  -11.1040   23.5630 O.3    53  DG53       -0.3138
   1076  C2'       -8.9110   -8.8380   23.1590 C.3    53  DG53        0.0865
   1077  C1'       -8.0650   -8.2680   22.0160 C.3    53  DG53        0.2094
   1078  N9        -8.8880   -7.4680   21.0820 N.ar   53  DG53       -0.2713
   1079  C8        -9.3510   -7.8290   19.8400 C.ar   53  DG53        0.1816
   1080  N7       -10.0400   -6.8890   19.2530 N.ar   53  DG53       -0.2173
   1081  C5       -10.0320   -5.8430   20.1570 C.ar   53  DG53        0.1748
   1082  C6       -10.6180   -4.5530   20.0820 C.ar   53  DG53        0.3023
   1083  O6       -11.2830   -4.0670   19.1590 O.2    53  DG53       -0.2633
   1084  N1       -10.3680   -3.8000   21.2260 N.ar   53  DG53       -0.1709
   1085  C2        -9.6440   -4.2360   22.3090 C.ar   53  DG53        0.2606
   1086  N2        -9.5100   -3.3660   23.3190 N.pl3  53  DG53       -0.0859
   1087  N3        -9.0950   -5.4320   22.3950 N.ar   53  DG53       -0.1918
   1088  C4        -9.3250   -6.1810   21.2950 C.ar   53  DG53        0.1722
   1089  P        -11.3460  -11.3910   23.7920 P.3    54  DG54        0.2141
   1090  OP1      -10.9450  -12.2260   24.9490 O.3    54  DG54       -0.4373
   1091  OP2      -12.6060  -11.6420   23.0550 O.2    54  DG54       -0.5172
   1092  O5'      -11.4450   -9.8650   24.2510 O.3    54  DG54       -0.3114
   1093  C5'      -10.5170   -9.3840   25.2110 C.3    54  DG54        0.1811
   1094  C4'      -11.1600   -8.3560   26.1020 C.3    54  DG54        0.1746
   1095  O4'      -11.0010   -7.0600   25.4650 O.3    54  DG54       -0.3327
   1096  C3'      -12.6540   -8.5700   26.3180 C.3    54  DG54        0.1558
   1097  O3'      -13.0200   -8.7980   27.6720 O.3    54  DG54       -0.3138
   1098  C2'      -13.3330   -7.2920   25.8450 C.3    54  DG54        0.0865
   1099  C1'      -12.2260   -6.3630   25.3760 C.3    54  DG54        0.2094
   1100  N9       -12.5060   -5.9300   24.1330 N.ar   54  DG54       -0.2713
   1101  C8       -12.6850   -6.7670   23.0590 C.ar   54  DG54        0.1816
   1102  N7       -13.3280   -6.2080   22.0710 N.ar   54  DG54       -0.2173
   1103  C5       -13.5890   -4.9240   22.5140 C.ar   54  DG54        0.1748
   1104  C6       -14.2610   -3.8470   21.8800 C.ar   54  DG54        0.3023
   1105  O6       -14.7760   -3.8210   20.7550 O.2    54  DG54       -0.2633
   1106  N1       -14.3060   -2.7150   22.6880 N.ar   54  DG54       -0.1709
   1107  C2       -13.7690   -2.6290   23.9500 C.ar   54  DG54        0.2606
   1108  N2       -13.9110   -1.4520   24.5750 N.pl3  54  DG54       -0.0859
   1109  N3       -13.1430   -3.6210   24.5520 N.ar   54  DG54       -0.1918
   1110  C4       -13.0880   -4.7320   23.7870 C.ar   54  DG54        0.1722
   1111  P        -14.3230   -9.5660   27.7560 P.3    55  DA55        0.2141
   1112  OP1      -14.6040  -10.4940   28.8730 O.3    55  DA55       -0.4373
   1113  OP2      -14.3650  -10.0330   26.3510 O.2    55  DA55       -0.5172
   1114  O5'      -15.3570   -8.3470   27.8060 O.3    55  DA55       -0.3114
   1115  C5'      -15.5880   -7.6250   29.0060 C.3    55  DA55        0.1811
   1116  C4'      -16.7680   -6.7040   28.8350 C.3    55  DA55        0.1746
   1117  O4'      -16.3840   -5.5550   28.0370 O.3    55  DA55       -0.3327
   1118  C3'      -17.9560   -7.3080   28.1020 C.3    55  DA55        0.1558
   1119  O3'      -18.7890   -8.0490   28.9760 O.3    55  DA55       -0.3138
   1120  C2'      -18.6330   -6.0900   27.4820 C.3    55  DA55        0.0865
   1121  C1'      -17.4420   -5.1760   27.1880 C.3    55  DA55        0.2094
   1122  N9       -16.9230   -5.2880   25.7500 N.ar   55  DA55       -0.2714
   1123  C8       -16.2810   -6.3480   25.1660 C.ar   55  DA55        0.1815
   1124  N7       -16.3150   -6.3300   23.8540 N.ar   55  DA55       -0.2193
   1125  C5       -17.0300   -5.1800   23.5570 C.ar   55  DA55        0.1518
   1126  C6       -17.4130   -4.5930   22.3390 C.ar   55  DA55        0.1919
   1127  N6       -17.1150   -5.1090   21.1440 N.pl3  55  DA55       -0.1054
   1128  N1       -18.1210   -3.4450   22.3920 N.ar   55  DA55       -0.2040
   1129  C2       -18.4190   -2.9290   23.5900 C.ar   55  DA55        0.2016
   1130  N3       -18.1140   -3.3870   24.8020 N.ar   55  DA55       -0.2048
   1131  C4       -17.4120   -4.5290   24.7150 C.ar   55  DA55        0.1691
   1132  P        -19.7760   -9.2990   28.4570 P.3    56  DG56        0.2141
   1133  OP1      -20.4530   -9.7510   29.6900 O.3    56  DG56       -0.4373
   1134  OP2      -18.9130  -10.2370   27.7030 O.2    56  DG56       -0.5172
   1135  O5'      -20.8990   -8.8630   27.4070 O.3    56  DG56       -0.3114
   1136  C5'      -21.8880   -7.9320   27.8200 C.3    56  DG56        0.1811
   1137  C4'      -22.3160   -7.0200   26.6960 C.3    56  DG56        0.1746
   1138  O4'      -21.1590   -6.3830   26.0930 O.3    56  DG56       -0.3327
   1139  C3'      -22.9810   -7.6840   25.5030 C.3    56  DG56        0.1558
   1140  O3'      -24.3150   -8.0960   25.7410 O.3    56  DG56       -0.3138
   1141  C2'      -22.8270   -6.6070   24.4330 C.3    56  DG56        0.0865
   1142  C1'      -21.4000   -6.1580   24.7200 C.3    56  DG56        0.2094
   1143  N9       -20.4930   -6.9940   23.9050 N.ar   56  DG56       -0.2713
   1144  C8       -19.5860   -7.8890   24.4170 C.ar   56  DG56        0.1816
   1145  N7       -18.7610   -8.3570   23.5210 N.ar   56  DG56       -0.2173
   1146  C5       -19.1410   -7.7350   22.3460 C.ar   56  DG56        0.1748
   1147  C6       -18.6180   -7.8430   21.0320 C.ar   56  DG56        0.3023
   1148  O6       -17.6740   -8.5410   20.6390 O.2    56  DG56       -0.2633
   1149  N1       -19.3030   -7.0340   20.1300 N.ar   56  DG56       -0.1709
   1150  C2       -20.3620   -6.2210   20.4540 C.ar   56  DG56        0.2606
   1151  N2       -20.8940   -5.5140   19.4480 N.pl3  56  DG56       -0.0859
   1152  N3       -20.8600   -6.1100   21.6700 N.ar   56  DG56       -0.1918
   1153  C4       -20.2110   -6.8870   22.5630 C.ar   56  DG56        0.1722
   1154  P        -24.3340   -9.3970   25.6130 P.3    57  DA57        0.2141
   1155  OP1      -25.4300   -9.7440   26.5630 O.3    57  DA57       -0.4373
   1156  OP2      -23.4220  -10.4360   25.1260 O.2    57  DA57       -0.5172
   1157  O5'      -24.9230   -8.5940   24.3670 O.3    57  DA57       -0.3114
   1158  C5'      -25.3540   -9.2910   23.1990 C.3    57  DA57        0.1811
   1159  C4'      -26.5530   -8.6130   22.5380 C.3    57  DA57        0.1746
   1160  O4'      -27.4770   -8.1020   23.5280 O.3    57  DA57       -0.3327
   1161  C3'      -26.3500   -7.4620   21.5620 C.3    57  DA57        0.1558
   1162  O3'      -25.9910   -8.0030   20.2790 O.3    57  DA57       -0.3138
   1163  C2'      -27.7430   -6.8220   21.5310 C.3    57  DA57        0.0865
   1164  C1'      -28.2980   -7.1090   22.9400 C.3    57  DA57        0.2094
   1165  N9       -27.5440   -5.6460   23.8150 N.ar   57  DA57       -0.2714
   1166  C8       -26.6260   -5.6420   24.8330 C.ar   57  DA57        0.1815
   1167  N7       -26.5210   -4.4870   25.4460 N.ar   57  DA57       -0.2193
   1168  C5       -27.4320   -3.6770   24.7860 C.ar   57  DA57        0.1518
   1169  C6       -27.8010   -2.3310   24.9600 C.ar   57  DA57        0.1919
   1170  N6       -27.2720   -1.5340   25.8910 N.pl3  57  DA57       -0.1054
   1171  N1       -28.7420   -1.8280   24.1330 N.ar   57  DA57       -0.2040
   1172  C2       -29.2720   -2.6280   23.2000 C.ar   57  DA57        0.2016
   1173  N3       -29.0080   -3.9070   22.9410 N.ar   57  DA57       -0.2048
   1174  C4       -28.0690   -4.3770   23.7790 C.ar   57  DA57        0.1691
   1175  P        -25.3260   -7.2870   19.4220 P.3    58  DC58        0.2141
   1176  OP1      -25.4320   -8.1060   18.1930 O.2    58  DC58       -0.5172
   1177  OP2      -24.1330   -6.4440   19.6570 O.3    58  DC58       -0.4373
   1178  O5'      -26.5510   -6.2550   19.4520 O.3    58  DC58       -0.3114
   1179  C5'      -27.1290   -5.8230   18.2260 C.3    58  DC58        0.1811
   1180  C4'      -27.4750   -4.3520   18.2250 C.3    58  DC58        0.1746
   1181  O4'      -27.9130   -3.9430   19.5470 O.3    58  DC58       -0.3327
   1182  C3'      -26.3500   -3.3840   17.8810 C.3    58  DC58        0.1558
   1183  O3'      -26.1480   -3.2450   16.4820 O.3    58  DC58       -0.3138
   1184  C2'      -26.7960   -2.0880   18.5490 C.3    58  DC58        0.0866
   1185  C1'      -27.5560   -2.5950   19.7750 C.3    58  DC58        0.2106
   1186  N1       -26.7750   -2.5450   21.0020 N.ar   58  DC58       -0.2556
   1187  C2       -26.5290   -1.3020   21.5980 C.ar   58  DC58        0.3531
   1188  O2       -26.9960   -0.2810   21.0650 O.2    58  DC58       -0.2443
   1189  N3       -25.7930   -1.2490   22.7330 N.ar   58  DC58       -0.1739
   1190  C4       -25.3110   -2.3710   23.2700 C.ar   58  DC58        0.1759
   1191  N4       -24.5910   -2.2700   24.3890 N.pl3  58  DC58       -0.1070
   1192  C5       -25.5490   -3.6400   22.6810 C.ar   58  DC58        0.0566
   1193  C6       -26.2760   -3.6880   21.5600 C.ar   58  DC58        0.0849
   1194  P        -24.7050   -2.9370   15.8370 P.3    59  DA59        0.2141
   1195  OP1      -24.8730   -3.1020   14.3780 O.2    59  DA59       -0.5172
   1196  OP2      -23.9450   -3.9650   16.6010 O.3    59  DA59       -0.4373
   1197  O5'      -24.0890   -1.4890   16.1010 O.3    59  DA59       -0.3114
   1198  C5'      -24.8440   -0.3210   15.7820 C.3    59  DA59        0.1811
   1199  C4'      -24.8940    0.6350   16.9580 C.3    59  DA59        0.1746
   1200  O4'      -25.2790   -0.0710   18.1660 O.3    59  DA59       -0.3327
   1201  C3'      -23.5940    1.3310   17.3200 C.3    59  DA59        0.1558
   1202  O3'      -23.3880    2.4750   16.4950 O.3    59  DA59       -0.3138
   1203  C2'      -23.8060    1.6870   18.7930 C.3    59  DA59        0.0865
   1204  C1'      -24.6180    0.4900   19.2920 C.3    59  DA59        0.2094
   1205  N9       -23.8430   -0.4580   19.9450 N.ar   59  DA59       -0.2714
   1206  C8       -23.6990   -1.7840   19.6310 C.ar   59  DA59        0.1815
   1207  N7       -22.8610   -2.4260   20.4110 N.ar   59  DA59       -0.2193
   1208  C5       -22.4240   -1.4540   21.2970 C.ar   59  DA59        0.1518
   1209  C6       -21.5220   -1.4950   22.3760 C.ar   59  DA59        0.1919
   1210  N6       -20.8750   -2.5980   22.7570 N.pl3  59  DA59       -0.1054
   1211  N1       -21.3070   -0.3480   23.0560 N.ar   59  DA59       -0.2040
   1212  C2       -21.9570    0.7570   22.6730 C.ar   59  DA59        0.2016
   1213  N3       -22.8270    0.9190   21.6790 N.ar   59  DA59       -0.2048
   1214  C4       -23.0190   -0.2380   21.0220 C.ar   59  DA59        0.1691
   1215  P        -21.6020    2.9590   15.9530 P.3    60  DT60        0.2141
   1216  OP1      -21.4850    4.0540   14.9630 O.2    60  DT60       -0.5172
   1217  OP2      -21.3720    1.5590   15.5120 O.3    60  DT60       -0.4373
   1218  O5'      -20.6400    3.2920   17.1890 O.3    60  DT60       -0.3114
   1219  C5'      -20.7830    4.5210   17.9180 C.3    60  DT60        0.1811
   1220  C4'      -20.1450    4.4350   19.2980 C.3    60  DT60        0.1746
   1221  O4'      -20.6890    3.2850   19.9920 O.3    60  DT60       -0.3327
   1222  C3'      -18.6420    4.1890   19.3690 C.3    60  DT60        0.1558
   1223  O3'      -17.9060    5.3920   19.2390 O.3    60  DT60       -0.3138
   1224  C2'      -18.5290    3.7020   20.8000 C.3    60  DT60        0.0866
   1225  C1'      -19.7210    2.7650   20.8900 C.3    60  DT60        0.2106
   1226  N1       -19.4000    1.3490   20.5240 N.ar   60  DT60       -0.2559
   1227  C2       -18.9500    0.4680   21.4890 C.ar   60  DT60        0.3545
   1228  O2       -18.6130    0.8210   22.6050 O.2    60  DT60       -0.2443
   1229  N3       -18.9060   -0.8480   21.0990 N.ar   60  DT60       -0.1533
   1230  C4       -19.2600   -1.3610   19.8680 C.ar   60  DT60        0.2804
   1231  O4       -19.1670   -2.5700   19.6670 O.2    60  DT60       -0.2654
   1232  C5       -19.7160   -0.3840   18.9200 C.ar   60  DT60        0.0534
   1233  C6       -19.7690    0.9030   19.2730 C.ar   60  DT60        0.0824
   1234  C7       -20.1230   -0.8430   17.5510 C.3    60  DT60        0.0377
   1235  P        -16.5560    5.3730   18.7500 P.3    61  DC61        0.2141
   1236  OP1      -16.9000    6.7850   18.4810 O.3    61  DC61       -0.4373
   1237  OP2      -15.8940    4.5490   17.7140 O.2    61  DC61       -0.5172
   1238  O5'      -15.6520    5.3210   20.0710 O.3    61  DC61       -0.3114
   1239  C5'      -16.0150    6.0690   21.2270 C.3    61  DC61        0.1812
   1240  C4'      -16.0140    5.2200   22.4880 C.3    61  DC61        0.1775
   1241  O4'      -16.9020    4.0750   22.3360 O.3    61  DC61       -0.3326
   1242  C3'      -14.6970    4.5750   22.9120 C.3    61  DC61        0.1859
   1243  O3'      -13.7820    5.5220   23.4890 O.3    61  DC61       -0.2202
   1244  C2'      -15.2920    3.6400   23.9590 C.3    61  DC61        0.0895
   1245  C1'      -16.4140    3.0130   23.1390 C.3    61  DC61        0.2107
   1246  N1       -15.9500    1.8300   22.3340 N.ar   61  DC61       -0.2556
   1247  C2       -15.4300    0.5980   22.7480 C.ar   61  DC61        0.3531
   1248  O2       -14.9480    0.5060   23.8900 O.2    61  DC61       -0.2443
   1249  N3       -15.4670   -0.4530   21.8950 N.ar   61  DC61       -0.1739
   1250  C4       -15.9940   -0.3070   20.6790 C.ar   61  DC61        0.1759
   1251  N4       -16.0090   -1.3720   19.8730 N.pl3  61  DC61       -0.1070
   1252  C5       -16.5260    0.9330   20.2400 C.ar   61  DC61        0.0566
   1253  C6       -16.4870    1.9680   21.0860 C.ar   61  DC61        0.0849
   1254  P        -12.6890    6.0670   22.7040 P.3    62  DC62        0.4149
   1255  OP1      -12.7700    7.1390   23.7250 O.2    62  DC62       -0.2668
   1256  OP2      -11.5320    6.0230   21.7880 O.3    62  DC62       -0.1481
   1257  O5'      -12.7860    4.6590   23.4350 O.3    62  DC62       -0.2177
   1258  C5'      -12.6730    4.5590   24.8540 C.3    62  DC62        0.2140
   1259  C4'      -11.5950    3.5720   25.2180 C.3    62  DC62        0.1776
   1260  O4'      -12.0370    2.2190   24.8980 O.3    62  DC62       -0.3326
   1261  C3'      -10.2560    3.7630   24.5050 C.3    62  DC62        0.1559
   1262  O3'       -9.2160    3.4450   25.4230 O.3    62  DC62       -0.3138
   1263  C2'      -10.3340    2.7190   23.3920 C.3    62  DC62        0.0866
   1264  C1'      -11.0560    1.5840   24.1080 C.3    62  DC62        0.2106
   1265  N1       -11.7130    0.7700   23.2080 N.ar   62  DC62       -0.2556
   1266  C2       -11.3180   -0.5580   23.0110 C.ar   62  DC62        0.3531
   1267  O2       -10.9730   -1.2320   23.9960 O.2    62  DC62       -0.2443
   1268  N3       -11.3210   -1.0680   21.7560 N.ar   62  DC62       -0.1739
   1269  C4       -11.6980   -0.3070   20.7280 C.ar   62  DC62        0.1759
   1270  N4       -11.6850   -0.8520   19.5090 N.pl3  62  DC62       -0.1070
   1271  C5       -12.1020    1.0410   20.9070 C.ar   62  DC62        0.0566
   1272  C6       -12.0970    1.5400   22.1480 C.ar   62  DC62        0.0849
   1273  P         -7.6300    3.9690   25.1180 P.3    63  DT63        0.2141
   1274  OP1       -6.7710    4.7700   26.0190 O.3    63  DT63       -0.4373
   1275  OP2       -7.9810    4.4540   23.7630 O.2    63  DT63       -0.5172
   1276  O5'       -6.9590    2.5450   24.8710 O.3    63  DT63       -0.3114
   1277  C5'       -6.7600    1.7210   26.0080 C.3    63  DT63        0.1811
   1278  C4'       -6.1290    0.4180   25.6040 C.3    63  DT63        0.1746
   1279  O4'       -7.1410   -0.4940   25.1140 O.3    63  DT63       -0.3327
   1280  C3'       -5.1600    0.5280   24.4460 C.3    63  DT63        0.1558
   1281  O3'       -3.9010    1.0190   24.8480 O.3    63  DT63       -0.3138
   1282  C2'       -5.1340   -0.8980   23.9320 C.3    63  DT63        0.0866
   1283  C1'       -6.6140   -1.2530   24.0510 C.3    63  DT63        0.2106
   1284  N1        -7.3710   -0.9190   22.7650 N.ar   63  DT63       -0.2559
   1285  C2        -7.4790   -1.8920   21.7890 C.ar   63  DT63        0.3545
   1286  O2        -7.0020   -3.0070   21.9070 O.2    63  DT63       -0.2443
   1287  N3        -8.1690   -1.5110   20.6630 N.ar   63  DT63       -0.1533
   1288  C4        -8.7470   -0.2830   20.4200 C.ar   63  DT63        0.2804
   1289  O4        -9.3360   -0.0910   19.3590 O.2    63  DT63       -0.2654
   1290  C5        -8.5910    0.6730   21.4800 C.ar   63  DT63        0.0534
   1291  C6        -7.9250    0.3300   22.5850 C.ar   63  DT63        0.0824
   1292  C7        -9.1850    2.0400   21.3110 C.3    63  DT63        0.0377
   1293  P         -2.6500    1.2600   23.6430 P.3    64  DA64        0.2141
   1294  OP1       -1.3640    1.6550   24.2900 O.3    64  DA64       -0.4373
   1295  OP2       -3.1310    1.9820   22.4290 O.2    64  DA64       -0.5172
   1296  O5'       -2.7000   -0.3040   23.3810 O.3    64  DA64       -0.3115
   1297  C5'       -2.3090   -1.2080   24.4050 C.3    64  DA64        0.1785
   1298  C4'       -2.0040   -2.5340   23.8000 C.3    64  DA64        0.1473
   1299  O4'       -3.2390   -3.1280   23.3690 O.3    64  DA64       -0.3353
   1300  C3'       -1.1530   -2.4420   22.5500 C.3    64  DA64        0.0368
   1301  O3'        0.2110   -2.4680   22.9250 O.3    64  DA64       -0.1145
   1302  C2'       -1.5550   -3.6820   21.7720 C.3    64  DA64        0.0566
   1303  C1'       -3.0240   -3.8390   22.1720 C.3    64  DA64        0.2069
   1304  N9        -4.1640   -2.9770   21.3320 N.ar   64  DA64       -0.2715
   1305  C8        -4.5830   -1.6730   21.2770 C.ar   64  DA64        0.1815
   1306  N7        -5.1080   -1.3340   20.1240 N.ar   64  DA64       -0.2191
   1307  C5        -5.0280   -2.4940   19.3700 C.ar   64  DA64        0.1545
   1308  C6        -5.4180   -2.7950   18.0530 C.ar   64  DA64        0.2067
   1309  N6        -5.9910   -1.9120   17.2310 N.2    64  DA64       -0.1169
   1310  N1        -5.1960   -4.0490   17.6050 N.ar   64  DA64       -0.2016
   1311  C2        -4.6230   -4.9340   18.4290 C.ar   64  DA64        0.2017
   1312  N3        -4.2140   -4.7700   19.6850 N.ar   64  DA64       -0.2048
   1313  C4        -4.4480   -3.5140   20.1000 C.ar   64  DA64        0.1693
   1314  P          0.8140   -2.0850   21.9360 P.3    65  DT65        0.5327
   1315  OP1        1.2420   -1.6570   20.5840 O.2    65  DT65       -0.2224
   1316  OP2        0.8050   -3.5230   22.2840 O.3    65  DT65       -0.1145
   1317  O5'        1.7630   -1.4260   23.0480 O.3    65  DT65       -0.2675
   1318  C5'        1.8020   -0.0170   23.2200 C.3    65  DT65        0.1857
   1319  C4'        3.1260    0.4460   23.7810 C.3    65  DT65        0.1748
   1320  O4'        3.2820   -0.0560   25.1320 O.3    65  DT65       -0.3327
   1321  C3'        4.3840   -0.0240   23.0550 C.3    65  DT65        0.1558
   1322  O3'        4.7030    0.7540   21.9150 O.3    65  DT65       -0.3138
   1323  C2'        5.4470    0.0560   24.1430 C.3    65  DT65        0.0866
   1324  C1'        4.6430   -0.3540   25.3800 C.3    65  DT65        0.2106
   1325  N1         4.7190   -1.8820   25.6280 N.ar   65  DT65       -0.2559
   1326  C2         5.8460   -2.2880   26.3180 C.ar   65  DT65        0.3545
   1327  O2         6.6790   -1.5100   26.7470 O.2    65  DT65       -0.2443
   1328  N3         5.9640   -3.6470   26.4890 N.ar   65  DT65       -0.1533
   1329  C4         5.0890   -4.6170   26.0490 C.ar   65  DT65        0.2804
   1330  O4         5.3300   -5.7990   26.2800 O.2    65  DT65       -0.2654
   1331  C5         3.9450   -4.1160   25.3400 C.ar   65  DT65        0.0534
   1332  C6         3.8050   -2.8000   25.1600 C.ar   65  DT65        0.0824
   1333  C7         2.9340   -5.0940   24.8200 C.3    65  DT65        0.0377
   1334  P          5.6500    0.1500   20.7100 P.3    66  DG66        0.2141
   1335  OP1        5.6590    1.1760   19.6540 O.2    66  DG66       -0.5172
   1336  OP2        5.1650   -1.2000   20.3520 O.3    66  DG66       -0.4373
   1337  O5'        7.1100   -0.0540   21.3500 O.3    66  DG66       -0.3114
   1338  C5'        7.9860    1.0550   21.6140 C.3    66  DG66        0.1811
   1339  C4'        9.2120    0.5260   22.3250 C.3    66  DG66        0.1746
   1340  O4'        8.8260   -0.1140   23.5730 O.3    66  DG66       -0.3327
   1341  C3'        9.9280   -0.6110   21.6110 C.3    66  DG66        0.1558
   1342  O3'       10.6040   -0.1730   20.4120 O.3    66  DG66       -0.3138
   1343  C2'       10.8280   -1.1280   22.7440 C.3    66  DG66        0.0865
   1344  C1'        9.8460   -1.0450   23.9260 C.3    66  DG66        0.2094
   1345  N9         9.1470   -2.3610   24.1610 N.ar   66  DG66       -0.2713
   1346  C8         7.8600   -2.7470   23.8770 C.ar   66  DG66        0.1816
   1347  N7         7.6410   -4.0150   24.0980 N.ar   66  DG66       -0.2173
   1348  C5         8.8530   -4.4960   24.5580 C.ar   66  DG66        0.1748
   1349  C6         9.2350   -5.8020   24.9600 C.ar   66  DG66        0.3023
   1350  O6         8.5430   -6.8280   24.9880 O.2    66  DG66       -0.2633
   1351  N1        10.5680   -5.8560   25.3570 N.ar   66  DG66       -0.1709
   1352  C2        11.4270   -4.7830   25.3670 C.ar   66  DG66        0.2606
   1353  N2        12.6760   -5.0300   25.7850 N.pl3  66  DG66       -0.0859
   1354  N3        11.0870   -3.5640   24.9960 N.ar   66  DG66       -0.1918
   1355  C4         9.7970   -3.4890   24.6040 C.ar   66  DG66        0.1722
   1356  P         11.1440   -1.2490   19.2290 P.3    67  DC67        0.2141
   1357  OP1       11.8530   -0.5070   18.1660 O.2    67  DC67       -0.5172
   1358  OP2        9.8770   -1.9560   18.9520 O.3    67  DC67       -0.4373
   1359  O5'       12.1130   -2.4260   19.7130 O.3    67  DC67       -0.3114
   1360  C5'       13.4940   -2.1860   19.9500 C.3    67  DC67        0.1811
   1361  C4'       14.1730   -3.3710   20.5960 C.3    67  DC67        0.1746
   1362  O4'       13.4800   -3.8100   21.7980 O.3    67  DC67       -0.3327
   1363  C3'       14.1990   -4.6330   19.7620 C.3    67  DC67        0.1558
   1364  O3'       15.1120   -4.5650   18.6900 O.3    67  DC67       -0.3138
   1365  C2'       14.5390   -5.6780   20.8070 C.3    67  DC67        0.0866
   1366  C1'       13.6400   -5.2090   21.9500 C.3    67  DC67        0.2106
   1367  N1        12.2650   -5.8720   21.8750 N.ar   67  DC67       -0.2556
   1368  C2        12.1100   -7.2040   22.2750 C.ar   67  DC67        0.3531
   1369  O2        13.1270   -7.8780   22.5160 O.2    67  DC67       -0.2443
   1370  N3        10.8620   -7.7190   22.3860 N.ar   67  DC67       -0.1739
   1371  C4         9.8010   -6.9580   22.1160 C.ar   67  DC67        0.1759
   1372  N4         8.5910   -7.5080   22.2390 N.pl3  67  DC67       -0.1070
   1373  C5         9.9360   -5.6060   21.7100 C.ar   67  DC67        0.0566
   1374  C6        11.1700   -5.1020   21.6010 C.ar   67  DC67        0.0849
   1375  P         14.3780   -4.7020   17.1220 P.3    68  DG68        0.2141
   1376  OP1       15.3220   -4.0060   16.2360 O.2    68  DG68       -0.5172
   1377  OP2       12.9600   -4.8200   16.7370 O.3    68  DG68       -0.4373
   1378  O5'       14.9390   -6.1660   17.4160 O.3    68  DG68       -0.3114
   1379  C5'       16.3050   -6.3600   17.6570 C.3    68  DG68        0.1811
   1380  C4'       16.4910   -7.7750   18.1490 C.3    68  DG68        0.1746
   1381  O4'       15.7320   -7.9540   19.3700 O.3    68  DG68       -0.3327
   1382  C3'       15.9120   -8.8620   17.2680 C.3    68  DG68        0.1558
   1383  O3'       16.7400   -9.1000   16.1680 O.3    68  DG68       -0.3138
   1384  C2'       15.9630  -10.0100   18.2570 C.3    68  DG68        0.0865
   1385  C1'       15.4140   -9.3210   19.5240 C.3    68  DG68        0.2094
   1386  N9        13.9200   -9.5450   19.5920 N.ar   68  DG68       -0.2713
   1387  C8        13.0130   -8.5270   19.4220 C.ar   68  DG68        0.1816
   1388  N7        11.7760   -8.9030   19.6010 N.ar   68  DG68       -0.2173
   1389  C5        11.8680  -10.2480   19.9100 C.ar   68  DG68        0.1748
   1390  C6        10.8570  -11.1980   20.2050 C.ar   68  DG68        0.3023
   1391  O6         9.6330  -11.0240   20.2530 O.2    68  DG68       -0.2633
   1392  N1        11.3870  -12.4590   20.4610 N.ar   68  DG68       -0.1709
   1393  C2        12.7260  -12.7670   20.4360 C.ar   68  DG68        0.2606
   1394  N2        13.0460  -14.0390   20.7110 N.pl3  68  DG68       -0.0859
   1395  N3        13.6770  -11.8960   20.1630 N.ar   68  DG68       -0.1918
   1396  C4        13.1850  -10.6640   19.9100 C.ar   68  DG68        0.1722
   1397  P         16.2020   -9.1460   14.7990 P.3    69  DT69        0.2141
   1398  OP1       17.2200   -8.9730   13.7350 O.2    69  DT69       -0.5172
   1399  OP2       15.0320   -8.2400   14.8930 O.3    69  DT69       -0.4373
   1400  O5'       15.5810  -10.6210   14.7010 O.3    69  DT69       -0.3114
   1401  C5'       16.4620  -11.7340   14.6470 C.3    69  DT69        0.1811
   1402  C4'       15.8300  -13.0010   15.1750 C.3    69  DT69        0.1746
   1403  O4'       15.1070  -12.7440   16.4070 O.3    69  DT69       -0.3327
   1404  C3'       14.7870  -13.6570   14.2890 C.3    69  DT69        0.1558
   1405  O3'       15.3520  -14.4070   13.2350 O.3    69  DT69       -0.3138
   1406  C2'       14.0090  -14.5150   15.2750 C.3    69  DT69        0.0866
   1407  C1'       13.9950  -13.6130   16.5070 C.3    69  DT69        0.2106
   1408  N1        12.8340  -12.7820   16.5680 N.ar   69  DT69       -0.2559
   1409  C2        11.6140  -13.2430   17.0250 C.ar   69  DT69        0.3545
   1410  O2        11.4150  -14.4050   17.3320 O.2    69  DT69       -0.2443
   1411  N3        10.6270  -12.2900   17.1080 N.ar   69  DT69       -0.1533
   1412  C4        10.7360  -10.9530   16.7880 C.ar   69  DT69        0.2804
   1413  O4         9.7590  -10.2190   16.9170 O.2    69  DT69       -0.2654
   1414  C5        12.0330  -10.5520   16.3210 C.ar   69  DT69        0.0534
   1415  C6        13.0110  -11.4580   16.2300 C.ar   69  DT69        0.0824
   1416  C7        12.2520   -9.1160   15.9470 C.3    69  DT69        0.0377
   1417  P         14.7160  -14.2360   12.0080 P.3    70  DG70        0.2141
   1418  OP1       15.6430  -15.0110   11.1700 O.2    70  DG70       -0.5172
   1419  OP2       14.6760  -12.7750   11.8280 O.3    70  DG70       -0.4373
   1420  O5'       13.2880  -14.9100   11.8270 O.3    70  DG70       -0.3114
   1421  C5'       13.2190  -16.3090   11.9020 C.3    70  DG70        0.1811
   1422  C4'       12.0230  -16.7990   12.6790 C.3    70  DG70        0.1746
   1423  O4'       11.7050  -16.0230   13.8530 O.3    70  DG70       -0.3327
   1424  C3'       10.7600  -16.7310   11.8720 C.3    70  DG70        0.1558
   1425  O3'       10.7450  -17.8070   10.9780 O.3    70  DG70       -0.3138
   1426  C2'        9.7010  -16.8750   12.9270 C.3    70  DG70        0.0865
   1427  C1'       10.2900  -16.0240   14.0440 C.3    70  DG70        0.2094
   1428  N9         9.7690  -14.6520   14.0830 N.ar   70  DG70       -0.2713
   1429  C8        10.4660  -13.4700   14.0180 C.ar   70  DG70        0.1816
   1430  N7         9.6980  -12.4160   14.0720 N.ar   70  DG70       -0.2173
   1431  C5         8.4190  -12.9290   14.1820 C.ar   70  DG70        0.1748
   1432  C6         7.1660  -12.2710   14.2780 C.ar   70  DG70        0.3023
   1433  O6         6.9380  -11.0540   14.2850 O.2    70  DG70       -0.2633
   1434  N1         6.1100  -13.1730   14.3710 N.ar   70  DG70       -0.1709
   1435  C2         6.2440  -14.5400   14.3730 C.ar   70  DG70        0.2606
   1436  N2         5.1100  -15.2460   14.4720 N.pl3  70  DG70       -0.0859
   1437  N3         7.4020  -15.1660   14.2840 N.ar   70  DG70       -0.1918
   1438  C4         8.4410  -14.3100   14.1910 C.ar   70  DG70        0.1722
   1439  P         10.5190  -17.4040    9.4330 P.3    71  DC71        0.2141
   1440  OP1       10.8340  -18.4500    8.4330 O.2    71  DC71       -0.5172
   1441  OP2       10.9930  -16.0180    9.2060 O.3    71  DC71       -0.4373
   1442  O5'        8.9340  -17.3380    9.5950 O.3    71  DC71       -0.3114
   1443  C5'        8.1680  -18.5370    9.8240 C.3    71  DC71        0.1811
   1444  C4'        6.7010  -18.2130   10.0060 C.3    71  DC71        0.1746
   1445  O4'        6.5110  -17.4440   11.2220 O.3    71  DC71       -0.3327
   1446  C3'        6.0400  -17.3610    8.9320 C.3    71  DC71        0.1558
   1447  O3'        5.6530  -18.0810    7.7740 O.3    71  DC71       -0.3138
   1448  C2'        4.8400  -16.7840    9.6660 C.3    71  DC71        0.0866
   1449  C1'        5.4240  -16.5480   11.0550 C.3    71  DC71        0.2106
   1450  N1         5.9180  -15.1660   11.1390 N.ar   71  DC71       -0.2556
   1451  C2         5.0010  -14.1490   11.4300 C.ar   71  DC71        0.3531
   1452  O2         3.8200  -14.4580   11.6630 O.2    71  DC71       -0.2443
   1453  N3         5.4250  -12.8630   11.4480 N.ar   71  DC71       -0.1739
   1454  C4         6.7020  -12.5780   11.1900 C.ar   71  DC71        0.1759
   1455  N4         7.0750  -11.2970   11.2190 N.pl3  71  DC71       -0.1070
   1456  C5         7.6470  -13.5940   10.8930 C.ar   71  DC71        0.0566
   1457  C6         7.2240  -14.8620   10.8760 C.ar   71  DC71        0.0849
   1458  P          5.0100  -17.1100    6.3680 P.3    72  DT72        0.2141
   1459  OP1        5.3180  -17.3220    4.9310 O.2    72  DT72       -0.5172
   1460  OP2        5.0580  -15.7370    6.9340 O.3    72  DT72       -0.4373
   1461  O5'        3.5730  -17.7250    6.6650 O.3    72  DT72       -0.3114
   1462  C5'        2.4370  -16.8840    6.8130 C.3    72  DT72        0.1811
   1463  C4'        2.1500  -16.6670    8.2770 C.3    72  DT72        0.1746
   1464  O4'        3.3480  -16.1600    8.9160 O.3    72  DT72       -0.3327
   1465  C3'        1.0780  -15.6380    8.5920 C.3    72  DT72        0.1558
   1466  O3'       -0.2090  -16.2410    8.5660 O.3    72  DT72       -0.3138
   1467  C2'        1.4720  -15.1780    9.9920 C.3    72  DT72        0.0866
   1468  C1'        3.0020  -15.2050    9.9050 C.3    72  DT72        0.2106
   1469  N1         3.4330  -13.9110    9.7230 N.ar   72  DT72       -0.2559
   1470  C2         3.3120  -12.8330   10.5780 C.ar   72  DT72        0.3545
   1471  O2         2.5090  -12.7990   11.4940 O.2    72  DT72       -0.2443
   1472  N3         4.1670  -11.7890   10.3220 N.ar   72  DT72       -0.1533
   1473  C4         5.1110  -11.7170    9.3180 C.ar   72  DT72        0.2804
   1474  O4         5.8080  -10.7100    9.2150 O.2    72  DT72       -0.2654
   1475  C5         5.1750  -12.8740    8.4720 C.ar   72  DT72        0.0534
   1476  C6         4.3550  -13.9040    8.6980 C.ar   72  DT72        0.0824
   1477  C7         6.1700  -12.8910    7.3500 C.3    72  DT72        0.0377
   1478  P         -1.2430  -15.5100    8.8890 P.3    73  DA73        0.2141
   1479  OP1       -1.9960  -16.5850    9.5680 O.3    73  DA73       -0.4373
   1480  OP2       -1.9040  -14.7210    7.8420 O.2    73  DA73       -0.5172
   1481  O5'       -0.7610  -14.5520   10.0720 O.3    73  DA73       -0.3114
   1482  C5'       -1.3620  -14.6240   11.4090 C.3    73  DA73        0.1811
   1483  C4'       -0.9640  -13.4030   12.3000 C.3    73  DA73        0.1746
   1484  O4'        0.4100  -12.9930   12.0200 O.3    73  DA73       -0.3327
   1485  C3'       -1.7790  -12.0960   12.2150 C.3    73  DA73        0.1558
   1486  O3'       -2.8450  -12.1010   13.1600 O.3    73  DA73       -0.3138
   1487  C2'       -0.7790  -11.0320   12.6730 C.3    73  DA73        0.0865
   1488  C1'        0.5220  -11.5820   12.0890 C.3    73  DA73        0.2094
   1489  N9         0.8790  -11.0410   10.8080 N.ar   73  DA73       -0.2714
   1490  C8         0.7120  -11.6170    9.5760 C.ar   73  DA73        0.1815
   1491  N7         1.1460  -10.8780    8.5830 N.ar   73  DA73       -0.2193
   1492  C5         1.6310   -9.7380    9.2060 C.ar   73  DA73        0.1518
   1493  C6         2.2270   -8.5680    8.7050 C.ar   73  DA73        0.1919
   1494  N6         2.4450   -8.3460    7.4060 N.pl3  73  DA73       -0.1054
   1495  N1         2.5960   -7.6220    9.5950 N.ar   73  DA73       -0.2040
   1496  C2         2.3780   -7.8450   10.8960 C.ar   73  DA73        0.2016
   1497  N3         1.8280   -8.9030   11.4870 N.ar   73  DA73       -0.2048
   1498  C4         1.4720   -9.8240   10.5760 C.ar   73  DA73        0.1691
   1499  P         -3.9780  -10.5580   13.1300 P.3    74  DC74        0.2141
   1500  OP1       -4.6310  -11.6090   13.9470 O.3    74  DC74       -0.4373
   1501  OP2       -4.3500  -10.3890   11.6990 O.2    74  DC74       -0.5172
   1502  O5'       -4.2500   -9.1920   13.8700 O.3    74  DC74       -0.3114
   1503  C5'       -3.8550   -9.0580   15.2350 C.3    74  DC74        0.1810
   1504  C4'       -2.8640   -7.9270   15.4220 C.3    74  DC74        0.1725
   1505  O4'       -3.1750   -6.8350   14.5270 O.3    74  DC74       -0.3511
   1506  C3'       -2.8920   -7.3910   16.8460 C.3    74  DC74        0.1538
   1507  O3'       -1.7190   -7.8940   17.4960 O.3    74  DC74       -0.3139
   1508  C2'       -2.7610   -5.8880   16.6670 C.3    74  DC74        0.0646
   1509  C1'       -3.3200   -5.6500   15.2550 C.3    74  DC74        0.1449
   1510  N1        -5.1600   -5.3250   14.7480 N.2    74  DC74       -0.1389
   1511  C2        -5.3310   -3.9360   14.7640 C.1    74  DC74        0.3500
   1512  O2        -4.4830   -3.2360   15.3430 O.2    74  DC74       -0.1766
   1513  N3        -6.4120   -3.3970   14.1510 N.am   74  DC74        0.0897
   1514  C4        -7.2970   -4.1880   13.5420 C.2    74  DC74        0.4204
   1515  N4        -8.3460   -3.6120   12.9510 N.pl3  74  DC74        0.2150
   1516  C5        -7.1420   -5.5970   13.5150 C.2    74  DC74        0.1183
   1517  C6        -6.0730   -6.1260   14.1210 C.2    74  DC74        0.1222
   1518  P         -1.8370   -8.7970   19.0000 P.3    75  DC75        0.2141
   1519  OP1       -2.6510   -8.7120   20.2250 O.3    75  DC75       -0.4373
   1520  OP2       -0.5060   -8.1460   18.9400 O.2    75  DC75       -0.5172
   1521  O5'       -1.5710  -10.3080   18.6110 O.3    75  DC75       -0.3114
   1522  C5'       -2.5920  -11.2780   18.6250 C.3    75  DC75        0.1811
   1523  C4'       -1.9870  -12.5880   18.1790 C.3    75  DC75        0.1746
   1524  O4'       -1.5690  -12.4340   16.8060 O.3    75  DC75       -0.3327
   1525  C3'       -0.7000  -13.0020   18.8860 C.3    75  DC75        0.1558
   1526  O3'       -0.9190  -13.5770   20.1520 O.3    75  DC75       -0.3138
   1527  C2'       -0.1770  -14.0070   17.8850 C.3    75  DC75        0.0866
   1528  C1'       -0.4090  -13.2230   16.5940 C.3    75  DC75        0.2106
   1529  N1         0.7070  -12.3260   16.2290 N.ar   75  DC75       -0.2556
   1530  C2         1.8370  -12.8530   15.5940 C.ar   75  DC75        0.3531
   1531  O2         1.8630  -14.0680   15.3300 O.2    75  DC75       -0.2443
   1532  N3         2.8670  -12.0280   15.2880 N.ar   75  DC75       -0.1739
   1533  C4         2.7960  -10.7320   15.5920 C.ar   75  DC75        0.1759
   1534  N4         3.8350   -9.9570   15.2710 N.pl3  75  DC75       -0.1070
   1535  C5         1.6600  -10.1780   16.2350 C.ar   75  DC75        0.0566
   1536  C6         0.6450  -10.9960   16.5360 C.ar   75  DC75        0.0849
   1537  P          0.1910  -13.4950   21.2830 P.3    76  DG76        0.2141
   1538  OP1       -0.6240  -13.6620   22.5190 O.3    76  DG76       -0.4373
   1539  OP2        1.0380  -12.3130   20.9880 O.2    76  DG76       -0.5172
   1540  O5'        1.1100  -14.7940   21.1790 O.3    76  DG76       -0.3114
   1541  C5'        0.5030  -15.9290   20.6400 C.3    76  DG76        0.1811
   1542  C4'        1.6200  -16.7540   20.0540 C.3    76  DG76        0.1746
   1543  O4'        2.1310  -15.8430   19.1080 O.3    76  DG76       -0.3327
   1544  C3'        2.9200  -16.9760   20.7750 C.3    76  DG76        0.1558
   1545  O3'        2.8380  -18.0120   21.6720 O.3    76  DG76       -0.3138
   1546  C2'        3.9350  -17.2240   19.6400 C.3    76  DG76        0.0865
   1547  C1'        3.3810  -16.2760   18.6510 C.3    76  DG76        0.2094
   1548  N9         4.1580  -15.2070   18.4910 N.ar   76  DG76       -0.2713
   1549  C8         3.6790  -13.9430   18.7320 C.ar   76  DG76        0.1816
   1550  N7         4.5750  -13.0100   18.5560 N.ar   76  DG76       -0.2173
   1551  C5         5.7130  -13.6960   18.1740 C.ar   76  DG76        0.1748
   1552  C6         7.0100  -13.2230   17.8480 C.ar   76  DG76        0.3023
   1553  O6         7.4180  -12.0540   17.8310 O.2    76  DG76       -0.2633
   1554  N1         7.8750  -14.2620   17.5150 N.ar   76  DG76       -0.1709
   1555  C2         7.5330  -15.5920   17.5000 C.ar   76  DG76        0.2606
   1556  N2         8.5030  -16.4480   17.1520 N.pl3  76  DG76       -0.0859
   1557  N3         6.3320  -16.0470   17.8010 N.ar   76  DG76       -0.1918
   1558  C4         5.4760  -15.0560   18.1280 C.ar   76  DG76        0.1722
   1559  P          3.5770  -17.6360   23.1110 P.3    77  DT77        0.2141
   1560  OP1        3.1830  -18.8000   23.9500 O.3    77  DT77       -0.4373
   1561  OP2        3.1570  -16.2680   23.5160 O.2    77  DT77       -0.5172
   1562  O5'        5.1680  -17.6430   22.9400 O.3    77  DT77       -0.3114
   1563  C5'        5.8740  -18.8490   22.6300 C.3    77  DT77        0.1811
   1564  C4'        7.3310  -18.5550   22.3140 C.3    77  DT77        0.1746
   1565  O4'        7.4050  -17.6500   21.1810 O.3    77  DT77       -0.3327
   1566  C3'        8.1580  -17.8690   23.3940 C.3    77  DT77        0.1558
   1567  O3'        8.6890  -18.8060   24.3240 O.3    77  DT77       -0.3138
   1568  C2'        9.2790  -17.2380   22.5780 C.3    77  DT77        0.0866
   1569  C1'        8.5270  -16.7930   21.3230 C.3    77  DT77        0.2106
   1570  N1         8.0340  -15.3790   21.4360 N.ar   77  DT77       -0.2559
   1571  C2         8.9340  -14.3630   21.1720 C.ar   77  DT77        0.3545
   1572  O2        10.1060  -14.5650   20.9080 O.2    77  DT77       -0.2443
   1573  N3         8.4100  -13.0940   21.2280 N.ar   77  DT77       -0.1533
   1574  C4         7.1070  -12.7460   21.5160 C.ar   77  DT77        0.2804
   1575  O4         6.7850  -11.5610   21.5280 O.2    77  DT77       -0.2654
   1576  C5         6.2350  -13.8560   21.7800 C.ar   77  DT77        0.0534
   1577  C6         6.7180  -15.1010   21.7320 C.ar   77  DT77        0.0824
   1578  C7         4.7970  -13.5810   22.1040 C.3    77  DT77        0.0377
   1579  P          8.7930  -18.4600   25.7880 P.3    78  DG78        0.2141
   1580  OP1        9.1700  -19.7840   26.3330 O.3    78  DG78       -0.4373
   1581  OP2        7.4330  -17.9340   26.0160 O.2    78  DG78       -0.5172
   1582  O5'        9.9280  -17.3980   26.1710 O.3    78  DG78       -0.3114
   1583  C5'       11.2940  -17.8240   26.3070 C.3    78  DG78        0.1811
   1584  C4'       12.2800  -16.7040   26.0060 C.3    78  DG78        0.1746
   1585  O4'       12.0810  -16.2020   24.6570 O.3    78  DG78       -0.3327
   1586  C3'       12.2610  -15.4350   26.8480 C.3    78  DG78        0.1558
   1587  O3'       12.8910  -15.5490   28.1190 O.3    78  DG78       -0.3138
   1588  C2'       12.9980  -14.4370   25.9560 C.3    78  DG78        0.0865
   1589  C1'       12.5380  -14.8570   24.5790 C.3    78  DG78        0.2094
   1590  N9        11.4250  -14.0170   24.1790 N.ar   78  DG78       -0.2713
   1591  C8        10.0870  -14.3130   24.2690 C.ar   78  DG78        0.1816
   1592  N7         9.3150  -13.3080   23.9560 N.ar   78  DG78       -0.2173
   1593  C5        10.1920  -12.2880   23.6370 C.ar   78  DG78        0.1748
   1594  C6         9.9450  -10.9540   23.2230 C.ar   78  DG78        0.3023
   1595  O6         8.8540  -10.3950   23.0500 O.2    78  DG78       -0.2633
   1596  N1        11.1250  -10.2500   23.0040 N.ar   78  DG78       -0.1709
   1597  C2        12.3890  -10.7670   23.1640 C.ar   78  DG78        0.2606
   1598  N2        13.4060   -9.9340   22.9040 N.pl3  78  DG78       -0.0859
   1599  N3        12.6340  -12.0040   23.5490 N.ar   78  DG78       -0.1918
   1600  C4        11.5020  -12.7060   23.7690 C.ar   78  DG78        0.1722
   1601  P         12.7310  -14.2860   29.2510 P.3    79  DA79        0.2141
   1602  OP1       13.1430  -15.4330   30.0890 O.3    79  DA79       -0.4373
   1603  OP2       11.3390  -13.7850   29.3090 O.2    79  DA79       -0.5172
   1604  O5'       13.6230  -13.0040   29.6130 O.3    79  DA79       -0.3114
   1605  C5'       15.0410  -13.0180   29.5230 C.3    79  DA79        0.1811
   1606  C4'       15.5510  -11.8130   28.7700 C.3    79  DA79        0.1746
   1607  O4'       14.9190  -11.7800   27.4630 O.3    79  DA79       -0.3327
   1608  C3'       15.2330  -10.4550   29.3840 C.3    79  DA79        0.1558
   1609  O3'       16.1750  -10.0440   30.3620 O.3    79  DA79       -0.3138
   1610  C2'       15.1820   -9.5350   28.1680 C.3    79  DA79        0.0865
   1611  C1'       14.5670  -10.4580   27.1170 C.3    79  DA79        0.2094
   1612  N9        13.1620  -10.6620   26.9350 N.ar   79  DA79       -0.2714
   1613  C8        12.2830  -11.6540   27.2830 C.ar   79  DA79        0.1815
   1614  N7        11.0250  -11.2840   27.2440 N.ar   79  DA79       -0.2193
   1615  C5        11.0810   -9.9580   26.8440 C.ar   79  DA79        0.1518
   1616  C6        10.0820   -8.9970   26.6120 C.ar   79  DA79        0.1919
   1617  N6         8.7770   -9.2370   26.7570 N.pl3  79  DA79       -0.1054
   1618  N1        10.4760   -7.7660   26.2220 N.ar   79  DA79       -0.2040
   1619  C2        11.7840   -7.5260   26.0770 C.ar   79  DA79        0.2016
   1620  N3        12.8150   -8.3470   26.2630 N.ar   79  DA79       -0.2048
   1621  C4        12.3910   -9.5610   26.6510 C.ar   79  DA79        0.1691
   1622  P         16.0210   -9.3310   31.3180 P.3    80  DA80        0.2141
   1623  OP1       16.7680   -8.8480   32.5100 O.3    80  DA80       -0.4373
   1624  OP2       14.6450   -9.8740   31.4810 O.2    80  DA80       -0.5172
   1625  O5'       15.9570   -8.1700   30.2260 O.3    80  DA80       -0.3114
   1626  C5'       15.4270   -6.8990   30.5700 C.3    80  DA80        0.1811
   1627  C4'       15.8440   -5.8520   29.5650 C.3    80  DA80        0.1753
   1628  O4'       14.9990   -5.9430   28.3820 O.3    80  DA80       -0.3510
   1629  C3'       15.6140   -4.4430   30.0840 C.3    80  DA80        0.1839
   1630  O3'       16.7080   -4.0030   30.8740 O.3    80  DA80       -0.2204
   1631  C2'       15.3870   -3.6400   28.8110 C.3    80  DA80        0.0676
   1632  C1'       14.6020   -4.6440   27.9660 C.3    80  DA80        0.1450
   1633  N9        12.3710   -6.4650   29.3370 N.2    80  DA80       -0.0102
   1634  C8        12.3100   -7.7800   29.7190 C.2    80  DA80        0.3354
   1635  N7        11.1380   -8.3340   29.5210 N.2    80  DA80       -0.2028
   1636  C5        10.3760   -7.3130   28.9740 C.3    80  DA80        0.3315
   1637  C6         9.0400   -7.2580   28.5410 C.2    80  DA80        0.4301
   1638  N6         8.2020   -8.2970   28.5930 N.pl3  80  DA80        0.2140
   1639  N1         8.5900   -6.0860   28.0460 N.2    80  DA80        0.0200
   1640  C2         9.4300   -5.0460   27.9930 C.2    80  DA80        0.4720
   1641  N3        10.7050   -4.9760   28.3680 N.2    80  DA80        0.0177
   1642  C4        11.1220   -6.1560   28.8560 C.2    80  DA80        0.3923
@<TRIPOS>BOND
     1   552   551    2
     2   551   553    1
     3   551   550    1
     4   549   550   ar
     5   549   548   ar
     6   553   554    2
     7   550   557   ar
     8   532   531    2
     9   548   547   ar
    10   538   536    2
    11   554   555    2
    12   554   556    1
    13   557   547   ar
    14   557   556    1
    15   539   536    1
    16   539   540    1
    17   531   530   ar
    18   531   533   ar
    19   555   571    1
    20   547   546    1
    21   535   533    1
    22   536   537    1
    23   536   524    1
    24   560   558    2
    25   530   528   ar
    26   559   558    1
    27   533   534   ar
    28   543   544    1
    29   543   545    1
    30   543   541    1
    31   540   541    1
    32   571   570    1
    33   571   572    1
    34   478   477    2
    35   574   573    2
    36   479   477    1
    37   544   558    1
    38   558   561    1
    39   457   456    2
    40   518   516    2
    41   545   546    1
    42   570   569    1
    43   541   542    1
    44   499   497    1
    45   546   542    1
    46   546   529    1
    47   528   529    1
    48   528   527   ar
    49   534   527   ar
    50   477   464    1
    51   477   480    1
    52   572   573    1
    53   572   579    1
    54   573   575    1
    55   513   512    1
    56   527   526    1
    57   524   523    1
    58   435   434    2
    59   464   463    1
    60   459   456    1
    61   459   460    1
    62   456   458    1
    63   456   442    1
    64   523   525    1
    65   523   521    1
    66   516   519    1
    67   516   517    1
    68   516   505    1
    69   519   520    1
    70   525   526    1
    71   569   579    1
    72   569   568    1
    73   460   461    1
    74   480   481    1
    75   561   562    1
    76   463   461    1
    77   463   465    1
    78   514   512   ar
    79   514   515   ar
    80   512   511   ar
    81   416   415    2
    82   496   494    1
    83   579   578    2
    84   564   568    1
    85   564   563    1
    86   497   500    1
    87   497   498    1
    88   575   576    2
    89   526   522    1
    90   500   501    1
    91   436   434    1
    92   562   563    1
    93   434   423    1
    94   434   437    1
    95   520   521    1
    96   461   462    1
    97   568   567    1
    98   521   522    1
    99   442   441    1
   100   498   485    1
   101   515   508   ar
   102   511   509   ar
   103   505   504    1
   104   493   492    2
   105   481   482    1
   106   465   466    1
   107   494   492   ar
   108   494   495   ar
   109   563   565    1
   110   417   415    1
   111   578   576    1
   112   576   577    2
   113   504   506    1
   114   504   502    1
   115   415   418    1
   116   415   401    1
   117   485   484    1
   118   492   491   ar
   119   501   502    1
   120   508   509   ar
   121   508   507    1
   122   468   469   ar
   123   468   467   ar
   124   495   488   ar
   125   394   393    2
   126   509   510    2
   127   423   422    1
   128   441   439    1
   129   441   443    1
   130   437   438    1
   131   462   466    1
   132   484   482    1
   133   484   486    1
   134   418   419    1
   135   438   439    1
   136   469   470   ar
   137   565   567    1
   138   565   582    1
   139   565   566    1
   140   466   467    1
   141   506   507    1
   142   482   483    1
   143   419   420    1
   144   502   503    1
   145   577   594    1
   146   596   595    1
   147   467   476   ar
   148   491   489   ar
   149   439   440    1
   150   401   400    1
   151   507   503    1
   152   488   489   ar
   153   488   487    1
   154   422   420    1
   155   422   424    1
   156   483   487    1
   157   582   580    1
   158   443   444    1
   159   470   476   ar
   160   470   471   ar
   161   486   487    1
   162   489   490    2
   163   393   395    1
   164   393   396    1
   165   393   381    1
   166   476   475   ar
   167   595   594    1
   168   595   597    2
   169   420   421    1
   170   593   594    1
   171   593   592    2
   172   472   471    1
   173   566   580    1
   174   471   473   ar
   175   594   600    1
   176   397   396    1
   177   397   398    1
   178   597   598    1
   179   446   447   ar
   180   446   445   ar
   181   400   398    1
   182   400   402    1
   183   440   444    1
   184   447   448   ar
   185   580   581    2
   186   580   583    1
   187   475   474   ar
   188   592   591    1
   189   444   445    1
   190   424   425    1
   191   445   455   ar
   192   398   399    1
   193   473   474   ar
   194   600   591    1
   195   600   599    1
   196   598   599    2
   197   421   425    1
   198   381   380    1
   199   448   455   ar
   200   448   449   ar
   201   433   432   ar
   202   433   426   ar
   203   591   590    1
   204   455   454   ar
   205   432   430   ar
   206   450   449    2
   207   402   403    1
   208   583   584    1
   209   449   451   ar
   210   425   426    1
   211   586   590    1
   212   586   585    1
   213   426   427   ar
   214   454   452   ar
   215   380   378    1
   216   380   382    1
   217   617   616    2
   218   590   589    1
   219   451   452   ar
   220   399   403    1
   221   374   373    2
   222   452   453    1
   223   430   431    1
   224   430   429   ar
   225   616   615   ar
   226   616   618   ar
   227   615   613   ar
   228   375   373    1
   229   584   585    1
   230   403   404    1
   231   427   429   ar
   232   427   428    2
   233   378   377    1
   234   378   379    1
   235   382   383    1
   236   585   587    1
   237   373   376    1
   238   373   360    1
   239   614   613    2
   240   613   612   ar
   241   618   620    1
   242   618   619   ar
   243   377   376    1
   244   404   405   ar
   245   404   414   ar
   246   405   406   ar
   247   589   587    1
   248   619   612   ar
   249   612   611    1
   250   587   588    1
   251   383   379    1
   252   383   384    1
   253   406   407   ar
   254   414   413   ar
   255   414   407   ar
   256   413   411   ar
   257   407   408   ar
   258   611   607    1
   259   611   610    1
   260   360   359    1
   261   607   606    1
   262   638   639   ar
   263   638   636   ar
   264   639   640   ar
   265   411   412    1
   266   411   410   ar
   267   408   410   ar
   268   408   409    2
   269   603   601    1
   270   637   636    1
   271   384   391   ar
   272   384   385   ar
   273   588   604    1
   274   636   635   ar
   275   640   641   ar
   276   391   390   ar
   277   353   352    2
   278   604   605    1
   279   386   385    2
   280   359   361    1
   281   359   357    1
   282   610   608    1
   283   641   635   ar
   284   641   632   ar
   285   385   387   ar
   286   635   634   ar
   287   601   602    2
   288   390   392    1
   289   390   388   ar
   290   606   605    1
   291   606   608    1
   292   355   356    1
   293   355   352    1
   294   356   357    1
   295   632   631    1
   296   632   633   ar
   297   634   633   ar
   298   361   362    1
   299   352   354    1
   300   352   338    1
   301   387   388   ar
   302   357   358    1
   303   631   627    1
   304   631   630    1
   305   608   609    1
   306   388   389    2
   307   655   654    2
   308   700   701   ar
   309   700   699   ar
   310   627   626    1
   311   701   702   ar
   312   654   656   ar
   313   654   653   ar
   314   699   697   ar
   315   675   674    2
   316   656   657   ar
   317   630   628    1
   318   338   337    1
   319   362   358    1
   320   362   363    1
   321   702   693   ar
   322   702   696   ar
   323   652   653    1
   324   652   648    1
   325   652   651    1
   326   716   715    2
   327   692   688    1
   328   692   693    1
   329   692   691    1
   330   609   621    1
   331   674   676   ar
   332   674   673   ar
   333   653   660   ar
   334   676   677   ar
   335   688   687    1
   336   624   625    1
   337   624   621    1
   338   363   372   ar
   339   363   364   ar
   340   657   658    2
   341   657   659   ar
   342   626   625    1
   343   626   628    1
   344   713   712    1
   345   713   709    1
   346   713   714    1
   347   693   694   ar
   348   712   710    1
   349   697   696   ar
   350   697   698    1
   351   672   673    1
   352   672   671    1
   353   672   668    1
   354   648   647    1
   355   371   372   ar
   356   371   370   ar
   357   372   366   ar
   358   364   365   ar
   359   691   689    1
   360   696   695   ar
   361   729   733    1
   362   729   728    1
   363   673   680   ar
   364   651   649    1
   365   709   708    1
   366   715   714   ar
   367   715   717   ar
   368   736   735    2
   369   660   659   ar
   370   370   369   ar
   371   628   629    1
   372   677   678    2
   373   677   679   ar
   374   671   669    1
   375   659   661    1
   376   331   330    2
   377   621   623    2
   378   621   622    1
   379   337   339    1
   380   337   335    1
   381   733   734    1
   382   733   732    1
   383   668   667    1
   384   714   721   ar
   385   366   365   ar
   386   366   367   ar
   387   708   710    1
   388   708   707    1
   389   687   689    1
   390   687   686    1
   391   694   695   ar
   392   369   367   ar
   393   680   679   ar
   394   735   734   ar
   395   735   737   ar
   396   728   727    1
   397   728   730    1
   398   717   718   ar
   399   367   368    1
   400   679   681    1
   401   710   711    1
   402   734   741   ar
   403   332   330    1
   404   647   649    1
   405   647   646    1
   406   711   723    1
   407   339   340    1
   408   727   726    1
   409   689   690    1
   410   330   333    1
   411   330   317    1
   412   333   334    1
   413   334   335    1
   414   667   669    1
   415   667   666    1
   416   629   642    1
   417   732   730    1
   418   649   650    1
   419   721   720   ar
   420   335   336    1
   421   737   738   ar
   422   686   685    1
   423   645   646    1
   424   645   642    1
   425   690   703    1
   426   707   706    1
   427   669   670    1
   428   741   740   ar
   429   718   720   ar
   430   718   719    2
   431   726   723    1
   432   730   731    1
   433   685   670    1
   434   720   722    1
   435   706   703    1
   436   738   740   ar
   437   738   739    2
   438   650   662    1
   439   740   742    1
   440   642   643    2
   441   642   644    1
   442   665   666    1
   443   665   662    1
   444   749   753    1
   445   749   748    1
   446   340   341    1
   447   340   336    1
   448   723   724    2
   449   723   725    1
   450   731   743    1
   451   341   342   ar
   452   341   351   ar
   453   342   343   ar
   454   317   316    1
   455   753   754    1
   456   753   752    1
   457   703   704    2
   458   703   705    1
   459   351   350    1
   460   351   344   ar
   461   343   344   ar
   462   350   348    1
   463   748   747    1
   464   748   750    1
   465   344   345    1
   466   348   349    2
   467   348   347    2
   468   756   755    2
   469   747   746    1
   470   664   662    2
   471   345   347    1
   472   345   346    2
   473   349   776    1
   474   662   663    1
   475   754   755   ar
   476   754   761   ar
   477   682   684    1
   478   682   683    2
   479   752   750    1
   480   755   757   ar
   481   316   318    1
   482   316   314    1
   483   746   743    1
   484   743   744    2
   485   743   745    1
   486   769   773    1
   487   769   768    1
   488   310   309    2
   489   761   760   ar
   490   750   751    1
   491   757   758   ar
   492   767   768    1
   493   767   766    1
   494   312   313    1
   495   312   309    1
   496   318   319    1
   497   773   774    1
   498   773   772    1
   499   768   770    1
   500   311   309    1
   501   313   314    1
   502   751   763    1
   503   760   758   ar
   504   760   762    1
   505   309   298    1
   506   314   315    1
   507   758   759    2
   508   776   775    1
   509   774   775    1
   510   774   781    1
   511   775   777    1
   512   781   780    2
   513   772   770    1
   514   766   763    1
   515   319   315    1
   516   319   320    1
   517   770   771    1
   518   796   795    2
   519   777   778   am
   520   777   798    1
   521   789   793    1
   522   789   788    1
   523   320   321   ar
   524   320   329   ar
   525   321   322   ar
   526   780   778    1
   527   780   782    1
   528   298   297    1
   529   763   764    2
   530   763   765    1
   531   329   328   ar
   532   329   323   ar
   533   322   323   ar
   534   328   327   ar
   535   323   324   ar
   536   778   779    2
   537   795   794   am
   538   795   797   am
   539   793   794    1
   540   793   792    1
   541   327   326   ar
   542   794   801    1
   543   324   326   ar
   544   324   325    1
   545   771   783    1
   546   291   290    2
   547   787   788    1
   548   787   786    1
   549   788   790    1
   550   797   798    1
   551   801   800    2
   552   297   299    1
   553   297   295    1
   554   292   290    1
   555   271   270    2
   556   798   800    1
   557   798   799    1
   558   290   293    1
   559   290   278    1
   560   800   802    1
   561   272   270    1
   562   293   294    1
   563   249   248    2
   564   792   790    1
   565   299   300    1
   566   294   295    1
   567   783   786    1
   568   783   785    2
   569   783   784    1
   570   270   256    1
   571   270   273    1
   572   790   791    1
   573   295   296    1
   574   278   277    1
   575   791   803    1
   576   248   250    1
   577   248   234    1
   578   248   251    1
   579   256   255    1
   580   307   308   ar
   581   307   305   ar
   582   308   301   ar
   583   300   301    1
   584   300   296    1
   585   306   305    1
   586   305   304   ar
   587   255   253    1
   588   255   257    1
   589   301   302   ar
   590   277   279    1
   591   277   275    1
   592   304   302   ar
   593   813   809    1
   594   813   814    1
   595   813   812    1
   596   809   808    1
   597   302   303    2
   598   273   274    1
   599   234   233    1
   600   252   251    1
   601   252   253    1
   602   823   821   ar
   603   823   824   ar
   604   822   821    1
   605   814   824   ar
   606   814   815   ar
   607   821   820   ar
   608   824   817   ar
   609   815   816   ar
   610   820   818   ar
   611   817   816   ar
   612   817   818   ar
   613   818   819    2
   614   253   254    1
   615   274   275    1
   616   227   226    2
   617   805   803    2
   618   279   280    1
   619   289   257    1
   620   289   287    1
   621   257   258    1
   622   803   806    1
   623   803   804    1
   624   275   276    1
   625   808   807    1
   626   808   810    1
   627   812   810    1
   628   287   288   ar
   629   287   285   ar
   630   230   229    1
   631   230   231    1
   632   806   807    1
   633   233   231    1
   634   233   235    1
   635   288   281   ar
   636   286   285    2
   637   285   284   ar
   638   229   226    1
   639   231   232    1
   640   226   228    1
   641   226   213    1
   642   254   258    1
   643   280   281    1
   644   280   276    1
   645   281   282   ar
   646   810   811    1
   647   258   259    1
   648   284   282   ar
   649   831   835    1
   650   831   830    1
   651   235   236    1
   652   835   836    1
   653   835   834    1
   654   282   283    2
   655   844   843   ar
   656   844   845   ar
   657   843   842   ar
   658   845   836   ar
   659   845   839   ar
   660   213   212    1
   661   842   840   ar
   662   836   837   ar
   663   811   825    1
   664   260   259    1
   665   260   261    2
   666   830   829    1
   667   830   832    1
   668   259   269    1
   669   839   840   ar
   670   839   838   ar
   671   232   236    1
   672   840   841    1
   673   837   838   ar
   674   834   832    1
   675   829   828    1
   676   261   262    1
   677   236   237    1
   678   828   825    1
   679   269   262    1
   680   269   268    2
   681   825   826    2
   682   825   827    1
   683   262   263    1
   684   212   214    1
   685   212   210    1
   686   832   833    1
   687   237   238   ar
   688   237   247   ar
   689   268   266    1
   690   238   239   ar
   691   214   215    1
   692   833   846    1
   693   263   264    2
   694   263   265    1
   695   852   856    1
   696   852   851    1
   697   882   881    1
   698   247   246   ar
   699   247   240   ar
   700   210   209    1
   701   210   211    1
   702   883   881   ar
   703   883   884   ar
   704   266   265    2
   705   266   267    1
   706   239   240   ar
   707   209   208    1
   708   246   244   ar
   709   881   880   ar
   710   884   885   ar
   711   206   205    2
   712   240   241   ar
   713   856   857    1
   714   856   855    1
   715   851   850    1
   716   851   853    1
   717   850   849    1
   718   208   205    1
   719   880   886   ar
   720   880   879    1
   721   885   886   ar
   722   886   877    1
   723   244   245    1
   724   244   243   ar
   725   215   211    1
   726   215   216    1
   727   879   859    1
   728   879   878    1
   729   859   858    1
   730   857   858   ar
   731   857   864   ar
   732   241   243   ar
   733   241   242    2
   734   846   849    1
   735   846   847    2
   736   846   848    1
   737   205   207    1
   738   205   191    1
   739   858   860   ar
   740   877   878    1
   741   877   876    1
   742   878   855    1
   743   864   863   ar
   744   855   853    1
   745   216   225   ar
   746   216   217   ar
   747   224   225   ar
   748   224   223   ar
   749   853   854    1
   750   860   861   ar
   751   876   872    1
   752   876   875    1
   753   225   219   ar
   754   900   899    2
   755   863   861   ar
   756   863   865    1
   757   217   218   ar
   758   919   918    2
   759   223   222   ar
   760   901   899   ar
   761   901   902   ar
   762   872   871    1
   763   861   862    2
   764   191   190    1
   765   854   866    1
   766   903   902    1
   767   219   218   ar
   768   219   220   ar
   769   899   898   ar
   770   222   220   ar
   771   902   904   ar
   772   918   920   ar
   773   918   917   ar
   774   220   221    1
   775   938   937    2
   776   920   921   ar
   777   950   954    1
   778   950   949    1
   779   875   873    1
   780   954   953    1
   781   954   955    1
   782   192   190    1
   783   192   193    1
   784   190   188    1
   785   916   917    1
   786   916   912    1
   787   916   915    1
   788   949   948    1
   789   949   951    1
   790   898   897    1
   791   898   905   ar
   792   871   870    1
   793   871   873    1
   794   868   866    2
   795   957   956    2
   796   917   924   ar
   797   866   869    1
   798   866   867    1
   799   953   951    1
   800   912   911    1
   801   897   893    1
   802   897   896    1
   803   869   870    1
   804   937   939   ar
   805   937   936   ar
   806   921   922    1
   807   921   923   ar
   808   904   905   ar
   809   202   201    1
   810   935   934    1
   811   935   936    1
   812   935   931    1
   813   939   940   ar
   814   948   947    1
   815   934   932    1
   816   873   874    1
   817   955   956   ar
   818   955   962   ar
   819   956   958   ar
   820   951   952    1
   821   915   913    1
   822   893   892    1
   823   924   923   ar
   824   936   943   ar
   825   188   187    1
   826   188   189    1
   827   952   963    1
   828   203   201   ar
   829   203   204   ar
   830   896   894    1
   831   201   200   ar
   832   931   930    1
   833   193   189    1
   834   193   194    1
   835   911   913    1
   836   911   910    1
   837   940   941    1
   838   940   942   ar
   839   962   961   ar
   840   969   968    1
   841   969   973    1
   842   187   186    1
   843   967   968    1
   844   967   966    1
   845   958   959   ar
   846   968   970    1
   847   947   944    1
   848   874   887    1
   849   930   932    1
   850   930   929    1
   851   186   183    1
   852   204   194   ar
   853   204   197   ar
   854   932   933    1
   855   943   942   ar
   856   200   198   ar
   857   194   195   ar
   858   913   914    1
   859   933   944    1
   860   892   894    1
   861   892   891    1
   862   910   909    1
   863   184   183    2
   864   964   963    2
   865   973   972    1
   866   973   974    1
   867   961   959   ar
   868   894   895    1
   869   963   966    1
   870   963   965    1
   871   959   960    1
   872   909   906    1
   873   944   945    2
   874   944   946    1
   875   197   198   ar
   876   197   196   ar
   877   198   199    2
   878   183   185    1
   879   183   170    1
   880   195   196   ar
   881   972   970    1
   882   914   925    1
   883   970   971    1
   884   928   929    1
   885   928   925    1
   886   971   983    1
   887   891   890    1
   888   890   887    1
   889   895   906    1
   890   974   981   ar
   891   974   975   ar
   892   887   889    2
   893   887   888    1
   894   976   975    2
   895   981   980   ar
   896   975   977   ar
   897   925   927    2
   898   925   926    1
   899   906   908    2
   900   906   907    1
   901   170   169    1
   902   980   982    1
   903   980   978   ar
   904   987   988    1
   905   987   986    1
   906   984   983    2
   907   983   986    1
   908   983   985    1
   909   977   978   ar
   910   989   988    1
   911   989   993    1
   912   171   169    1
   913   171   172    1
   914   978   979    2
   915   988   990    1
   916   169   167    1
   917   180   179   ar
   918   180   181   ar
   919   179   177   ar
   920   181   182   ar
   921   993   994    1
   922   993   992    1
   923   177   178    1
   924   177   176   ar
   925   182   176   ar
   926   182   173   ar
   927  1001   994   ar
   928  1001  1000   ar
   929   994   995   ar
   930   176   175   ar
   931   172   173    1
   932   172   168    1
   933   167   166    1
   934   167   168    1
   935  1002  1000    1
   936   173   174   ar
   937   990   992    1
   938   990   991    1
   939  1000   998   ar
   940   175   174   ar
   941   995   996    2
   942   995   997   ar
   943   165   166    1
   944   165   162    1
   945   991  1006    1
   946   998   997   ar
   947   998   999    2
   948  1007  1008    1
   949  1007  1006    1
   950  1009  1008    1
   951  1009  1013    1
   952  1008  1010    1
   953   164   162    2
   954   162   163    1
   955   162   151    1
   956  1459  1458    2
   957  1003  1005    1
   958  1003  1004    2
   959  1013  1014    1
   960  1013  1012    1
   961  1021  1014   ar
   962  1021  1020   ar
   963  1022  1020    1
   964  1014  1015   ar
   965  1020  1018   ar
   966   159   158    1
   967   151   150    1
   968  1010  1012    1
   969  1010  1011    1
   970   157   158   ar
   971   157   155   ar
   972  1458  1461    1
   973  1458  1460    1
   974  1458  1447    1
   975   156   155    2
   976   158   160   ar
   977   155   154   ar
   978  1461  1462    1
   979   150   152    1
   980   150   148    1
   981  1011  1024    1
   982   152   153    1
   983  1462  1463    1
   984  1015  1016    2
   985  1015  1017   ar
   986  1024  1023    1
   987  1018  1017   ar
   988  1018  1019    2
   989   160   161   ar
   990   154   161   ar
   991   154   153    1
   992  1477  1475    1
   993  1494  1493    1
   994    20    19    2
   995   153   149    1
   996  1447  1446    1
   997  1480  1478    2
   998  1023  1026    1
   999  1023  1025    1
  1000   138   137    1
  1001   145   143    2
  1002   146   147    1
  1003   146   143    1
  1004   148   147    1
  1005   148   149    1
  1006  1463  1465    1
  1007  1463  1464    1
  1008  1026  1027    1
  1009  1440  1439    2
  1010   139   137   ar
  1011   139   140   ar
  1012  1475  1476   ar
  1013  1475  1473   ar
  1014    42    41    2
  1015     6    19    1
  1016     6     5    1
  1017  1466  1465    1
  1018  1466  1478    1
  1019    19    22    1
  1020    19    21    1
  1021  1491  1492   ar
  1022  1491  1490   ar
  1023  1465  1467    1
  1024  1476  1469   ar
  1025  1493  1492   ar
  1026  1493  1495   ar
  1027   137   136   ar
  1028   144   143    1
  1029  1027  1028    1
  1030    23    22    1
  1031    23    24    1
  1032   143   130    1
  1033  1478  1479    1
  1034  1478  1481    1
  1035  1464  1468    1
  1036  1446  1448    1
  1037  1446  1444    1
  1038     2     3    1
  1039     2     1    1
  1040   140   141   ar
  1041  1441  1439    1
  1042  1492  1498   ar
  1043  1474  1473    2
  1044  1473  1472   ar
  1045  1036  1035   ar
  1046  1036  1037   ar
  1047     3     5    1
  1048     3     4    1
  1049  1439  1442    1
  1050  1439  1425    1
  1051  1035  1034   ar
  1052    27    41    1
  1053    27    26    1
  1054    41    43    1
  1055    41    44    1
  1056  1490  1489   ar
  1057   136   135   ar
  1058   136   142   ar
  1059  1495  1496   ar
  1060  1442  1443    1
  1061  1448  1449    1
  1062     5     7    1
  1063  1469  1468    1
  1064  1469  1470   ar
  1065  1029  1028    1
  1066  1029  1033    1
  1067  1443  1444    1
  1068    24    26    1
  1069    24    25    1
  1070   141   142   ar
  1071  1468  1467    1
  1072  1444  1445    1
  1073   135   134   ar
  1074  1481  1482    1
  1075  1028  1030    1
  1076   142   133   ar
  1077  1039  1038    2
  1078  1037  1038   ar
  1079  1037  1044   ar
  1080    26    28    1
  1081  1472  1470   ar
  1082  1034  1044   ar
  1083  1034  1033    1
  1084    61    60    2
  1085   130   129    1
  1086     7     8    1
  1087  1498  1489   ar
  1088  1498  1497   ar
  1089  1470  1471    2
  1090  1038  1040   ar
  1091     4     8    1
  1092   129   131    1
  1093   129   127    1
  1094  1489  1488    1
  1095   134   133   ar
  1096  1044  1043   ar
  1097  1457  1456   ar
  1098  1457  1450   ar
  1099   131   132    1
  1100  1456  1454   ar
  1101  1496  1497   ar
  1102   133   132    1
  1103  1033  1032    1
  1104   124   122    2
  1105   119   118    1
  1106    44    45    1
  1107  1425  1424    1
  1108  1449  1450    1
  1109  1449  1445    1
  1110    25    29    1
  1111    62    60    1
  1112    45    46    1
  1113  1450  1451   ar
  1114  1418  1417    2
  1115  1454  1455    1
  1116  1454  1453   ar
  1117  1030  1031    1
  1118  1030  1032    1
  1119    60    49    1
  1120    60    63    1
  1121  1482  1483    1
  1122  1451  1453   ar
  1123  1451  1452    2
  1124     8     9    1
  1125  1040  1041   ar
  1126   125   122    1
  1127   125   126    1
  1128  1501  1499    2
  1129   132   128    1
  1130  1043  1041   ar
  1131    28    29    1
  1132  1420  1421    1
  1133  1420  1417    1
  1134  1419  1417    1
  1135   118   120   ar
  1136   118   117   ar
  1137  1424  1422    1
  1138  1424  1426    1
  1139  1421  1422    1
  1140   122   123    1
  1141   122   111    1
  1142  1031  1045    1
  1143  1417  1405    1
  1144  1484  1488    1
  1145  1484  1483    1
  1146  1041  1042    1
  1147  1488  1487    1
  1148   120   121   ar
  1149    49    48    1
  1150   127   126    1
  1151   127   128    1
  1152    29    30    1
  1153  1485  1483    1
  1154  1485  1487    1
  1155  1485  1486    1
  1156  1047  1045    2
  1157    46    48    1
  1158    46    47    1
  1159   105   103    2
  1160   117   115   ar
  1161  1422  1423    1
  1162    48    50    1
  1163  1046  1045    1
  1164  1045  1048    1
  1165    63    64    1
  1166     9    10   ar
  1167     9    18   ar
  1168    31    30   ar
  1169    31    32   ar
  1170  1426  1427    1
  1171  1515  1514    1
  1172    83    81    2
  1173    30    40   ar
  1174   121   114   ar
  1175  1499  1486    1
  1176  1499  1502    1
  1177  1499  1500    1
  1178  1405  1404    1
  1179    10    11   ar
  1180    64    65    1
  1181   115   114   ar
  1182   115   116    2
  1183    47    51    1
  1184   111   110    1
  1185  1516  1514    1
  1186  1516  1517    2
  1187  1514  1513    2
  1188    97    96    2
  1189   106   103    1
  1190   106   107    1
  1191   103   104    1
  1192   103    89    1
  1193   110   112    1
  1194   110   108    1
  1195  1398  1397    2
  1196   114   113    1
  1197    59    58   ar
  1198    59    52   ar
  1199  1423  1427    1
  1200  1502  1503    1
  1201    17    18   ar
  1202    17    16   ar
  1203    32    33   ar
  1204    18    12   ar
  1205    58    56   ar
  1206  1429  1430   ar
  1207  1429  1428   ar
  1208  1427  1428    1
  1209  1430  1431   ar
  1210  1428  1438   ar
  1211    82    81    1
  1212  1517  1510    1
  1213  1513  1511    1
  1214  1048  1049    1
  1215  1431  1438   ar
  1216  1431  1432   ar
  1217  1438  1437   ar
  1218    81    84    1
  1219    81    68    1
  1220    50    51    1
  1221  1432  1433    2
  1222  1432  1434   ar
  1223  1437  1435   ar
  1224   112   113    1
  1225  1404  1402    1
  1226  1404  1406    1
  1227  1434  1435   ar
  1228  1435  1436    1
  1229  1195  1194    2
  1230    96    95    1
  1231    96    98    1
  1232    40    33   ar
  1233    40    39   ar
  1234    94    95   ar
  1235    94    93   ar
  1236  1505  1509    1
  1237  1505  1504    1
  1238   107   108    1
  1239    51    52    1
  1240  1049  1050    1
  1241  1401  1400    1
  1242  1401  1402    1
  1243    11    12   ar
  1244  1400  1397    1
  1245  1510  1511    2
  1246    52    53   ar
  1247  1511  1512    2
  1248  1397  1399    1
  1249  1397  1383    1
  1250   113   109    1
  1251   108   109    1
  1252    95   102   ar
  1253    65    67    1
  1254    65    66    1
  1255    33    34   ar
  1256    84    85    1
  1257    68    67    1
  1258  1216  1215    2
  1259    98    99    2
  1260    39    37   ar
  1261    12    13   ar
  1262    89    88    1
  1263    16    15   ar
  1264    67    69    1
  1265  1402  1403    1
  1266    56    57    1
  1267    56    55   ar
  1268    72    73   ar
  1269    72    71   ar
  1270    93    92   ar
  1271  1503  1504    1
  1272  1509  1508    1
  1273  1534  1533    1
  1274  1406  1407    1
  1275  1532  1533   ar
  1276  1532  1530   ar
  1277  1531  1530    2
  1278    73    74   ar
  1279  1504  1506    1
  1280    66    70    1
  1281  1217  1215    1
  1282    88    90    1
  1283    88    86    1
  1284  1533  1535   ar
  1285  1051  1050    1
  1286  1051  1055    1
  1287  1530  1529   ar
  1288  1057  1058   ar
  1289  1057  1056   ar
  1290  1198  1197    1
  1291  1198  1199    1
  1292   102    92   ar
  1293   102   101    1
  1294  1194  1197    1
  1295  1194  1183    1
  1296  1194  1196    1
  1297  1050  1052    1
  1298    99   101    1
  1299    99   100    2
  1300  1416  1414    1
  1301  1215  1202    1
  1302  1215  1218    1
  1303  1058  1059   ar
  1304    53    55   ar
  1305    53    54    2
  1306    92    91    1
  1307    85    86    1
  1308  1383  1382    1
  1309    90    91    1
  1310  1529  1536   ar
  1311  1529  1528    1
  1312  1415  1414   ar
  1313  1415  1408   ar
  1314  1535  1536   ar
  1315  1376  1375    2
  1316    34    36   ar
  1317    34    35    2
  1318    13    15   ar
  1319    13    14    1
  1320    37    36   ar
  1321    37    38    1
  1322  1414  1412   ar
  1323    71    70    1
  1324    71    80   ar
  1325  1403  1407    1
  1326   100  1309    1
  1327  1183  1182    1
  1328  1202  1201    1
  1329  1407  1408    1
  1330    70    69    1
  1331  1408  1409   ar
  1332  1528  1524    1
  1333  1528  1527    1
  1334  1056  1055    1
  1335  1056  1066   ar
  1336    86    87    1
  1337    74    80   ar
  1338    74    75   ar
  1339  1508  1506    1
  1340  1377  1375    1
  1341  1412  1413    2
  1342  1412  1411   ar
  1343  1055  1054    1
  1344  1524  1523    1
  1345    91    87    1
  1346  1506  1507    1
  1347    76    75    1
  1348  1199  1201    1
  1349  1199  1200    1
  1350  1409  1411   ar
  1351  1409  1410    2
  1352  1052  1053    1
  1353  1052  1054    1
  1354  1375  1378    1
  1355  1375  1364    1
  1356  1556  1555    1
  1357  1218  1219    1
  1358  1309  1308    2
  1359  1059  1066   ar
  1360  1059  1060   ar
  1361  1382  1380    1
  1362  1382  1384    1
  1363    80    79   ar
  1364  1201  1203    1
  1365    75    77   ar
  1366  1378  1379    1
  1367  1507  1518    1
  1368  1555  1554   ar
  1369  1555  1557   ar
  1370  1554  1552   ar
  1371  1234  1232    1
  1372  1310  1308   ar
  1373  1310  1311   ar
  1374  1066  1065   ar
  1375  1379  1380    1
  1376  1237  1235    2
  1377  1053  1067    1
  1378  1557  1558   ar
  1379  1553  1552    2
  1380  1552  1551   ar
  1381  1182  1180    1
  1382  1182  1184    1
  1383  1527  1525    1
  1384  1061  1060    2
  1385  1219  1220    1
  1386  1308  1307   ar
  1387  1060  1062   ar
  1388  1069  1067    2
  1389  1558  1551   ar
  1390  1558  1548   ar
  1391  1380  1381    1
  1392  1357  1356    2
  1393  1200  1204    1
  1394  1551  1550   ar
  1395  1523  1522    1
  1396  1523  1525    1
  1397  1176  1175    2
  1398  1180  1179    1
  1399  1180  1181    1
  1400  1179  1178    1
  1401  1384  1385    1
  1402  1311  1312   ar
  1403  1236  1235    1
  1404  1548  1547    1
  1405  1548  1549   ar
  1406    79    78   ar
  1407  1184  1185    1
  1408  1550  1549   ar
  1409  1521  1522    1
  1410  1521  1518    1
  1411  1547  1543    1
  1412  1547  1546    1
  1413    77    78   ar
  1414  1364  1363    1
  1415  1235  1223    1
  1416  1235  1238    1
  1417  1067  1068    1
  1418  1067  1070    1
  1419  1203  1204    1
  1420  1065  1063   ar
  1421  1525  1526    1
  1422  1232  1233   ar
  1423  1232  1230   ar
  1424  1520  1518    2
  1425  1358  1356    1
  1426  1518  1519    1
  1427  1543  1542    1
  1428  1083  1082    2
  1429  1356  1359    1
  1430  1356  1342    1
  1431  1223  1222    1
  1432  1080  1079   ar
  1433  1080  1081   ar
  1434  1233  1226   ar
  1435  1204  1205    1
  1436  1220  1222    1
  1437  1220  1221    1
  1438  1062  1063   ar
  1439  1289  1288    2
  1440  1222  1224    1
  1441  1307  1313   ar
  1442  1307  1306   ar
  1443  1381  1385    1
  1444  1387  1386   ar
  1445  1387  1388   ar
  1446  1175  1178    1
  1447  1175  1177    1
  1448  1175  1162    1
  1449  1151  1150    1
  1450  1270  1269    1
  1451  1385  1386    1
  1452  1181  1185    1
  1453  1386  1396   ar
  1454  1388  1389   ar
  1455  1063  1064    1
  1456  1206  1205   ar
  1457  1206  1207   ar
  1458  1546  1544    1
  1459  1335  1334    2
  1460  1231  1230    2
  1461  1312  1313   ar
  1462  1359  1360    1
  1463  1363  1361    1
  1464  1363  1365    1
  1465  1185  1186    1
  1466  1079  1078   ar
  1467  1230  1229   ar
  1468  1251  1250    1
  1469  1389  1396   ar
  1470  1389  1390   ar
  1471  1396  1395   ar
  1472  1070  1071    1
  1473  1205  1214   ar
  1474  1360  1361    1
  1475  1221  1225    1
  1476  1542  1541    1
  1477  1542  1544    1
  1478  1238  1239    1
  1479  1082  1081   ar
  1480  1082  1084   ar
  1481  1313  1304   ar
  1482  1306  1305   ar
  1483  1149  1150   ar
  1484  1149  1147   ar
  1485  1526  1537    1
  1486  1081  1088   ar
  1487  1395  1393   ar
  1488  1390  1391    2
  1489  1390  1392   ar
  1490  1252  1250   ar
  1491  1252  1253   ar
  1492  1162  1161    1
  1493  1336  1334    1
  1494  1207  1208   ar
  1495  1342  1341    1
  1496  1288  1287   ar
  1497  1288  1290   ar
  1498  1393  1392   ar
  1499  1393  1394    1
  1500  1150  1152   ar
  1501  1226  1225    1
  1502  1226  1227   ar
  1503  1315  1314    2
  1504  1361  1362    1
  1505  1148  1147    2
  1506  1541  1540    1
  1507  1287  1285   ar
  1508  1250  1249   ar
  1509  1334  1337    1
  1510  1334  1322    1
  1511  1269  1271   ar
  1512  1269  1268   ar
  1513  1105  1104    2
  1514  1544  1545    1
  1515  1224  1225    1
  1516  1071  1072    1
  1517  1365  1366    1
  1518  1271  1272   ar
  1519  1572  1571    2
  1520  1539  1537    2
  1521  1186  1193   ar
  1522  1186  1187   ar
  1523  1214  1208   ar
  1524  1214  1213   ar
  1525  1147  1146   ar
  1526  1188  1187    2
  1527  1078  1088   ar
  1528  1078  1077    1
  1529  1253  1246   ar
  1530  1229  1227   ar
  1531  1127  1126    1
  1532  1571  1573   ar
  1533  1571  1570   ar
  1534  1540  1537    1
  1535  1565  1569    1
  1536  1565  1564    1
  1537  1084  1085   ar
  1538  1239  1240    1
  1539  1573  1574   ar
  1540  1305  1304   ar
  1541  1537  1538    1
  1542  1088  1087   ar
  1543  1073  1072    1
  1544  1073  1077    1
  1545  1208  1209   ar
  1546  1292  1290    1
  1547  1569  1570    1
  1548  1569  1568    1
  1549  1304  1303    1
  1550  1337  1338    1
  1551  1570  1577   ar
  1552  1290  1291   ar
  1553  1227  1228    2
  1554  1574  1575    2
  1555  1574  1576   ar
  1556  1163  1161    1
  1557  1163  1164    1
  1558  1193  1192   ar
  1559  1161  1159    1
  1560  1187  1189   ar
  1561  1374  1373   ar
  1562  1374  1367   ar
  1563  1341  1339    1
  1564  1341  1343    1
  1565  1338  1339    1
  1566  1152  1153   ar
  1567  1545  1559    1
  1568  1213  1212   ar
  1569  1373  1371   ar
  1570  1577  1576   ar
  1571  1268  1266   ar
  1572  1302  1303    1
  1573  1302  1300    1
  1574  1576  1578    1
  1575  1256  1254    1
  1576  1285  1286    2
  1577  1285  1284   ar
  1578  1362  1366    1
  1579  1367  1366    1
  1580  1367  1368   ar
  1581  1072  1074    1
  1582  1104  1103   ar
  1583  1104  1106   ar
  1584  1249  1247   ar
  1585  1322  1321    1
  1586  1314  1316    1
  1587  1314  1301    1
  1588  1314  1317    1
  1589  1077  1076    1
  1590  1102  1103   ar
  1591  1102  1101   ar
  1592  1371  1372    1
  1593  1371  1370   ar
  1594  1272  1265   ar
  1595  1303  1299    1
  1596  1368  1370   ar
  1597  1368  1369    2
  1598  1316  1301    1
  1599  1085  1087   ar
  1600  1085  1086    1
  1601  1564  1563    1
  1602  1564  1566    1
  1603  1339  1340    1
  1604  1246  1247   ar
  1605  1246  1245    1
  1606  1241  1240    1
  1607  1241  1245    1
  1608  1126  1128   ar
  1609  1126  1125   ar
  1610  1146  1153   ar
  1611  1146  1145   ar
  1612  1209  1210    1
  1613  1209  1211   ar
  1614  1128  1129   ar
  1615  1295  1293    2
  1616  1240  1242    1
  1617  1103  1110   ar
  1618  1159  1158    1
  1619  1159  1160    1
  1620  1300  1298    1
  1621  1153  1143   ar
  1622  1074  1076    1
  1623  1074  1075    1
  1624  1568  1566    1
  1625  1291  1284   ar
  1626  1563  1562    1
  1627  1212  1211   ar
  1628  1192  1190   ar
  1629  1106  1107   ar
  1630  1254  1255    2
  1631  1189  1190   ar
  1632  1343  1344    1
  1633  1247  1248    2
  1634  1284  1283    1
  1635  1598  1597    1
  1636  1242  1243    1
  1637  1242  1244    1
  1638  1164  1160    1
  1639  1164  1165    1
  1640  1562  1559    1
  1641  1173  1172   ar
  1642  1173  1174   ar
  1643  1596  1597   ar
  1644  1596  1594   ar
  1645  1266  1265   ar
  1646  1266  1267    2
  1647  1317  1318    1
  1648  1595  1594    2
  1649  1091  1089    2
  1650  1321  1319    1
  1651  1321  1323    1
  1652  1101  1100   ar
  1653  1559  1561    2
  1654  1559  1560    1
  1655  1245  1244    1
  1656  1597  1599   ar
  1657  1158  1157    1
  1658  1172  1171   ar
  1659  1265  1264    1
  1660  1318  1319    1
  1661  1594  1593   ar
  1662  1190  1191    1
  1663  1299  1298    1
  1664  1296  1293    1
  1665  1296  1297    1
  1666  1263  1264    1
  1667  1263  1261    1
  1668  1566  1567    1
  1669  1257  1243    1
  1670  1257  1258    1
  1671  1145  1144   ar
  1672  1599  1600   ar
  1673  1125  1124   ar
  1674  1125  1131   ar
  1675  1075  1089    1
  1676  1340  1344    1
  1677  1129  1130   ar
  1678  1593  1600   ar
  1679  1593  1592   ar
  1680  1293  1294    1
  1681  1293  1281    1
  1682  1275  1273    2
  1683  1600  1590   ar
  1684  1174  1165   ar
  1685  1174  1168   ar
  1686  1319  1320    1
  1687  1110  1100   ar
  1688  1110  1109   ar
  1689  1089  1092    1
  1690  1089  1090    1
  1691  1298  1297    1
  1692  1165  1166   ar
  1693  1124  1123   ar
  1694  1346  1347   ar
  1695  1346  1345   ar
  1696  1143  1144   ar
  1697  1143  1142    1
  1698  1344  1345    1
  1699  1282  1283    1
  1700  1282  1280    1
  1701  1107  1109   ar
  1702  1107  1108    1
  1703  1592  1591   ar
  1704  1283  1279    1
  1705  1347  1348   ar
  1706  1264  1260    1
  1707  1171  1169   ar
  1708  1100  1099    1
  1709  1323  1324    1
  1710  1345  1355   ar
  1711  1590  1591   ar
  1712  1590  1589    1
  1713  1092  1093    1
  1714  1567  1579    1
  1715  1157  1154    1
  1716  1141  1142    1
  1717  1141  1139    1
  1718  1280  1281    1
  1719  1280  1278    1
  1720  1261  1259    1
  1721  1261  1262    1
  1722  1348  1355   ar
  1723  1348  1349   ar
  1724  1589  1585    1
  1725  1589  1588    1
  1726  1355  1354   ar
  1727  1585  1584    1
  1728  1131  1130   ar
  1729  1131  1122   ar
  1730  1142  1138    1
  1731  1168  1169   ar
  1732  1168  1167   ar
  1733  1333  1331    1
  1734  1166  1167   ar
  1735  1258  1259    1
  1736  1276  1273    1
  1737  1276  1277    1
  1738  1260  1259    1
  1739  1169  1170    1
  1740  1349  1350    2
  1741  1349  1351   ar
  1742  1354  1352   ar
  1743  1279  1278    1
  1744  1273  1262    1
  1745  1273  1274    1
  1746  1156  1154    2
  1747  1320  1324    1
  1748  1332  1331   ar
  1749  1332  1325   ar
  1750  1123  1122   ar
  1751  1093  1094    1
  1752  1331  1329   ar
  1753  1351  1352   ar
  1754  1352  1353    1
  1755  1099  1095    1
  1756  1099  1098    1
  1757  1324  1325    1
  1758  1095  1094    1
  1759  1139  1140    1
  1760  1139  1137    1
  1761  1278  1277    1
  1762  1154  1140    1
  1763  1154  1155    1
  1764  1325  1326   ar
  1765  1122  1121    1
  1766  1579  1581    2
  1767  1579  1582    1
  1768  1579  1580    1
  1769  1098  1096    1
  1770  1588  1586    1
  1771  1584  1583    1
  1772  1584  1586    1
  1773  1329  1330    2
  1774  1329  1328   ar
  1775  1619  1618   ar
  1776  1619  1620   ar
  1777  1138  1137    1
  1778  1094  1096    1
  1779  1582  1583    1
  1780  1618  1616   ar
  1781  1620  1621   ar
  1782  1096  1097    1
  1783  1326  1328   ar
  1784  1326  1327    2
  1785  1113  1111    2
  1786  1616  1617    1
  1787  1616  1615   ar
  1788  1621  1615   ar
  1789  1621  1612   ar
  1790  1137  1136    1
  1791  1615  1614   ar
  1792  1586  1587    1
  1793  1612  1611    1
  1794  1612  1613   ar
  1795  1611  1607    1
  1796  1611  1610    1
  1797  1121  1120    1
  1798  1121  1117    1
  1799  1614  1613   ar
  1800  1135  1136    1
  1801  1135  1132    1
  1802  1607  1606    1
  1803  1120  1118    1
  1804  1097  1111    1
  1805  1134  1132    2
  1806  1111  1114    1
  1807  1111  1112    1
  1808  1114  1115    1
  1809  1632  1628    1
  1810  1632  1631    1
  1811  1640  1639    1
  1812  1640  1641    2
  1813  1117  1116    1
  1814  1639  1637    2
  1815  1118  1116    1
  1816  1118  1119    1
  1817  1587  1601    1
  1818  1610  1608    1
  1819  1641  1642    1
  1820  1628  1627    1
  1821  1132  1119    1
  1822  1132  1133    1
  1823  1637  1638    1
  1824  1637  1636    1
  1825  1606  1608    1
  1826  1606  1605    1
  1827  1631  1629    1
  1828  1116  1115    1
  1829  1642  1636    1
  1830  1642  1633    2
  1831  1636  1635    1
  1832  1601  1603    2
  1833  1601  1604    1
  1834  1601  1602    1
  1835  1633  1634    1
  1836  1608  1609    1
  1837  1635  1634    2
  1838  1605  1604    1
  1839  1627  1629    1
  1840  1627  1626    1
  1841  1629  1630    1
  1842  1625  1626    1
  1843  1625  1622    1
  1844  1609  1622    1
  1845  1622  1624    2
  1846  1622  1623    1
