@<TRIPOS>MOLECULE
dna.pdb
 1379 1562 0 0 0
SMALL
GASTEIGER

@<TRIPOS>ATOM
      1  O5'       12.0890   20.7260   17.8120 O.3     1  DG1        -0.2176
      2  C5'       13.1170   20.2850   18.6850 C.3     1  DG1         0.2140
      3  C4'       12.5410   19.9090   20.0260 C.3     1  DG1         0.1776
      4  O4'       12.1160   21.1080   20.7270 O.3     1  DG1        -0.3326
      5  C3'       11.2750   19.0690   19.9780 C.3     1  DG1         0.1559
      6  O3'       11.4930   17.6950   19.7070 O.3     1  DG1        -0.3138
      7  C2'       10.6580   19.3460   21.3420 C.3     1  DG1         0.0865
      8  C1'       10.9460   20.8390   21.4720 C.3     1  DG1         0.2094
      9  N9         9.8280   21.7350   20.8660 N.ar    1  DG1        -0.2713
     10  C8         9.7150   22.3290   19.6330 C.ar    1  DG1         0.1816
     11  N7         8.5720   22.9350   19.4550 N.ar    1  DG1        -0.2173
     12  C5         7.8890   22.7330   20.6400 C.ar    1  DG1         0.1748
     13  C6         6.5950   23.1530   21.0430 C.ar    1  DG1         0.3023
     14  O6         5.7700   23.8140   20.4000 O.2     1  DG1        -0.2633
     15  N1         6.2890   22.7290   22.3330 N.ar    1  DG1        -0.1709
     16  C2         7.1260   21.9920   23.1360 C.ar    1  DG1         0.2606
     17  N2         6.6550   21.6790   24.3510 N.pl3   1  DG1        -0.0859
     18  N3         8.3300   21.5940   22.7760 N.ar    1  DG1        -0.1918
     19  C4         8.6490   21.9930   21.5260 C.ar    1  DG1         0.1722
     20  P         10.2490   16.8020   18.9400 P.3     2  DG2         0.2141
     21  OP1       11.0430   15.5640   18.7570 O.3     2  DG2        -0.4373
     22  OP2        9.6410   17.4790   17.7720 O.2     2  DG2        -0.5172
     23  O5'        9.0180   16.5620   19.9430 O.3     2  DG2        -0.3114
     24  C5'        9.1260   15.6560   21.0360 C.3     2  DG2         0.1811
     25  C4'        8.0550   15.8430   22.0930 C.3     2  DG2         0.1746
     26  O4'        7.9250   17.2470   22.4390 O.3     2  DG2        -0.3327
     27  C3'        6.6300   15.4190   21.7460 C.3     2  DG2         0.1558
     28  O3'        6.3950   14.0260   21.8570 O.3     2  DG2        -0.3138
     29  C2'        5.7990   16.2340   22.7260 C.3     2  DG2         0.0865
     30  C1'        6.5860   17.5390   22.7790 C.3     2  DG2         0.2094
     31  N9         6.1400   18.6050   21.8300 N.ar    2  DG2        -0.2713
     32  C8         6.7070   19.0460   20.6590 C.ar    2  DG2         0.1816
     33  N7         6.0400   20.0160   20.0960 N.ar    2  DG2        -0.2173
     34  C5         4.9690   20.2320   20.9430 C.ar    2  DG2         0.1748
     35  C6         3.8970   21.1580   20.8580 C.ar    2  DG2         0.3023
     36  O6         3.6820   22.0030   19.9800 O.2     2  DG2        -0.2633
     37  N1         3.0220   21.0400   21.9340 N.ar    2  DG2        -0.1709
     38  C2         3.1610   20.1410   22.9640 C.ar    2  DG2         0.2606
     39  N2         2.2160   20.1780   23.9130 N.pl3   2  DG2        -0.0859
     40  N3         4.1500   19.2740   23.0560 N.ar    2  DG2        -0.1918
     41  C4         5.0120   19.3700   22.0210 C.ar    2  DG2         0.1722
     42  P          5.4090   13.1890   20.7290 P.3     3  DG3         0.2141
     43  OP1        5.4900   11.7160   20.9210 O.3     3  DG3        -0.4373
     44  OP2        5.2460   13.7530   19.3570 O.2     3  DG3        -0.5172
     45  O5'        4.1940   13.7190   21.6030 O.3     3  DG3        -0.3114
     46  C5'        4.0350   13.2690   22.9330 C.3     3  DG3         0.1811
     47  C4'        2.7110   13.7190   23.4510 C.3     3  DG3         0.1746
     48  O4'        2.7390   15.1590   23.5220 O.3     3  DG3        -0.3327
     49  C3'        1.5330   13.3990   22.5530 C.3     3  DG3         0.1558
     50  O3'        1.0050   12.1060   22.8080 O.3     3  DG3        -0.3138
     51  C2'        0.5480   14.4880   22.9360 C.3     3  DG3         0.0865
     52  C1'        1.4790   15.6780   23.1550 C.3     3  DG3         0.2094
     53  N9         1.6750   16.5840   21.9800 N.ar    3  DG3        -0.2713
     54  C8         2.6470   16.4830   21.0140 C.ar    3  DG3         0.1816
     55  N7         2.5110   17.3560   20.0540 N.ar    3  DG3        -0.2173
     56  C5         1.3850   18.0780   20.4030 C.ar    3  DG3         0.1748
     57  C6         0.7400   19.1580   19.7470 C.ar    3  DG3         0.3023
     58  O6         1.0570   19.7090   18.6850 O.2     3  DG3        -0.2633
     59  N1        -0.3800   19.5990   20.4470 N.ar    3  DG3        -0.1709
     60  C2        -0.8240   19.0640   21.6320 C.ar    3  DG3         0.2606
     61  N2        -1.9230   19.6240   22.1580 N.pl3   3  DG3        -0.0859
     62  N3        -0.2370   18.0610   22.2530 N.ar    3  DG3        -0.1918
     63  C4         0.8530   17.6160   21.5910 C.ar    3  DG3         0.1722
     64  P          0.0460   11.3060   21.6610 P.3     4  DA4         0.2141
     65  OP1       -0.1940    9.8780   21.9650 O.3     4  DA4        -0.4373
     66  OP2        0.9920   11.6630   20.5770 O.2     4  DA4        -0.5172
     67  O5'       -1.3760   12.0170   21.4370 O.3     4  DA4        -0.3114
     68  C5'       -2.2500   12.1590   22.5520 C.3     4  DA4         0.1811
     69  C4'       -3.2330   13.3040   22.3770 C.3     4  DA4         0.1746
     70  O4'       -2.5410   14.5780   22.3260 O.3     4  DA4        -0.3327
     71  C3'       -4.0290   13.3110   21.0840 C.3     4  DA4         0.1558
     72  O3'       -5.0860   12.3670   21.1070 O.3     4  DA4        -0.3138
     73  C2'       -4.5530   14.7440   21.0810 C.3     4  DA4         0.0865
     74  C1'       -3.3110   15.4960   21.5630 C.3     4  DA4         0.2093
     75  N9        -2.4890   15.9400   20.4110 N.ar    4  DA4        -0.2739
     76  C8        -1.2890   15.4300   19.9880 C.ar    4  DA4         0.1811
     77  N7        -0.7650   16.0820   18.9780 N.ar    4  DA4        -0.2237
     78  C5        -1.6830   17.0870   18.7180 C.ar    4  DA4         0.1297
     79  C6        -1.7120   18.1190   17.7640 C.3     4  DA4         0.2267
     80  N6        -0.7510   18.3150   16.8580 N.3     4  DA4        -0.1024
     81  N1        -2.7740   18.9520   17.7740 N.pl3   4  DA4        -0.1829
     82  C2        -3.7360   18.7550   18.6830 C.3     4  DA4         0.2872
     83  N3        -3.8210   17.8230   19.6290 N.pl3   4  DA4        -0.1806
     84  C4        -2.7510   17.0110   19.5920 C.ar    4  DA4         0.1512
     85  P         -5.4310   11.7410   19.8170 P.3     5  DG5         0.2141
     86  OP1       -6.6400   10.8860   19.9100 O.3     5  DG5        -0.4373
     87  OP2       -4.2530   11.2840   19.0500 O.2     5  DG5        -0.5172
     88  O5'       -5.8420   13.1720   19.2520 O.3     5  DG5        -0.3114
     89  C5'       -6.9870   13.8750   19.7500 C.3     5  DG5         0.1811
     90  C4'       -7.5530   14.8100   18.6860 C.3     5  DG5         0.1746
     91  O4'       -6.7360   16.0040   18.5260 O.3     5  DG5        -0.3327
     92  C3'       -7.6370   14.2430   17.2780 C.3     5  DG5         0.1558
     93  O3'       -8.7700   13.4140   17.1120 O.3     5  DG5        -0.3138
     94  C2'       -7.6860   15.4870   16.4030 C.3     5  DG5         0.0865
     95  C1'       -6.7720   16.4400   17.1720 C.3     5  DG5         0.2094
     96  N9        -5.6170   16.7230   17.0370 N.ar    5  DG5        -0.2713
     97  C8        -4.7210   15.6830   17.0980 C.ar    5  DG5         0.1816
     98  N7        -3.7340   15.8020   16.2520 N.ar    5  DG5        -0.2173
     99  C5        -3.9890   16.9900   15.5920 C.ar    5  DG5         0.1748
    100  C6        -3.2690   17.6470   14.5610 C.ar    5  DG5         0.3023
    101  O6        -2.2210   17.2880   14.0110 O.2     5  DG5        -0.2633
    102  N1        -3.8820   18.8360   14.1750 N.ar    5  DG5        -0.1709
    103  C2        -5.0440   19.3320   14.7160 C.ar    5  DG5         0.2606
    104  N2        -5.4800   20.4950   14.2140 N.pl3   5  DG5        -0.0859
    105  N3        -5.7240   18.7330   15.6730 N.ar    5  DG5        -0.1918
    106  C4        -5.1490   17.5750   16.0640 C.ar    5  DG5         0.1722
    107  P         -8.5510   11.7690   16.3300 P.3     6  DG6         0.2141
    108  OP1       -9.3770   10.5800   16.0180 O.2     6  DG6        -0.5172
    109  OP2       -7.0730   11.6970   16.3290 O.3     6  DG6        -0.4373
    110  O5'       -8.8610   12.8990   15.2410 O.3     6  DG6        -0.3114
    111  C5'      -10.1590   13.0490   14.6850 C.3     6  DG6         0.1811
    112  C4'      -10.4170   14.4910   14.3270 C.3     6  DG6         0.1746
    113  O4'       -9.4050   15.3040   14.9730 O.3     6  DG6        -0.3327
    114  C3'      -10.3060   14.8750   12.8580 C.3     6  DG6         0.1558
    115  O3'      -11.4870   14.6060   12.1230 O.3     6  DG6        -0.3138
    116  C2'      -10.0040   16.3610   12.9460 C.3     6  DG6         0.0865
    117  C1'       -9.0880   16.4110   14.1670 C.3     6  DG6         0.2094
    118  N9        -7.6930   16.4020   13.7090 N.ar    6  DG6        -0.2713
    119  C8        -6.8070   15.3840   13.9650 C.ar    6  DG6         0.1816
    120  N7        -5.5820   15.6660   13.6130 N.ar    6  DG6        -0.2173
    121  C5        -5.6600   16.9460   13.0960 C.ar    6  DG6         0.1748
    122  C6        -4.6530   17.7850   12.5530 C.ar    6  DG6         0.3023
    123  O6        -3.4460   17.5460   12.4200 O.2     6  DG6        -0.2633
    124  N1        -5.1650   19.0120   12.1400 N.ar    6  DG6        -0.1709
    125  C2        -6.4840   19.3850   12.2380 C.ar    6  DG6         0.2606
    126  N2        -6.7870   20.6100   11.7870 N.pl3   6  DG6        -0.0859
    127  N3        -7.4300   18.6160   12.7400 N.ar    6  DG6        -0.1918
    128  C4        -6.9570   17.4190   13.1470 C.ar    6  DG6         0.1722
    129  P        -11.4800   14.5830   10.6910 P.3     7  DA7         0.2141
    130  OP1      -12.8690   14.0590   10.7250 O.3     7  DA7        -0.4373
    131  OP2      -10.3560   13.6760   10.3470 O.2     7  DA7        -0.5172
    132  O5'      -11.4360   15.8470    9.7310 O.3     7  DA7        -0.3114
    133  C5'      -12.2160   16.9830   10.0500 C.3     7  DA7         0.1811
    134  C4'      -11.4820   18.2560    9.7220 C.3     7  DA7         0.1746
    135  O4'      -10.2500   18.3780   10.4850 O.3     7  DA7        -0.3327
    136  C3'      -10.9880   18.4520    8.3090 C.3     7  DA7         0.1558
    137  O3'      -12.0250   18.6940    7.3970 O.3     7  DA7        -0.3138
    138  C2'      -10.0420   19.6210    8.4840 C.3     7  DA7         0.0865
    139  C1'       -9.3540   19.2380    9.7880 C.3     7  DA7         0.2094
    140  N9        -8.1250   18.5490    9.4310 N.ar    7  DA7        -0.2714
    141  C8        -7.8600   17.2440    9.7560 C.ar    7  DA7         0.1815
    142  N7        -6.6030   16.9040    9.5940 N.ar    7  DA7        -0.2193
    143  C5        -6.0030   18.0630    9.1290 C.ar    7  DA7         0.1518
    144  C6        -4.6780   18.3620    8.7660 C.ar    7  DA7         0.1919
    145  N6        -3.6790   17.4770    8.8180 N.pl3   7  DA7        -0.1054
    146  N1        -4.4120   19.6160    8.3420 N.ar    7  DA7        -0.2040
    147  C2        -5.4130   20.5030    8.2920 C.ar    7  DA7         0.2016
    148  N3        -6.6960   20.3410    8.6070 N.ar    7  DA7        -0.2048
    149  C4        -6.9280   19.0840    9.0230 C.ar    7  DA7         0.1691
    150  P        -12.2010   17.7030    6.1570 P.3     8  DC8         0.2141
    151  OP1      -13.4160   17.8840    5.3270 O.2     8  DC8        -0.5172
    152  OP2      -11.5820   16.3590    6.2710 O.3     8  DC8        -0.4373
    153  O5'      -11.0780   18.7080    5.6630 O.3     8  DC8        -0.3114
    154  C5'      -11.2730   20.1060    5.7860 C.3     8  DC8         0.1811
    155  C4'      -10.0330   20.8370    5.3640 C.3     8  DC8         0.1746
    156  O4'       -9.0430   20.7990    6.4200 O.3     8  DC8        -0.3327
    157  C3'       -9.3140   20.2510    4.1630 C.3     8  DC8         0.1558
    158  O3'       -9.9050   20.5940    2.9210 O.3     8  DC8        -0.3138
    159  C2'       -7.9020   20.7950    4.3270 C.3     8  DC8         0.0866
    160  C1'       -7.7440   20.7740    5.8460 C.3     8  DC8         0.2106
    161  N1        -7.0470   19.5730    6.2760 N.ar    8  DC8        -0.2556
    162  C2        -5.6530   19.5850    6.1510 C.ar    8  DC8         0.3531
    163  O2        -5.0910   20.6430    5.8210 O.2     8  DC8        -0.2443
    164  N3        -4.9600   18.4470    6.3910 N.ar    8  DC8        -0.1739
    165  C4        -5.6050   17.3340    6.7420 C.ar    8  DC8         0.1759
    166  N4        -4.8800   16.2360    6.9690 N.pl3   8  DC8        -0.1070
    167  C5        -7.0170   17.3010    6.8740 C.ar    8  DC8         0.0566
    168  C6        -7.6980   18.4270    6.6360 C.ar    8  DC8         0.0849
    169  P         -9.6760   19.6420    1.5880 P.3     9  DG9         0.2141
    170  OP1      -10.6690   20.7340    1.4200 O.3     9  DG9        -0.4373
    171  OP2       -9.3330   18.7900    0.4220 O.2     9  DG9        -0.5172
    172  O5'       -8.3050   20.2740    2.1090 O.3     9  DG9        -0.3114
    173  C5'       -7.9000   21.5810    1.6750 C.3     9  DG9         0.1812
    174  C4'       -6.5900   21.5170    0.9120 C.3     9  DG9         0.1775
    175  O4'       -5.4800   21.2990    1.8180 O.3     9  DG9        -0.3326
    176  C3'       -6.5100   20.4300   -0.1470 C.3     9  DG9         0.1864
    177  O3'       -7.1400   20.8950   -1.3580 O.3     9  DG9        -0.2133
    178  C2'       -5.0220   20.0410   -0.1710 C.3     9  DG9         0.0894
    179  C1'       -4.5690   20.3770    1.2540 C.3     9  DG9         0.2095
    180  N9        -4.1740   19.1020    1.7880 N.ar    9  DG9        -0.2713
    181  C8        -4.7530   17.9580    2.2810 C.ar    9  DG9         0.1816
    182  N7        -3.9820   17.3050    3.1070 N.ar    9  DG9        -0.2173
    183  C5        -2.8260   18.0600    3.1670 C.ar    9  DG9         0.1748
    184  C6        -1.6270   17.8560    3.8970 C.ar    9  DG9         0.3023
    185  O6        -1.3460   16.9270    4.6650 O.2     9  DG9        -0.2633
    186  N1        -0.6990   18.8680    3.6680 N.ar    9  DG9        -0.1709
    187  C2        -0.9020   19.9450    2.8380 C.ar    9  DG9         0.2606
    188  N2         0.1100   20.8180    2.7450 N.pl3   9  DG9        -0.0859
    189  N3        -2.0100   20.1470    2.1520 N.ar    9  DG9        -0.1918
    190  C4        -2.9250   19.1760    2.3580 C.ar    9  DG9         0.1722
    191  P         -6.1360   21.7060   -2.5540 P.3    10  DA10        0.3939
    192  OP1       -7.5890   22.0170   -2.5050 O.3    10  DA10       -0.1496
    193  OP2       -5.5230   21.2730   -3.8400 O.3    10  DA10       -0.1425
    194  O5'       -5.3340   22.9840   -2.0460 O.3    10  DA10       -0.2926
    195  C5'       -5.8220   24.2770   -2.3800 C.3    10  DA10        0.1828
    196  C4'       -4.6970   25.2690   -2.5640 C.3    10  DA10        0.1747
    197  O4'       -4.2160   25.7340   -1.2830 O.3    10  DA10       -0.3327
    198  C3'       -3.4350   24.8490   -3.2980 C.3    10  DA10        0.1558
    199  O3'       -3.6250   24.8290   -4.7160 O.3    10  DA10       -0.3138
    200  C2'       -2.4740   25.9670   -2.8910 C.3    10  DA10        0.0865
    201  C1'       -2.9050   26.2460   -1.4430 C.3    10  DA10        0.2094
    202  N9        -2.1310   25.6520   -0.2390 N.ar   10  DA10       -0.2714
    203  C8        -2.6520   24.7810    0.6810 C.ar   10  DA10        0.1815
    204  N7        -1.8540   24.5400    1.6940 N.ar   10  DA10       -0.2193
    205  C5        -0.7310   25.3050    1.4200 C.ar   10  DA10        0.1518
    206  C6         0.4800   25.4890    2.1110 C.ar   10  DA10        0.1919
    207  N6         0.7690   24.8910    3.2690 N.pl3  10  DA10       -0.1054
    208  N1         1.3930   26.3200    1.5640 N.ar   10  DA10       -0.2040
    209  C2         1.1020   26.9200    0.4040 C.ar   10  DA10        0.2016
    210  N3         0.0010   26.8270   -0.3380 N.ar   10  DA10       -0.2048
    211  C4        -0.8860   25.9940    0.2320 C.ar   10  DA10        0.1691
    212  P         -2.9500   23.7990   -5.5290 P.3    11  DA11        0.2141
    213  OP1       -3.4550   23.4020   -6.8620 O.2    11  DA11       -0.5172
    214  OP2       -3.1450   22.9390   -4.3330 O.3    11  DA11       -0.4373
    215  O5'       -1.3750   24.0300   -5.6300 O.3    11  DA11       -0.3114
    216  C5'       -0.9860   25.3140   -6.0950 C.3    11  DA11        0.1811
    217  C4'        0.3200   25.7420   -5.4830 C.3    11  DA11        0.1746
    218  O4'        0.1570   26.0660   -4.0770 O.3    11  DA11       -0.3327
    219  C3'        1.4050   24.6830   -5.4790 C.3    11  DA11        0.1558
    220  O3'        2.0110   24.5230   -6.7450 O.3    11  DA11       -0.3138
    221  C2'        2.3530   25.2310   -4.4280 C.3    11  DA11        0.0865
    222  C1'        1.3630   25.7780   -3.3960 C.3    11  DA11        0.2094
    223  N9         1.1930   24.7450   -2.3490 N.ar   11  DA11       -0.2714
    224  C8         0.1040   23.9420   -2.1290 C.ar   11  DA11        0.1815
    225  N7         0.1970   23.2120   -1.0430 N.ar   11  DA11       -0.2193
    226  C5         1.4300   23.5570   -0.5150 C.ar   11  DA11        0.1518
    227  C6         2.1190   23.1330    0.6350 C.ar   11  DA11        0.1919
    228  N6         1.6380   22.2310    1.4940 N.pl3  11  DA11       -0.1054
    229  N1         3.3320   23.6750    0.8740 N.ar   11  DA11       -0.2040
    230  C2         3.8120   24.5800    0.0140 C.ar   11  DA11        0.2016
    231  N3         3.2600   25.0580   -1.0990 N.ar   11  DA11       -0.2048
    232  C4         2.0560   24.5000   -1.3090 C.ar   11  DA11        0.1691
    233  P          2.3800   23.0740   -7.3170 P.3    12  DG12        0.2141
    234  OP1        2.9020   23.0320   -8.7060 O.2    12  DG12       -0.5172
    235  OP2        1.6280   21.9040   -6.7790 O.3    12  DG12       -0.4373
    236  O5'        3.5980   23.3960   -6.3400 O.3    12  DG12       -0.3114
    237  C5'        4.7000   24.2090   -6.7770 C.3    12  DG12        0.1811
    238  C4'        5.9140   23.9650   -5.9070 C.3    12  DG12        0.1746
    239  O4'        5.5870   24.2920   -4.5290 O.3    12  DG12       -0.3327
    240  C3'        6.4160   22.5330   -5.8290 C.3    12  DG12        0.1558
    241  O3'        7.2400   22.1730   -6.9290 O.3    12  DG12       -0.3138
    242  C2'        7.1840   22.5420   -4.5170 C.3    12  DG12        0.0865
    243  C1'        6.2620   23.4000   -3.6520 C.3    12  DG12        0.2094
    244  N9         5.1960   22.5570   -2.9410 N.ar   12  DG12       -0.2713
    245  C8         3.9100   22.1740   -3.2380 C.ar   12  DG12        0.1816
    246  N7         3.4450   21.2610   -2.4290 N.ar   12  DG12       -0.2173
    247  C5         4.4810   21.0270   -1.5430 C.ar   12  DG12        0.1748
    248  C6         4.5700   20.1390   -0.4410 C.ar   12  DG12        0.3023
    249  O6         3.7110   19.3550   -0.0170 O.2    12  DG12       -0.2633
    250  N1         5.8080   20.2170    0.1910 N.ar   12  DG12       -0.1709
    251  C2         6.8330   21.0480   -0.1910 C.ar   12  DG12        0.2606
    252  N2         7.9520   20.9830    0.5430 N.pl3  12  DG12       -0.0859
    253  N3         6.7650   21.8780   -1.2130 N.ar   12  DG12       -0.1918
    254  C4         5.5730   21.8190   -1.8430 C.ar   12  DG12        0.1722
    255  P          7.0500   20.7430   -7.6170 P.3    13  DC13        0.2141
    256  OP1        8.1200   20.8170   -8.6490 O.2    13  DC13       -0.5172
    257  OP2        5.8520   19.8930   -7.8590 O.3    13  DC13       -0.4373
    258  O5'        7.7760   20.2980   -6.2700 O.3    13  DC13       -0.3114
    259  C5'        8.9990   20.9320   -5.8860 C.3    13  DC13        0.1811
    260  C4'        9.6740   20.1670   -4.7780 C.3    13  DC13        0.1746
    261  O4'        8.9190   20.2880   -3.5490 O.3    13  DC13       -0.3327
    262  C3'        9.8100   18.6740   -4.9710 C.3    13  DC13        0.1558
    263  O3'       10.8940   18.3530   -5.8160 O.3    13  DC13       -0.3138
    264  C2'       10.0500   18.1950   -3.5470 C.3    13  DC13        0.0866
    265  C1'        9.1340   19.1330   -2.7580 C.3    13  DC13        0.2106
    266  N1         7.8350   18.4100   -2.5050 N.ar   13  DC13       -0.2556
    267  C2         7.7440   17.5090   -1.4380 C.ar   13  DC13        0.3531
    268  O2         8.7620   17.2740   -0.7660 O.2    13  DC13       -0.2443
    269  N3         6.5530   16.9210   -1.1710 N.ar   13  DC13       -0.1739
    270  C4         5.4870   17.2040   -1.9200 C.ar   13  DC13        0.1759
    271  N4         4.3350   16.6000   -1.6200 N.pl3  13  DC13       -0.1070
    272  C5         5.5580   18.1140   -3.0060 C.ar   13  DC13        0.0566
    273  C6         6.7360   18.6920   -3.2660 C.ar   13  DC13        0.0849
    274  P         10.7150   17.2030   -6.6810 P.3    14  DG14        0.2141
    275  OP1       11.5810   17.3070   -7.8910 O.2    14  DG14       -0.5172
    276  OP2        9.4670   16.3790   -6.7350 O.3    14  DG14       -0.4373
    277  O5'       11.6010   16.6390   -5.4870 O.3    14  DG14       -0.3114
    278  C5'       11.9440   15.2830   -5.4850 C.3    14  DG14        0.1811
    279  C4'       12.1160   14.7670   -4.0880 C.3    14  DG14        0.1746
    280  O4'       11.0950   15.2910   -3.1990 O.3    14  DG14       -0.3327
    281  C3'       11.8820   13.2800   -4.0470 C.3    14  DG14        0.1558
    282  O3'       13.0040   12.5980   -4.5690 O.3    14  DG14       -0.3138
    283  C2'       11.5390   13.0390   -2.5840 C.3    14  DG14        0.0865
    284  C1'       10.6970   14.2800   -2.2800 C.3    14  DG14        0.2094
    285  N9         9.2750   13.9250   -2.4870 N.ar   14  DG14       -0.2713
    286  C8         8.4630   14.3320   -3.5180 C.ar   14  DG14        0.1816
    287  N7         7.2080   14.0200   -3.3400 N.ar   14  DG14       -0.2173
    288  C5         7.1860   13.3710   -2.1190 C.ar   14  DG14        0.1748
    289  C6         6.1070   12.8000   -1.3970 C.ar   14  DG14        0.3023
    290  O6         4.9110   12.7580   -1.7120 O.2    14  DG14       -0.2633
    291  N1         6.5260   12.2360   -0.1950 N.ar   14  DG14       -0.1709
    292  C2         7.8250   12.2240    0.2550 C.ar   14  DG14        0.2606
    293  N2         8.0340   11.6340    1.4400 N.pl3  14  DG14       -0.0859
    294  N3         8.8380   12.7500   -0.4050 N.ar   14  DG14       -0.1918
    295  C4         8.4540   13.3020   -1.5760 C.ar   14  DG14        0.1722
    296  P         12.8480   11.3460   -5.6470 P.3    15  DG15        0.2141
    297  OP1       13.6790   11.1180   -6.8520 O.2    15  DG15       -0.5172
    298  OP2       11.3840   11.5830   -5.7550 O.3    15  DG15       -0.4373
    299  O5'       13.0180   10.0990   -4.6530 O.3    15  DG15       -0.3114
    300  C5'       14.2960    9.4850   -4.5530 C.3    15  DG15        0.1811
    301  C4'       14.3960    8.4930   -3.4160 C.3    15  DG15        0.1746
    302  O4'       13.9270    9.0960   -2.1820 O.3    15  DG15       -0.3327
    303  C3'       13.5760    7.2140   -3.5260 C.3    15  DG15        0.1558
    304  O3'       14.1360    6.2360   -4.3890 O.3    15  DG15       -0.3138
    305  C2'       13.5060    6.7640   -2.0730 C.3    15  DG15        0.0865
    306  C1'       13.3550    8.1040   -1.3540 C.3    15  DG15        0.2094
    307  N9        11.9410    8.4550   -1.1410 N.ar   15  DG15       -0.2713
    308  C8        11.0800    9.2160   -1.8930 C.ar   15  DG15        0.1816
    309  N7         9.8460    9.1680   -1.4700 N.ar   15  DG15       -0.2173
    310  C5         9.8920    8.3290   -0.3720 C.ar   15  DG15        0.1748
    311  C6         8.8630    7.8940    0.5020 C.ar   15  DG15        0.3023
    312  O6         7.6600    8.1820    0.4710 O.2    15  DG15       -0.2633
    313  N1         9.3440    7.0400    1.4900 N.ar   15  DG15       -0.1709
    314  C2        10.6570    6.6530    1.6200 C.ar   15  DG15        0.2606
    315  N2        10.9300    5.8250    2.6380 N.pl3  15  DG15       -0.0859
    316  N3        11.6240    7.0480    0.8160 N.ar   15  DG15       -0.1918
    317  C4        11.1790    7.8770   -0.1520 C.ar   15  DG15        0.1722
    318  P         13.2000    5.0040   -5.0120 P.3    16  DA16        0.2141
    319  OP1       13.8470    4.3620   -6.1790 O.2    16  DA16       -0.5172
    320  OP2       11.8950    5.7020   -5.1730 O.3    16  DA16       -0.4373
    321  O5'       13.0160    3.9040   -3.8690 O.3    16  DA16       -0.3114
    322  C5'       14.1310    3.1110   -3.4080 C.3    16  DA16        0.1811
    323  C4'       13.7660    2.4020   -2.1190 C.3    16  DA16        0.1746
    324  O4'       13.4470    3.3910   -1.1070 O.3    16  DA16       -0.3327
    325  C3'       12.5320    1.5080   -2.1620 C.3    16  DA16        0.1558
    326  O3'       12.8620    0.2060   -2.6370 O.3    16  DA16       -0.3138
    327  C2'       12.1230    1.4580   -0.7010 C.3    16  DA16        0.0865
    328  C1'       12.4310    2.8890   -0.2580 C.3    16  DA16        0.2094
    329  N9        11.2960    3.7670   -0.3490 N.ar   16  DA16       -0.2714
    330  C8        10.9130    4.5190   -1.4280 C.ar   16  DA16        0.1815
    331  N7         9.7450    5.1000   -1.2800 N.ar   16  DA16       -0.2193
    332  C5         9.3340    4.7000   -0.0190 C.ar   16  DA16        0.1518
    333  C6         8.1760    4.9760    0.7300 C.ar   16  DA16        0.1919
    334  N6         7.1820    5.7530    0.2940 N.pl3  16  DA16       -0.1054
    335  N1         8.0750    4.4200    1.9560 N.ar   16  DA16       -0.2040
    336  C2         9.0730    3.6420    2.3920 C.ar   16  DA16        0.2016
    337  N3        10.2080    3.3100    1.7820 N.ar   16  DA16       -0.2048
    338  C4        10.2780    3.8780    0.5670 C.ar   16  DA16        0.1691
    339  P         11.7050   -0.7630   -3.0880 P.3    17  DA17        0.2141
    340  OP1       12.4850   -1.9110   -3.6260 O.3    17  DA17       -0.4373
    341  OP2       10.8270    0.0160   -4.0010 O.2    17  DA17       -0.5172
    342  O5'       10.7970   -1.2700   -1.8870 O.3    17  DA17       -0.3114
    343  C5'       11.2870   -2.2130   -0.9360 C.3    17  DA17        0.1812
    344  C4'       10.2060   -2.5330    0.0640 C.3    17  DA17        0.1775
    345  O4'        9.9120   -1.3370    0.8320 O.3    17  DA17       -0.3326
    346  C3'        8.8610   -2.9160   -0.5310 C.3    17  DA17        0.1859
    347  O3'        8.7970   -4.2900   -0.8710 O.3    17  DA17       -0.2202
    348  C2'        7.9080   -2.5740    0.6050 C.3    17  DA17        0.0894
    349  C1'        8.5210   -1.2680    1.1080 C.3    17  DA17        0.2095
    350  N9         7.9690   -0.0610    0.4440 N.ar   17  DA17       -0.2714
    351  C8         8.2930    0.4010   -0.8050 C.ar   17  DA17        0.1815
    352  N7         7.5560    1.4120   -1.2020 N.ar   17  DA17       -0.2193
    353  C5         6.6900    1.6280   -0.1420 C.ar   17  DA17        0.1518
    354  C6         5.6580    2.5610    0.0610 C.ar   17  DA17        0.1919
    355  N6         5.3130    3.4890   -0.8350 N.pl3  17  DA17       -0.1054
    356  N1         4.9850    2.5060    1.2300 N.ar   17  DA17       -0.2040
    357  C2         5.3320    1.5760    2.1280 C.ar   17  DA17        0.2016
    358  N3         6.2820    0.6480    2.0520 N.ar   17  DA17       -0.2048
    359  C4         6.9310    0.7280    0.8780 C.ar   17  DA17        0.1691
    360  P          7.5710   -4.9300   -2.0070 P.3    18  DC18        0.4149
    361  OP1        8.0680   -6.3210   -1.9020 O.2    18  DC18       -0.2668
    362  OP2        6.4160   -4.6200   -2.8780 O.3    18  DC18       -0.1481
    363  O5'        7.2360   -4.3810   -0.5410 O.3    18  DC18       -0.2177
    364  C5'        6.8520   -5.2810    0.4870 C.3    18  DC18        0.2140
    365  C4'        5.7190   -4.7230    1.3330 C.3    18  DC18        0.1776
    366  O4'        5.7810   -3.2760    1.3950 O.3    18  DC18       -0.3326
    367  C3'        4.3210   -4.9790    0.7930 C.3    18  DC18        0.1559
    368  O3'        3.9230   -6.3160    1.0680 O.3    18  DC18       -0.3138
    369  C2'        3.5200   -3.9690    1.6090 C.3    18  DC18        0.0866
    370  C1'        4.4810   -2.7830    1.6690 C.3    18  DC18        0.2106
    371  N1         4.1530   -1.8330    0.6720 N.ar   18  DC18       -0.2556
    372  C2         3.0800   -0.9530    0.8540 C.ar   18  DC18        0.3531
    373  O2         2.4250   -1.0200    1.9080 O.2    18  DC18       -0.2443
    374  N3         2.7880   -0.0590   -0.1200 N.ar   18  DC18       -0.1739
    375  C4         3.5180   -0.0250   -1.2360 C.ar   18  DC18        0.1759
    376  N4         3.1930    0.8740   -2.1680 N.pl3  18  DC18       -0.1070
    377  C5         4.6090   -0.9080   -1.4400 C.ar   18  DC18        0.0566
    378  C6         4.8940   -1.7890   -0.4750 C.ar   18  DC18        0.0849
    379  P          3.3020   -6.9780    0.0570 P.3    19  DT19        0.2141
    380  OP1        3.4520   -8.4460    0.2310 O.3    19  DT19       -0.4373
    381  OP2        3.6420   -6.3520   -1.2510 O.2    19  DT19       -0.5172
    382  O5'        1.8110   -6.5500    0.3940 O.3    19  DT19       -0.3114
    383  C5'        1.2810   -6.7690    1.6900 C.3    19  DT19        0.1811
    384  C4'        0.0030   -6.0040    1.8590 C.3    19  DT19        0.1746
    385  O4'        0.2830   -4.5810    1.9140 O.3    19  DT19       -0.3327
    386  C3'       -0.9560   -6.1610    0.7010 C.3    19  DT19        0.1558
    387  O3'       -1.6830   -7.3790    0.7540 O.3    19  DT19       -0.3138
    388  C2'       -1.7880   -4.8930    0.7990 C.3    19  DT19        0.0866
    389  C1'       -0.7310   -3.8740    1.2280 C.3    19  DT19        0.2106
    390  N1        -0.1330   -3.2040    0.0680 N.ar   19  DT19       -0.2559
    391  C2        -0.8550   -2.1760   -0.5090 C.ar   19  DT19        0.3545
    392  O2        -1.9190   -1.7820   -0.0660 O.2    19  DT19       -0.2443
    393  N3        -0.2840   -1.6240   -1.6300 N.ar   19  DT19       -0.1533
    394  C4         0.9090   -1.9880   -2.2180 C.ar   19  DT19        0.2804
    395  O4         1.2930   -1.3960   -3.2240 O.2    19  DT19       -0.2654
    396  C5         1.5980   -3.0630   -1.5610 C.ar   19  DT19        0.0534
    397  C6         1.0660   -3.6180   -0.4700 C.ar   19  DT19        0.0824
    398  C7         2.9060   -3.5330   -2.1260 C.3    19  DT19        0.0377
    399  P         -2.2050   -8.1010   -0.6490 P.3    20  DG20        0.2141
    400  OP1       -3.1560   -9.0300   -0.0810 O.3    20  DG20       -0.4373
    401  OP2       -1.6130   -8.3180   -2.0080 O.2    20  DG20       -0.5172
    402  O5'       -2.9790   -6.7130   -0.5880 O.3    20  DG20       -0.3114
    403  C5'       -4.3310   -7.0090   -0.4060 C.3    20  DG20        0.1811
    404  C4'       -5.1950   -5.9170   -0.9130 C.3    20  DG20        0.1746
    405  O4'       -4.3800   -4.7630   -0.8810 O.3    20  DG20       -0.3327
    406  C3'       -5.5290   -5.9580   -2.3790 C.3    20  DG20        0.1558
    407  O3'       -6.6910   -6.6590   -2.6720 O.3    20  DG20       -0.3138
    408  C2'       -5.9070   -4.5220   -2.5880 C.3    20  DG20        0.0865
    409  C1'       -4.7260   -3.8740   -1.9320 C.3    20  DG20        0.2094
    410  N9        -3.6690   -3.6130   -2.7770 N.ar   20  DG20       -0.2713
    411  C8        -2.5150   -4.3580   -2.8090 C.ar   20  DG20        0.1816
    412  N7        -1.6230   -3.8930   -3.6400 N.ar   20  DG20       -0.2173
    413  C5        -2.2190   -2.7730   -4.1910 C.ar   20  DG20        0.1748
    414  C6        -1.7390   -1.8540   -5.1590 C.ar   20  DG20        0.3023
    415  O6        -0.6460   -1.8530   -5.7390 O.2    20  DG20       -0.2633
    416  N1        -2.6710   -0.8580   -5.4370 N.ar   20  DG20       -0.1709
    417  C2        -3.9120   -0.7600   -4.8550 C.ar   20  DG20        0.2606
    418  N2        -4.6710    0.2710   -5.2510 N.pl3  20  DG20       -0.0859
    419  N3        -4.3720   -1.6070   -3.9560 N.ar   20  DG20       -0.1918
    420  C4        -3.4850   -2.5830   -3.6700 C.ar   20  DG20        0.1722
    421  P         -6.5670   -7.5960   -3.7510 P.3    21  DG21        0.2141
    422  OP1       -7.5690   -8.6500   -3.5020 O.3    21  DG21       -0.4373
    423  OP2       -5.1270   -7.9600   -3.6670 O.2    21  DG21       -0.5172
    424  O5'       -6.8600   -6.9510   -5.1910 O.3    21  DG21       -0.3114
    425  C5'       -8.0650   -6.2270   -5.4680 C.3    21  DG21        0.1811
    426  C4'       -7.9710   -5.4490   -6.7810 C.3    21  DG21        0.1746
    427  O4'       -7.1280   -4.2740   -6.6150 O.3    21  DG21       -0.3327
    428  C3'       -7.3490   -6.1590   -7.9820 C.3    21  DG21        0.1558
    429  O3'       -8.2970   -6.9670   -8.6850 O.3    21  DG21       -0.3138
    430  C2'       -6.9360   -4.9730   -8.8460 C.3    21  DG21        0.0865
    431  C1'       -6.3500   -4.0470   -7.7850 C.3    21  DG21        0.2094
    432  N9        -4.9540   -4.2980   -7.4460 N.ar   21  DG21       -0.2713
    433  C8        -4.3480   -4.9490   -6.4000 C.ar   21  DG21        0.1816
    434  N7        -3.0450   -4.9380   -6.4700 N.ar   21  DG21       -0.2173
    435  C5        -2.7710   -4.2360   -7.6300 C.ar   21  DG21        0.1748
    436  C6        -1.5320   -3.8990   -8.2340 C.ar   21  DG21        0.3023
    437  O6        -0.3900   -4.1680   -7.8400 O.2    21  DG21       -0.2633
    438  N1        -1.7060   -3.1770   -9.4110 N.ar   21  DG21       -0.1709
    439  C2        -2.9240   -2.8230   -9.9410 C.ar   21  DG21        0.2606
    440  N2        -2.8900   -2.1250  -11.0840 N.pl3  21  DG21       -0.0859
    441  N3        -4.0830   -3.1290   -9.3920 N.ar   21  DG21       -0.1918
    442  C4        -3.9380   -3.8310   -8.2480 C.ar   21  DG21        0.1722
    443  P         -7.8900   -8.5080   -9.5030 P.3    22  DG22        0.2141
    444  OP1       -9.1520   -8.9240  -10.1550 O.2    22  DG22       -0.5172
    445  OP2       -6.9960   -9.4980   -8.8630 O.3    22  DG22       -0.4373
    446  O5'       -6.9670   -7.7550  -10.5730 O.3    22  DG22       -0.3114
    447  C5'       -7.4480   -6.5960  -11.2440 C.3    22  DG22        0.1811
    448  C4'       -6.4650   -6.0910  -12.2750 C.3    22  DG22        0.1746
    449  O4'       -5.4570   -5.2500  -11.6510 O.3    22  DG22       -0.3327
    450  C3'       -5.6450   -7.1520  -12.9940 C.3    22  DG22        0.1558
    451  O3'       -6.3640   -7.8380  -14.0030 O.3    22  DG22       -0.3138
    452  C2'       -4.4640   -6.3440  -13.5120 C.3    22  DG22        0.0865
    453  C1'       -4.2250   -5.4060  -12.3280 C.3    22  DG22        0.2094
    454  N9        -3.2330   -5.9650  -11.3820 N.ar   22  DG22       -0.2713
    455  C8        -3.4830   -6.6020  -10.1910 C.ar   22  DG22        0.1816
    456  N7        -2.3980   -6.9850   -9.5740 N.ar   22  DG22       -0.2173
    457  C5        -1.3700   -6.5760  -10.4030 C.ar   22  DG22        0.1748
    458  C6         0.0350   -6.7130  -10.2670 C.ar   22  DG22        0.3023
    459  O6         0.6670   -7.2450   -9.3450 O.2    22  DG22       -0.2633
    460  N1         0.7200   -6.1560  -11.3440 N.ar   22  DG22       -0.1709
    461  C2         0.1230   -5.5430  -12.4190 C.ar   22  DG22        0.2606
    462  N2         0.9490   -5.0650  -13.3600 N.pl3  22  DG22       -0.0859
    463  N3        -1.1810   -5.4090  -12.5600 N.ar   22  DG22       -0.1918
    464  C4        -1.8660   -5.9430  -11.5270 C.ar   22  DG22        0.1722
    465  P         -6.2470   -9.3110  -14.0880 P.3    23  DT23        0.2141
    466  OP1       -7.2740   -9.9270  -14.9650 O.2    23  DT23       -0.5172
    467  OP2       -5.9750   -9.9030  -12.7540 O.3    23  DT23       -0.4373
    468  O5'       -4.8600   -9.2570  -14.8770 O.3    23  DT23       -0.3114
    469  C5'       -4.7520   -8.5760  -16.1250 C.3    23  DT23        0.1811
    470  C4'       -3.3070   -8.4990  -16.5760 C.3    23  DT23        0.1746
    471  O4'       -2.4900   -7.9060  -15.5310 O.3    23  DT23       -0.3327
    472  C3'       -2.5750   -9.8010  -16.8630 C.3    23  DT23        0.1558
    473  O3'       -2.9240  -10.3090  -18.1440 O.3    23  DT23       -0.3138
    474  C2'       -1.1180   -9.3470  -16.8320 C.3    23  DT23        0.0866
    475  C1'       -1.1440   -8.3230  -15.6980 C.3    23  DT23        0.2106
    476  N1        -0.6630   -8.7730  -14.3810 N.ar   23  DT23       -0.2559
    477  C2         0.7110   -8.8450  -14.2560 C.ar   23  DT23        0.3545
    478  O2         1.4780   -8.4340  -15.1080 O.2    23  DT23       -0.2443
    479  N3         1.1590   -9.4200  -13.0910 N.ar   23  DT23       -0.1533
    480  C4         0.3870   -9.9190  -12.0630 C.ar   23  DT23        0.2804
    481  O4         0.9350  -10.4060  -11.0770 O.2    23  DT23       -0.2654
    482  C5        -1.0300   -9.8090  -12.2680 C.ar   23  DT23        0.0534
    483  C6        -1.4920   -9.2540  -13.3910 C.ar   23  DT23        0.0824
    484  C7        -1.9550  -10.3250  -11.2060 C.3    23  DT23        0.0377
    485  P         -2.7020  -11.9730  -18.5420 P.3    24  DG24        0.2141
    486  OP1       -3.0020  -12.3000  -19.9530 O.2    24  DG24       -0.5172
    487  OP2       -3.1560  -12.8840  -17.4680 O.3    24  DG24       -0.4373
    488  O5'       -1.1270  -11.7720  -18.3640 O.3    24  DG24       -0.3114
    489  C5'       -0.3310  -11.2110  -19.4010 C.3    24  DG24        0.1811
    490  C4'        1.1230  -11.5750  -19.1820 C.3    24  DG24        0.1746
    491  O4'        1.6690  -10.8170  -18.0730 O.3    24  DG24       -0.3327
    492  C3'        1.3610  -13.0110  -18.7450 C.3    24  DG24        0.1558
    493  O3'        1.2340  -13.9270  -19.8230 O.3    24  DG24       -0.3138
    494  C2'        2.7770  -12.9050  -18.1920 C.3    24  DG24        0.0865
    495  C1'        2.6590  -11.5940  -17.4180 C.3    24  DG24        0.2094
    496  N9         2.1080  -11.7540  -15.9610 N.ar   24  DG24       -0.2713
    497  C8         0.8310  -11.6890  -15.4580 C.ar   24  DG24        0.1816
    498  N7         0.7520  -12.0440  -14.2050 N.ar   24  DG24       -0.2173
    499  C5         2.0520  -12.3620  -13.8560 C.ar   24  DG24        0.1748
    500  C6         2.5930  -12.8150  -12.6250 C.ar   24  DG24        0.3025
    501  O6         2.0000  -13.0300  -11.5610 O.2    24  DG24       -0.2633
    502  N1         3.9670  -13.0200  -12.7040 N.ar   24  DG24       -0.1685
    503  C2         4.7270  -12.8130  -13.8310 C.ar   24  DG24        0.2746
    504  N2         6.0380  -13.0650  -13.7130 N.ar   24  DG24       -0.1050
    505  N3         4.2390  -12.3940  -14.9810 N.ar   24  DG24       -0.1895
    506  C4         2.9060  -12.1890  -14.9280 C.ar   24  DG24        0.1725
    507  P          0.4420  -15.1750  -19.5300 P.3    25  DT25        0.2141
    508  OP1        0.1900  -15.6700  -20.9090 O.2    25  DT25       -0.5172
    509  OP2       -0.6860  -15.0610  -18.5730 O.3    25  DT25       -0.4373
    510  O5'        1.5490  -16.0940  -18.8580 O.3    25  DT25       -0.3114
    511  C5'        2.7200  -16.4430  -19.5980 C.3    25  DT25        0.1811
    512  C4'        3.8420  -16.8290  -18.6690 C.3    25  DT25        0.1746
    513  O4'        4.0070  -15.7940  -17.6610 O.3    25  DT25       -0.3327
    514  C3'        3.6870  -18.0980  -17.8410 C.3    25  DT25        0.1558
    515  O3'        3.9530  -19.3020  -18.5560 O.3    25  DT25       -0.3138
    516  C2'        4.7110  -17.8670  -16.7380 C.3    25  DT25        0.0866
    517  C1'        4.5590  -16.3670  -16.4870 C.3    25  DT25        0.2106
    518  N1         3.6310  -16.1340  -15.4020 N.ar   25  DT25       -0.2559
    519  C2         4.0820  -16.3330  -14.1110 C.ar   25  DT25        0.3545
    520  O2         5.2300  -16.6450  -13.8490 O.2    25  DT25       -0.2443
    521  N3         3.1350  -16.1550  -13.1310 N.ar   25  DT25       -0.1533
    522  C4         1.8130  -15.8060  -13.3090 C.ar   25  DT25        0.2804
    523  O4         1.0830  -15.6820  -12.3280 O.2    25  DT25       -0.2654
    524  C5         1.4210  -15.6180  -14.6770 C.ar   25  DT25        0.0534
    525  C6         2.3220  -15.7840  -15.6500 C.ar   25  DT25        0.0824
    526  C7         0.0010  -15.2370  -14.9740 C.3    25  DT25        0.0377
    527  P          3.0350  -20.5200  -18.2030 P.3    26  DG26        0.2141
    528  OP1        2.4100  -20.9670  -19.4690 O.2    26  DG26       -0.5172
    529  OP2        2.1870  -20.1790  -17.0330 O.3    26  DG26       -0.4373
    530  O5'        4.0960  -21.6310  -17.7440 O.3    26  DG26       -0.3114
    531  C5'        5.4950  -21.3760  -17.8170 C.3    26  DG26        0.1811
    532  C4'        6.1640  -21.5980  -16.4720 C.3    26  DG26        0.1746
    533  O4'        5.9610  -20.4480  -15.6130 O.3    26  DG26       -0.3327
    534  C3'        5.6120  -22.7410  -15.6370 C.3    26  DG26        0.1558
    535  O3'        6.0840  -23.9970  -16.1050 O.3    26  DG26       -0.3138
    536  C2'        6.2000  -22.3890  -14.2770 C.3    26  DG26        0.0865
    537  C1'        5.9860  -20.8800  -14.2630 C.3    26  DG26        0.2094
    538  N9         4.8560  -20.5610  -13.6660 N.ar   26  DG26       -0.2713
    539  C8         3.6520  -20.3840  -14.3040 C.ar   26  DG26        0.1816
    540  N7         2.6680  -20.1280  -13.4870 N.ar   26  DG26       -0.2173
    541  C5         3.2520  -20.1340  -12.2340 C.ar   26  DG26        0.1748
    542  C6         2.6860  -19.9200  -10.9500 C.ar   26  DG26        0.3023
    543  O6         1.5080  -19.6720  -10.6640 O.2    26  DG26       -0.2633
    544  N1         3.6380  -20.0160   -9.9390 N.ar   26  DG26       -0.1709
    545  C2         4.9710  -20.2860  -10.1400 C.ar   26  DG26        0.2606
    546  N2         5.7350  -20.3380   -9.0410 N.pl3  26  DG26       -0.0859
    547  N3         5.5110  -20.4870  -11.3260 N.ar   26  DG26       -0.1918
    548  C4         4.6050  -20.3990  -12.3230 C.ar   26  DG26        0.1722
    549  P          5.0720  -25.2080  -16.1640 P.3    27  DG27        0.2141
    550  OP1        5.9130  -26.1610  -16.9290 O.2    27  DG27       -0.5172
    551  OP2        3.6100  -25.1190  -16.4520 O.3    27  DG27       -0.4373
    552  O5'        5.3120  -25.4870  -14.6130 O.3    27  DG27       -0.3114
    553  C5'        6.6080  -25.3540  -14.0330 C.3    27  DG27        0.1811
    554  C4'        6.5260  -25.5510  -12.5450 C.3    27  DG27        0.1746
    555  O4'        6.1620  -24.3120  -11.8890 O.3    27  DG27       -0.3327
    556  C3'        5.4590  -26.5340  -12.1240 C.3    27  DG27        0.1558
    557  O3'        5.8940  -27.8750  -12.2320 O.3    27  DG27       -0.3138
    558  C2'        5.1520  -26.1100  -10.6960 C.3    27  DG27        0.0865
    559  C1'        5.3410  -24.5930  -10.7640 C.3    27  DG27        0.2094
    560  N9         4.0260  -23.9640  -11.0070 N.ar   27  DG27       -0.2713
    561  C8         3.4470  -23.5850  -12.1940 C.ar   27  DG27        0.1816
    562  N7         2.2290  -23.1370  -12.0530 N.ar   27  DG27       -0.2173
    563  C5         1.9880  -23.2200  -10.6940 C.ar   27  DG27        0.1748
    564  C6         0.8370  -22.8790   -9.9380 C.ar   27  DG27        0.3023
    565  O6        -0.2360  -22.4160  -10.3440 O.2    27  DG27       -0.2633
    566  N1         1.0150  -23.1250   -8.5800 N.ar   27  DG27       -0.1709
    567  C2         2.1600  -23.6360   -8.0180 C.ar   27  DG27        0.2606
    568  N2         2.1430  -23.8030   -6.6890 N.pl3  27  DG27       -0.0859
    569  N3         3.2370  -23.9590   -8.7070 N.ar   27  DG27       -0.1918
    570  C4         3.0870  -23.7290  -10.0290 C.ar   27  DG27        0.1722
    571  P          4.7970  -29.0060  -12.3820 P.3    28  DG28        0.2141
    572  OP1        5.4440  -30.0780  -13.1800 O.2    28  DG28       -0.5172
    573  OP2        3.4720  -28.5010  -12.7990 O.3    28  DG28       -0.4373
    574  O5'        4.6950  -29.4380  -10.8450 O.3    28  DG28       -0.3114
    575  C5'        4.4890  -28.4480   -9.8390 C.3    28  DG28        0.1811
    576  C4'        3.7100  -28.9140   -8.6160 C.3    28  DG28        0.1746
    577  O4'        3.0550  -27.7290   -8.0850 O.3    28  DG28       -0.3327
    578  C3'        2.5650  -29.9190   -8.7960 C.3    28  DG28        0.1558
    579  O3'        2.9670  -31.2850   -8.6830 O.3    28  DG28       -0.3138
    580  C2'        1.6660  -29.5230   -7.6310 C.3    28  DG28        0.0865
    581  C1'        1.7010  -28.0140   -7.7840 C.3    28  DG28        0.2093
    582  N9         0.6970  -27.3580   -8.8600 N.ar   28  DG28       -0.2728
    583  C8         0.8040  -27.0800  -10.2010 C.ar   28  DG28        0.1814
    584  N7        -0.3180  -26.6820  -10.7360 N.ar   28  DG28       -0.2177
    585  C5        -1.2210  -26.6950   -9.6890 C.ar   28  DG28        0.1711
    586  C6        -2.6000  -26.3640   -9.6550 C.2    28  DG28        0.2985
    587  O6        -3.3180  -25.9780  -10.5850 O.2    28  DG28       -0.2655
    588  N1        -3.1410  -26.5180   -8.3810 N.am   28  DG28       -0.1054
    589  C2        -2.4400  -26.9390   -7.2770 C.1    28  DG28        0.1294
    590  N2        -3.1330  -27.0250   -6.1340 N.2    28  DG28       -0.0697
    591  N3        -1.1590  -27.2510   -7.2930 N.pl3  28  DG28       -0.1270
    592  C4        -0.6130  -27.1100   -8.5200 C.ar   28  DG28        0.1688
    593  P          2.0850  -32.6610   -9.4030 P.3    29  DG29        0.2141
    594  OP1        2.9450  -33.8700   -9.4870 O.3    29  DG29       -0.4373
    595  OP2        1.2700  -32.2490  -10.5790 O.2    29  DG29       -0.5172
    596  O5'        1.1150  -32.8280   -8.1550 O.3    29  DG29       -0.3114
    597  C5'       -0.2770  -32.9560   -8.3140 C.3    29  DG29        0.1811
    598  C4'       -0.9650  -32.5540   -7.0430 C.3    29  DG29        0.1746
    599  O4'       -1.1360  -31.1180   -7.0140 O.3    29  DG29       -0.3327
    600  C3'       -2.3640  -33.1160   -6.9290 C.3    29  DG29        0.1558
    601  O3'       -2.3010  -34.4200   -6.3810 O.3    29  DG29       -0.3138
    602  C2'       -3.0630  -32.0990   -6.0430 C.3    29  DG29        0.0865
    603  C1'       -2.4350  -30.8010   -6.5410 C.3    29  DG29        0.2094
    604  N9        -3.2650  -30.6310   -7.8790 N.ar   29  DG29       -0.2713
    605  C8        -2.5080  -30.5190   -9.0200 C.ar   29  DG29        0.1816
    606  N7        -3.1560  -29.9860  -10.0190 N.ar   29  DG29       -0.2173
    607  C5        -4.4160  -29.7280   -9.5110 C.ar   29  DG29        0.1760
    608  C6        -5.5590  -29.1540  -10.1250 C.ar   29  DG29        0.3164
    609  O6        -5.6810  -28.7460  -11.2870 O.2    29  DG29       -0.2621
    610  N1        -6.6370  -29.0740   -9.2470 N.ar   29  DG29       -0.0916
    611  C2        -6.6150  -29.4950   -7.9390 C.ar   29  DG29        0.3021
    612  N2        -7.7530  -29.3350   -7.2490 N.ar   29  DG29       -0.0586
    613  N3        -5.5620  -30.0310   -7.3550 N.ar   29  DG29       -0.1875
    614  C4        -4.5030  -30.1190   -8.1890 C.ar   29  DG29        0.1726
    615  P         -2.6660  -35.5370   -7.2600 P.3    30  DT30        0.2141
    616  OP1       -2.2050  -36.8080   -6.6500 O.3    30  DT30       -0.4373
    617  OP2       -2.4990  -35.2830   -8.7040 O.2    30  DT30       -0.5172
    618  O5'       -4.2380  -35.4400   -7.0250 O.3    30  DT30       -0.3114
    619  C5'       -4.8580  -35.7420   -5.7770 C.3    30  DT30        0.1811
    620  C4'       -6.3120  -35.4080   -5.9810 C.3    30  DT30        0.1746
    621  O4'       -6.4250  -33.9830   -6.2250 O.3    30  DT30       -0.3327
    622  C3'       -6.8800  -36.0260   -7.2530 C.3    30  DT30        0.1558
    623  O3'       -7.2460  -37.3920   -7.0540 O.3    30  DT30       -0.3138
    624  C2'       -8.0640  -35.0990   -7.5270 C.3    30  DT30        0.0866
    625  C1'       -7.4570  -33.7490   -7.1800 C.3    30  DT30        0.2106
    626  N1        -6.9460  -33.0020   -8.3020 N.ar   30  DT30       -0.2559
    627  C2        -7.8290  -32.3950   -9.1760 C.ar   30  DT30        0.3545
    628  O2        -9.0300  -32.3470   -8.9790 O.2    30  DT30       -0.2443
    629  N3        -7.2530  -31.8450  -10.2950 N.ar   30  DT30       -0.1533
    630  C4        -5.9130  -31.8410  -10.6220 C.ar   30  DT30        0.2804
    631  O4        -5.5460  -31.3050  -11.6650 O.2    30  DT30       -0.2654
    632  C5        -5.0610  -32.4910   -9.6660 C.ar   30  DT30        0.0534
    633  C6        -5.5950  -33.0340   -8.5680 C.ar   30  DT30        0.0824
    634  C7        -3.5860  -32.5400   -9.9320 C.3    30  DT30        0.0377
    635  P         -7.6610  -38.3710   -8.3520 P.3    31  DG31        0.2141
    636  OP1       -8.2470  -39.3810   -7.4400 O.3    31  DG31       -0.4373
    637  OP2       -6.3210  -38.5740   -8.9550 O.2    31  DG31       -0.5172
    638  O5'       -8.7170  -38.0920   -9.5230 O.3    31  DG31       -0.3114
    639  C5'      -10.1010  -37.9790   -9.2150 C.3    31  DG31        0.1811
    640  C4'      -10.8850  -37.4040  -10.3830 C.3    31  DG31        0.1746
    641  O4'      -10.4210  -36.0600  -10.6730 O.3    31  DG31       -0.3327
    642  C3'      -10.7400  -38.1420  -11.7080 C.3    31  DG31        0.1558
    643  O3'      -11.6340  -39.2360  -11.7900 O.3    31  DG31       -0.3138
    644  C2'      -11.1500  -37.0460  -12.6760 C.3    31  DG31        0.0865
    645  C1'      -10.4030  -35.8650  -12.0750 C.3    31  DG31        0.2094
    646  N9        -8.9780  -35.8090  -12.5230 N.ar   31  DG31       -0.2713
    647  C8        -7.9470  -36.0220  -11.6400 C.ar   31  DG31        0.1816
    648  N7        -6.7700  -35.8040  -12.1610 N.ar   31  DG31       -0.2173
    649  C5        -7.0360  -35.4230  -13.4620 C.ar   31  DG31        0.1748
    650  C6        -6.1570  -35.0610  -14.5160 C.ar   31  DG31        0.3023
    651  O6        -4.9210  -35.0040  -14.4970 O.2    31  DG31       -0.2633
    652  N1        -6.8460  -34.7430  -15.6830 N.ar   31  DG31       -0.1709
    653  C2        -8.2140  -34.7710  -15.8180 C.ar   31  DG31        0.2606
    654  N2        -8.6950  -34.4300  -17.0210 N.pl3  31  DG31       -0.0859
    655  N3        -9.0430  -35.1060  -14.8490 N.ar   31  DG31       -0.1918
    656  C4        -8.3950  -35.4190  -13.7070 C.ar   31  DG31        0.1722
    657  P        -11.1570  -40.4960  -12.4480 P.3    32  DA32        0.2141
    658  OP1      -12.4160  -41.2700  -12.5740 O.2    32  DA32       -0.5172
    659  OP2       -9.9840  -41.1900  -11.8440 O.3    32  DA32       -0.4373
    660  O5'      -10.8160  -39.9290  -13.9070 O.3    32  DA32       -0.3114
    661  C5'      -11.8710  -39.8420  -14.8470 C.3    32  DA32        0.1811
    662  C4'      -11.3560  -39.7280  -16.2610 C.3    32  DA32        0.1746
    663  O4'      -10.5640  -38.5030  -16.3850 O.3    32  DA32       -0.3327
    664  C3'      -10.4510  -40.8750  -16.7210 C.3    32  DA32        0.1558
    665  O3'      -11.1390  -42.0920  -17.1250 O.3    32  DA32       -0.3138
    666  C2'       -9.6480  -40.1690  -17.8210 C.3    32  DA32        0.0865
    667  C1'       -9.4100  -38.7790  -17.1720 C.3    32  DA32        0.2094
    668  N9        -8.2200  -38.6730  -16.2660 N.ar   32  DA32       -0.2714
    669  C8        -8.1430  -38.7340  -14.9000 C.ar   32  DA32        0.1815
    670  N7        -6.9450  -38.4880  -14.4250 N.ar   32  DA32       -0.2193
    671  C5        -6.1830  -38.2500  -15.5580 C.ar   32  DA32        0.1518
    672  C6        -4.8250  -37.9290  -15.7340 C.ar   32  DA32        0.1919
    673  N6        -3.9620  -37.7890  -14.7250 N.pl3  32  DA32       -0.1054
    674  N1        -4.3810  -37.7570  -16.9970 N.ar   32  DA32       -0.2040
    675  C2        -5.2470  -37.8970  -18.0070 C.ar   32  DA32        0.2016
    676  N3        -6.5430  -38.1950  -17.9670 N.ar   32  DA32       -0.2048
    677  C4        -6.9540  -38.3610  -16.6990 C.ar   32  DA32        0.1691
    678  P        -10.6210  -43.6560  -16.4490 P.3    33  DT33        0.2141
    679  OP1      -11.8330  -44.2780  -15.8410 O.3    33  DT33       -0.4373
    680  OP2       -9.2680  -44.1000  -16.0300 O.2    33  DT33       -0.5172
    681  O5'      -10.7420  -43.8170  -18.0280 O.3    33  DT33       -0.3114
    682  C5'       -9.8210  -44.6060  -18.7990 C.3    33  DT33        0.1811
    683  C4'       -9.9040  -44.1890  -20.2530 C.3    33  DT33        0.1746
    684  O4'      -11.2450  -44.4330  -20.7590 O.3    33  DT33       -0.3327
    685  C3'       -9.6590  -42.7010  -20.4830 C.3    33  DT33        0.1558
    686  O3'       -8.2770  -42.4470  -20.6990 O.3    33  DT33       -0.3138
    687  C2'      -10.4460  -42.3990  -21.7450 C.3    33  DT33        0.0866
    688  C1'      -11.6030  -43.4020  -21.6580 C.3    33  DT33        0.2106
    689  N1       -13.0220  -42.8670  -21.1210 N.ar   33  DT33       -0.2559
    690  C2       -13.7040  -42.1290  -22.0690 C.ar   33  DT33        0.3545
    691  O2       -13.3360  -42.0320  -23.2260 O.2    33  DT33       -0.2443
    692  N3       -14.8390  -41.5020  -21.6130 N.ar   33  DT33       -0.1533
    693  C4       -15.3490  -41.5400  -20.3310 C.ar   33  DT33        0.2804
    694  O4       -16.3800  -40.9250  -20.0730 O.2    33  DT33       -0.2654
    695  C5       -14.5840  -42.3260  -19.4050 C.ar   33  DT33        0.0534
    696  C6       -13.4770  -42.9460  -19.8220 C.ar   33  DT33        0.0824
    697  C7       -15.0570  -42.4280  -17.9850 C.3    33  DT33        0.0377
    698  P         -7.8000  -41.3280  -20.0490 P.3    34  DC34        0.2141
    699  OP1       -6.3680  -41.2050  -20.4360 O.2    34  DC34       -0.5172
    700  OP2       -8.1710  -41.4050  -18.6170 O.3    34  DC34       -0.4373
    701  O5'       -8.6180  -40.1290  -20.7040 O.3    34  DC34       -0.3114
    702  C5'       -8.1380  -39.4960  -21.8930 C.3    34  DC34        0.1811
    703  C4'       -9.1840  -38.5830  -22.4810 C.3    34  DC34        0.1746
    704  O4'      -10.4900  -39.1900  -22.3450 O.3    34  DC34       -0.3327
    705  C3'       -9.3810  -37.1970  -21.8970 C.3    34  DC34        0.1558
    706  O3'       -8.4240  -36.2740  -22.4120 O.3    34  DC34       -0.3138
    707  C2'      -10.7590  -36.8510  -22.4370 C.3    34  DC34        0.0866
    708  C1'      -11.4800  -38.1880  -22.3400 C.3    34  DC34        0.2106
    709  N1       -12.2970  -38.1410  -21.0770 N.ar   34  DC34       -0.2556
    710  C2       -13.2470  -37.2060  -20.6500 C.ar   34  DC34        0.3531
    711  O2       -13.2540  -36.0790  -21.1740 O.2    34  DC34       -0.2443
    712  N3       -14.1260  -37.5540  -19.6800 N.ar   34  DC34       -0.1739
    713  C4       -14.0810  -38.7750  -19.1450 C.ar   34  DC34        0.1759
    714  N4       -14.9670  -39.0730  -18.1930 N.pl3  34  DC34       -0.1070
    715  C5       -13.1260  -39.7370  -19.5640 C.ar   34  DC34        0.0566
    716  C6       -12.2600  -39.3890  -20.5220 C.ar   34  DC34        0.0849
    717  P         -8.1990  -35.1690  -21.6670 P.3    35  DA35        0.2141
    718  OP1       -7.0980  -34.6040  -22.4560 O.2    35  DA35       -0.5172
    719  OP2       -7.9550  -35.7170  -20.3110 O.3    35  DA35       -0.4373
    720  O5'       -9.3790  -34.1340  -21.4220 O.3    35  DA35       -0.3114
    721  C5'       -9.8790  -33.3980  -22.5050 C.3    35  DA35        0.1811
    722  C4'      -11.0770  -32.5940  -22.0740 C.3    35  DA35        0.1746
    723  O4'      -12.0950  -33.5500  -21.6580 O.3    35  DA35       -0.3327
    724  C3'      -10.9460  -31.6950  -20.8680 C.3    35  DA35        0.1558
    725  O3'      -10.5050  -30.4340  -21.3660 O.3    35  DA35       -0.3138
    726  C2'      -12.4020  -31.5980  -20.4170 C.3    35  DA35        0.0865
    727  C1'      -12.8550  -33.0330  -20.5670 C.3    35  DA35        0.2094
    728  N9       -12.5910  -33.8780  -19.4240 N.ar   35  DA35       -0.2714
    729  C8       -11.5740  -34.7590  -19.1620 C.ar   35  DA35        0.1815
    730  N7       -11.6800  -35.3590  -17.9990 N.ar   35  DA35       -0.2193
    731  C5       -12.8450  -34.8350  -17.4610 C.ar   35  DA35        0.1518
    732  C6       -13.5110  -35.0640  -16.2440 C.ar   35  DA35        0.1919
    733  N6       -13.0780  -35.9180  -15.3140 N.pl3  35  DA35       -0.1054
    734  N1       -14.6510  -34.3770  -16.0150 N.ar   35  DA35       -0.2040
    735  C2       -15.0840  -33.5220  -16.9480 C.ar   35  DA35        0.2016
    736  N3       -14.5470  -33.2230  -18.1290 N.ar   35  DA35       -0.2048
    737  C4       -13.4160  -33.9210  -18.3260 C.ar   35  DA35        0.1691
    738  P         -9.6040  -29.9630  -20.6130 P.3    36  DA36        0.2141
    739  OP1       -9.3880  -28.8220  -21.5340 O.2    36  DA36       -0.5172
    740  OP2       -8.5000  -30.4040  -19.7130 O.3    36  DA36       -0.4373
    741  O5'      -10.9250  -29.6780  -19.7700 O.3    36  DA36       -0.3114
    742  C5'      -12.0610  -29.0290  -20.3850 C.3    36  DA36        0.1811
    743  C4'      -13.1880  -28.8620  -19.3880 C.3    36  DA36        0.1746
    744  O4'      -13.7320  -30.1650  -19.0480 O.3    36  DA36       -0.3327
    745  C3'      -12.7930  -28.2300  -18.0610 C.3    36  DA36        0.1558
    746  O3'      -12.8330  -26.8030  -18.1190 O.3    36  DA36       -0.3138
    747  C2'      -13.8240  -28.7960  -17.0920 C.3    36  DA36        0.0865
    748  C1'      -14.0870  -30.1880  -17.6760 C.3    36  DA36        0.2094
    749  N9       -13.3100  -31.2110  -17.0010 N.ar   36  DA36       -0.2714
    750  C8       -12.0970  -31.7360  -17.3620 C.ar   36  DA36        0.1815
    751  N7       -11.6140  -32.5960  -16.4980 N.ar   36  DA36       -0.2193
    752  C5       -12.5740  -32.6380  -15.4990 C.ar   36  DA36        0.1518
    753  C6       -12.6580  -33.3610  -14.2960 C.ar   36  DA36        0.1919
    754  N6       -11.7210  -34.2170  -13.8820 N.pl3  36  DA36       -0.1054
    755  N1       -13.7500  -33.1720  -13.5260 N.ar   36  DA36       -0.2040
    756  C2       -14.6890  -32.3150  -13.9430 C.ar   36  DA36        0.2016
    757  N3       -14.7240  -31.5790  -15.0510 N.ar   36  DA36       -0.2048
    758  C4       -13.6240  -31.7890  -15.7940 C.ar   36  DA36        0.1691
    759  P        -12.0390  -25.8950  -16.9730 P.3    37  DG37        0.2141
    760  OP1      -11.7730  -24.4870  -16.5810 O.3    37  DG37       -0.4373
    761  OP2      -10.9030  -26.8370  -17.1420 O.2    37  DG37       -0.5172
    762  O5'      -13.0680  -26.5120  -15.9190 O.3    37  DG37       -0.3114
    763  C5'      -14.4260  -26.0660  -15.8560 C.3    37  DG37        0.1811
    764  C4'      -15.0880  -26.5870  -14.5980 C.3    37  DG37        0.1746
    765  O4'      -15.0330  -28.0380  -14.6030 O.3    37  DG37       -0.3327
    766  C3'      -14.4210  -26.1650  -13.2950 C.3    37  DG37        0.1558
    767  O3'      -14.9760  -24.9390  -12.8230 O.3    37  DG37       -0.3138
    768  C2'      -14.7590  -27.3190  -12.3570 C.3    37  DG37        0.0865
    769  C1'      -14.6950  -28.5170  -13.3120 C.3    37  DG37        0.2094
    770  N9       -13.4730  -29.1430  -13.4350 N.ar   37  DG37       -0.2713
    771  C8       -12.6680  -29.2790  -14.5410 C.ar   37  DG37        0.1816
    772  N7       -11.5300  -29.8610  -14.2810 N.ar   37  DG37       -0.2173
    773  C5       -11.5830  -30.1290  -12.9260 C.ar   37  DG37        0.1748
    774  C6       -10.6360  -30.7500  -12.0700 C.ar   37  DG37        0.3023
    775  O6        -9.5210  -31.2010  -12.3600 O.2    37  DG37       -0.2633
    776  N1       -11.0910  -30.8220  -10.7560 N.ar   37  DG37       -0.1709
    777  C2       -12.3080  -30.3540  -10.3210 C.ar   37  DG37        0.2606
    778  N2       -12.5710  -30.5150   -9.0170 N.pl3  37  DG37       -0.0859
    779  N3       -13.1970  -29.7750  -11.1040 N.ar   37  DG37       -0.1918
    780  C4       -12.7760  -29.6940  -12.3840 C.ar   37  DG37        0.1722
    781  P        -13.9930  -23.6900  -12.4000 P.3    38  DG38        0.2141
    782  OP1      -14.7400  -22.4020  -12.3810 O.3    38  DG38       -0.4373
    783  OP2      -12.6520  -23.7600  -13.0440 O.2    38  DG38       -0.5172
    784  O5'      -13.8400  -24.2290  -10.9050 O.3    38  DG38       -0.3114
    785  C5'      -14.9380  -24.1970   -9.9910 C.3    38  DG38        0.1811
    786  C4'      -14.5320  -24.8110   -8.6720 C.3    38  DG38        0.1744
    787  O4'      -14.2370  -26.2200   -8.8750 O.3    38  DG38       -0.3348
    788  C3'      -13.2590  -24.2470   -8.0530 C.3    38  DG38        0.1555
    789  O3'      -13.5010  -23.0590   -7.3010 O.3    38  DG38       -0.3139
    790  C2'      -12.7870  -25.4010   -7.1730 C.3    38  DG38        0.0836
    791  C1'      -13.1530  -26.6100   -8.0390 C.3    38  DG38        0.1985
    792  N9       -12.0060  -27.0180   -8.8800 N.pl3  38  DG38       -0.2313
    793  C8       -11.6110  -26.7090  -10.1590 C.2    38  DG38        0.1680
    794  N7       -10.4060  -27.1240  -10.4400 N.2    38  DG38       -0.2206
    795  C5        -9.9780  -27.7460   -9.2820 C.2    38  DG38        0.1914
    796  C6        -8.7500  -28.3890   -8.9790 C.ar   38  DG38        0.3380
    797  O6        -7.7630  -28.5380   -9.7100 O.2    38  DG38       -0.3279
    798  N1        -8.7300  -28.8860   -7.6790 N.ar   38  DG38       -0.0604
    799  C2        -9.7650  -28.7780   -6.7820 C.2    38  DG38        0.4822
    800  N2        -9.5600  -29.3220   -5.5740 N.pl3  38  DG38        0.1487
    801  N3       -10.9110  -28.1830   -7.0490 N.2    38  DG38       -0.0672
    802  C4       -10.9530  -27.6910   -8.3050 C.3    38  DG38        0.3072
    803  P        -12.2120  -22.2500   -6.7370 P.3    39  DG39        0.2141
    804  OP1      -12.8410  -21.1910   -5.9150 O.3    39  DG39       -0.4373
    805  OP2      -10.8360  -22.0660   -7.2480 O.2    39  DG39       -0.5172
    806  O5'      -12.1410  -23.6140   -5.8970 O.3    39  DG39       -0.3114
    807  C5'      -12.2870  -23.6220   -4.4850 C.3    39  DG39        0.1811
    808  C4'      -11.0930  -24.2440   -3.8080 C.3    39  DG39        0.1746
    809  O4'      -10.7870  -25.5260   -4.4200 O.3    39  DG39       -0.3327
    810  C3'       -9.7850  -23.4830   -3.9370 C.3    39  DG39        0.1558
    811  O3'       -9.6900  -22.3450   -3.0960 O.3    39  DG39       -0.3138
    812  C2'       -8.7700  -24.5770   -3.6380 C.3    39  DG39        0.0865
    813  C1'       -9.3880  -25.7300   -4.4270 C.3    39  DG39        0.2093
    814  N9        -8.8750  -25.6810   -5.8860 N.ar   39  DG39       -0.2728
    815  C8        -9.4720  -25.2880   -7.0590 C.ar   39  DG39        0.1814
    816  N7        -8.6600  -25.3000   -8.0800 N.ar   39  DG39       -0.2177
    817  C5        -7.4540  -25.7270   -7.5550 C.ar   39  DG39        0.1711
    818  C6        -6.1970  -25.9350   -8.1780 C.2    39  DG39        0.2985
    819  O6        -5.8960  -25.7750   -9.3680 O.2    39  DG39       -0.2655
    820  N1        -5.2340  -26.3720   -7.2740 N.am   39  DG39       -0.1054
    821  C2        -5.4540  -26.5840   -5.9340 C.1    39  DG39        0.1294
    822  N2        -4.4010  -27.0080   -5.2210 N.2    39  DG39       -0.0697
    823  N3        -6.6160  -26.3940   -5.3400 N.pl3  39  DG39       -0.1270
    824  C4        -7.5670  -25.9680   -6.1990 C.ar   39  DG39        0.1688
    825  P         -9.0210  -20.9210   -3.7290 P.3    40  DA40        0.2141
    826  OP1       -9.4930  -19.8950   -2.7650 O.3    40  DA40       -0.4373
    827  OP2       -8.7140  -20.5230   -5.1310 O.2    40  DA40       -0.5172
    828  O5'       -7.7070  -21.6020   -3.1330 O.3    40  DA40       -0.3114
    829  C5'       -7.7840  -22.5280   -2.0490 C.3    40  DA40        0.1811
    830  C4'       -6.5190  -23.3640   -1.9690 C.3    40  DA40        0.1746
    831  O4'       -6.3450  -24.1100   -3.2030 O.3    40  DA40       -0.3327
    832  C3'       -5.2100  -22.6080   -1.8020 C.3    40  DA40        0.1558
    833  O3'       -4.9730  -22.3240   -0.4290 O.3    40  DA40       -0.3138
    834  C2'       -4.1900  -23.6140   -2.3250 C.3    40  DA40        0.0865
    835  C1'       -4.9630  -24.2620   -3.4760 C.3    40  DA40        0.2094
    836  N9        -4.6920  -23.6300   -4.7510 N.ar   40  DA40       -0.2714
    837  C8        -5.6950  -23.0560   -5.4880 C.ar   40  DA40        0.1815
    838  N7        -5.3250  -22.6990   -6.6960 N.ar   40  DA40       -0.2193
    839  C5        -3.9900  -23.0640   -6.7560 C.ar   40  DA40        0.1518
    840  C6        -3.0240  -22.9550   -7.7720 C.ar   40  DA40        0.1919
    841  N6        -3.2700  -22.4250   -8.9720 N.pl3  40  DA40       -0.1054
    842  N1        -1.7820  -23.4150   -7.5080 N.ar   40  DA40       -0.2040
    843  C2        -1.5370  -23.9470   -6.3050 C.ar   40  DA40        0.2016
    844  N3        -2.3610  -24.1050   -5.2720 N.ar   40  DA40       -0.2048
    845  C4        -3.5850  -23.6370   -5.5650 C.ar   40  DA40        0.1691
    846  P         -4.8290  -20.8380    0.0230 P.3    41  DG41        0.2141
    847  OP1       -4.8640  -20.3600    1.4240 O.3    41  DG41       -0.4373
    848  OP2       -5.0460  -19.8690   -1.0730 O.2    41  DG41       -0.5172
    849  O5'       -3.4420  -21.5680   -0.0950 O.3    41  DG41       -0.3114
    850  C5'       -2.7060  -21.1840   -1.1540 C.3    41  DG41        0.1811
    851  C4'       -1.3180  -21.7060   -1.0200 C.3    41  DG41        0.1746
    852  O4'       -1.1760  -22.5960   -2.1340 O.3    41  DG41       -0.3327
    853  C3'       -0.4530  -20.5120   -1.3300 C.3    41  DG41        0.1558
    854  O3'        0.1660  -20.0160   -0.1560 O.3    41  DG41       -0.3138
    855  C2'        0.4180  -20.9280   -2.5210 C.3    41  DG41        0.0865
    856  C1'       -0.4890  -21.9430   -3.2100 C.3    41  DG41        0.2094
    857  N9        -1.2760  -21.6530   -4.4240 N.ar   41  DG41       -0.2713
    858  C8        -2.5470  -21.1960   -4.6720 C.ar   41  DG41        0.1816
    859  N7        -2.6650  -20.6050   -5.8300 N.ar   41  DG41       -0.2173
    860  C5        -1.3990  -20.6760   -6.3820 C.ar   41  DG41        0.1748
    861  C6        -0.9060  -20.2040   -7.6250 C.ar   41  DG41        0.3023
    862  O6        -1.5230  -19.6070   -8.5170 O.2    41  DG41       -0.2633
    863  N1         0.4470  -20.4840   -7.7890 N.ar   41  DG41       -0.1709
    864  C2         1.2300  -21.1400   -6.8690 C.ar   41  DG41        0.2606
    865  N2         2.5140  -21.3190   -7.2060 N.pl3  41  DG41       -0.0859
    866  N3         0.7860  -21.5830   -5.7090 N.ar   41  DG41       -0.1918
    867  C4        -0.5250  -21.3210   -5.5280 C.ar   41  DG41        0.1722
    868  P          0.1650  -18.4520    0.1190 P.3    42  DT42        0.2141
    869  OP1       -0.2720  -17.4800    1.1550 O.3    42  DT42       -0.4373
    870  OP2       -0.1880  -18.2140   -1.2970 O.2    42  DT42       -0.5172
    871  O5'        1.7410  -18.6400    0.2040 O.3    42  DT42       -0.3115
    872  C5'        2.6110  -17.8650   -0.6070 C.3    42  DT42        0.1785
    873  C4'        3.5370  -18.7690   -1.3790 C.3    42  DT42        0.1473
    874  O4'        2.7510  -19.6840   -2.1860 O.3    42  DT42       -0.3353
    875  C3'        4.4190  -18.0510   -2.3800 C.3    42  DT42        0.0368
    876  O3'        5.5950  -17.5670   -1.7550 O.3    42  DT42       -0.1270
    877  C2'        4.7240  -19.1550   -3.3750 C.3    42  DT42        0.0566
    878  C1'        3.3710  -19.8630   -3.4480 C.3    42  DT42        0.2081
    879  N1         2.4830  -19.2940   -4.4800 N.ar   42  DT42       -0.2559
    880  C2         2.8610  -19.4220   -5.8030 C.ar   42  DT42        0.3545
    881  O2         3.8810  -19.9900   -6.1500 O.2    42  DT42       -0.2443
    882  N3         1.9980  -18.8570   -6.7110 N.ar   42  DT42       -0.1533
    883  C4         0.8220  -18.1920   -6.4340 C.ar   42  DT42        0.2804
    884  O4         0.1520  -17.7390   -7.3590 O.2    42  DT42       -0.2654
    885  C5         0.4990  -18.1000   -5.0380 C.ar   42  DT42        0.0534
    886  C6         1.3200  -18.6410   -4.1340 C.ar   42  DT42        0.0824
    887  C7        -0.7610  -17.3940   -4.6350 C.3    42  DT42        0.0377
    888  P          5.6460  -16.1760   -1.7390 P.3    43  DA43        0.5677
    889  OP1        6.7040  -15.7580   -0.8020 O.2    43  DA43       -0.2249
    890  OP2        4.9720  -15.1430   -2.5550 O.2    43  DA43       -0.2249
    891  O5'        6.2310  -17.2980   -2.6920 O.3    43  DA43       -0.2092
    892  C5'        7.5190  -17.7690   -2.5680 C.3    43  DA43        0.2145
    893  C4'        8.0370  -17.9160   -3.9580 C.3    43  DA43        0.1776
    894  O4'        7.0210  -18.4750   -4.8130 O.3    43  DA43       -0.3326
    895  C3'        8.3120  -16.6120   -4.6420 C.3    43  DA43        0.1559
    896  O3'        9.4870  -16.0110   -4.1130 O.3    43  DA43       -0.3138
    897  C2'        8.4220  -17.0780   -6.0890 C.3    43  DA43        0.0865
    898  C1'        7.2780  -18.0670   -6.1450 C.3    43  DA43        0.2094
    899  N9         6.0650  -17.5860   -6.6210 N.ar   43  DA43       -0.2714
    900  C8         5.0320  -17.1240   -5.8480 C.ar   43  DA43        0.1815
    901  N7         4.0450  -16.6050   -6.5400 N.ar   43  DA43       -0.2193
    902  C5         4.4590  -16.7350   -7.8560 C.ar   43  DA43        0.1518
    903  C6         3.8590  -16.3770   -9.0760 C.ar   43  DA43        0.1919
    904  N6         2.6630  -15.7910   -9.1680 N.pl3  43  DA43       -0.1054
    905  N1         4.5390  -16.6450  -10.2120 N.ar   43  DA43       -0.2040
    906  C2         5.7370  -17.2330  -10.1190 C.ar   43  DA43        0.2016
    907  N3         6.4030  -17.6170   -9.0320 N.ar   43  DA43       -0.2048
    908  C4         5.7020  -17.3360   -7.9220 C.ar   43  DA43        0.1691
    909  P          9.7160  -14.4350   -4.1560 P.3    44  DG44        0.2141
    910  OP1       11.0760  -13.9120   -3.8210 O.2    44  DG44       -0.5172
    911  OP2        8.4400  -13.7750   -3.7230 O.3    44  DG44       -0.4373
    912  O5'        9.6750  -14.4570   -5.7330 O.3    44  DG44       -0.3114
    913  C5'       10.9330  -14.7900   -6.2320 C.3    44  DG44        0.1811
    914  C4'       10.8350  -14.6440   -7.7160 C.3    44  DG44        0.1746
    915  O4'        9.6840  -15.3560   -8.2210 O.3    44  DG44       -0.3327
    916  C3'       10.4340  -13.2440   -8.0060 C.3    44  DG44        0.1558
    917  O3'       11.5370  -12.4010   -7.8180 O.3    44  DG44       -0.3138
    918  C2'       10.0360  -13.3990   -9.4290 C.3    44  DG44        0.0865
    919  C1'        9.3230  -14.7250   -9.4170 C.3    44  DG44        0.2094
    920  N9         7.8670  -14.6790   -9.2300 N.ar   44  DG44       -0.2713
    921  C8         7.1330  -14.5880   -8.0720 C.ar   44  DG44        0.1816
    922  N7         5.9120  -14.1690   -8.2680 N.ar   44  DG44       -0.2173
    923  C5         5.8310  -13.9730   -9.6340 C.ar   44  DG44        0.1748
    924  C6         4.7530  -13.5230  -10.4400 C.ar   44  DG44        0.3025
    925  O6         3.6140  -13.1990  -10.0830 O.2    44  DG44       -0.2633
    926  N1         5.0990  -13.4670  -11.7870 N.ar   44  DG44       -0.1685
    927  C2         6.3310  -13.8020  -12.2950 C.ar   44  DG44        0.2746
    928  N2         6.4750  -13.6840  -13.6220 N.ar   44  DG44       -0.1050
    929  N3         7.3420  -14.2210  -11.5590 N.ar   44  DG44       -0.1895
    930  C4         7.0290  -14.2830  -10.2470 C.ar   44  DG44        0.1725
    931  P         11.0960  -10.9020   -8.1010 P.3    45  DA45        0.2141
    932  OP1       12.3020  -10.3640   -7.4180 O.3    45  DA45       -0.4373
    933  OP2        9.7620  -10.3500   -7.7450 O.2    45  DA45       -0.5172
    934  O5'       11.3110  -10.8510   -9.6860 O.3    45  DA45       -0.3114
    935  C5'       11.6060   -9.6320  -10.3380 C.3    45  DA45        0.1811
    936  C4'       10.9700   -9.5700  -11.7100 C.3    45  DA45        0.1746
    937  O4'        9.9130  -10.5500  -11.8890 O.3    45  DA45       -0.3327
    938  C3'       10.2960   -8.2360  -11.9700 C.3    45  DA45        0.1558
    939  O3'       11.2330   -7.2410  -12.3400 O.3    45  DA45       -0.3138
    940  C2'        9.2810   -8.5670  -13.0560 C.3    45  DA45        0.0865
    941  C1'        8.8550   -9.9770  -12.6480 C.3    45  DA45        0.2094
    942  N9         7.6020  -10.0000  -11.8180 N.ar   45  DA45       -0.2714
    943  C8         7.4800  -10.2270  -10.4720 C.ar   45  DA45        0.1815
    944  N7         6.2390  -10.3630  -10.0690 N.ar   45  DA45       -0.2193
    945  C5         5.4950  -10.2140  -11.2290 C.ar   45  DA45        0.1518
    946  C6         4.1120  -10.2520  -11.4770 C.ar   45  DA45        0.1919
    947  N6         3.1960  -10.4600  -10.5280 N.pl3  45  DA45       -0.1054
    948  N1         3.6980  -10.0650  -12.7480 N.ar   45  DA45       -0.2040
    949  C2         4.6160   -9.8560  -13.6980 C.ar   45  DA45        0.2016
    950  N3         5.9420   -9.8010  -13.5890 N.ar   45  DA45       -0.2048
    951  C4         6.3210   -9.9890  -12.3140 C.ar   45  DA45        0.1691
    952  P         10.8540   -5.8420  -12.0630 P.3    46  DC46        0.2141
    953  OP1       12.0220   -5.0590  -12.5270 O.2    46  DC46       -0.5172
    954  OP2       10.4860   -5.8720  -10.6280 O.3    46  DC46       -0.4373
    955  O5'        9.5320   -5.3100  -12.7940 O.3    46  DC46       -0.3114
    956  C5'        9.5660   -5.1150  -14.2000 C.3    46  DC46        0.1811
    957  C4'        8.1930   -4.9640  -14.8150 C.3    46  DC46        0.1746
    958  O4'        7.3420   -6.1020  -14.5160 O.3    46  DC46       -0.3327
    959  C3'        7.3580   -3.7990  -14.3260 C.3    46  DC46        0.1558
    960  O3'        7.8000   -2.5470  -14.8090 O.3    46  DC46       -0.3138
    961  C2'        5.9780   -4.1900  -14.8290 C.3    46  DC46        0.0866
    962  C1'        5.9890   -5.6880  -14.5270 C.3    46  DC46        0.2106
    963  N1         5.3110   -5.9930  -13.2250 N.ar   46  DC46       -0.2556
    964  C2         3.9120   -6.0120  -13.1760 C.ar   46  DC46        0.3531
    965  O2         3.2740   -5.6870  -14.1910 O.2    46  DC46       -0.2443
    966  N3         3.2970   -6.3830  -12.0270 N.ar   46  DC46       -0.1739
    967  C4         4.0230   -6.7230  -10.9610 C.ar   46  DC46        0.1759
    968  N4         3.3740   -7.0820   -9.8510 N.pl3  46  DC46       -0.1070
    969  C5         5.4420   -6.7100  -10.9910 C.ar   46  DC46        0.0566
    970  C6         6.0450   -6.3430  -12.1270 C.ar   46  DC46        0.0849
    971  P          7.7120   -1.3320  -13.7800 P.3    47  DT47        0.2141
    972  OP1        8.4580   -0.2080  -14.3930 O.2    47  DT47       -0.5172
    973  OP2        7.9960   -1.7490  -12.3870 O.3    47  DT47       -0.4373
    974  O5'        6.1390   -1.0290  -13.7740 O.3    47  DT47       -0.3114
    975  C5'        5.4210   -0.7040  -14.9570 C.3    47  DT47        0.1811
    976  C4'        3.9320   -0.7090  -14.7110 C.3    47  DT47        0.1746
    977  O4'        3.5500   -1.9980  -14.1710 O.3    47  DT47       -0.3327
    978  C3'        3.4070    0.3020  -13.6950 C.3    47  DT47        0.1558
    979  O3'        3.1400    1.5700  -14.2670 O.3    47  DT47       -0.3138
    980  C2'        2.1420   -0.3530  -13.1650 C.3    47  DT47        0.0866
    981  C1'        2.4930   -1.8400  -13.2490 C.3    47  DT47        0.2106
    982  N1         2.8790   -2.3700  -11.9500 N.ar   47  DT47       -0.2559
    983  C2         1.8830   -2.6550  -11.0350 C.ar   47  DT47        0.3545
    984  O2         0.7050   -2.4190  -11.2410 O.2    47  DT47       -0.2443
    985  N3         2.3160   -3.2280   -9.8640 N.ar   47  DT47       -0.1533
    986  C4         3.6160   -3.5370   -9.5240 C.ar   47  DT47        0.2804
    987  O4         3.8500   -4.0510   -8.4330 O.2    47  DT47       -0.2654
    988  C5         4.5920   -3.2100  -10.5250 C.ar   47  DT47        0.0534
    989  C6         4.1980   -2.6520  -11.6730 C.ar   47  DT47        0.0824
    990  C7         6.0360   -3.5080  -10.2480 C.3    47  DT47        0.0377
    991  P          3.6810    3.0160  -13.5420 P.3    48  DA48        0.2141
    992  OP1        4.0810    4.1020  -14.4710 O.2    48  DA48       -0.5172
    993  OP2        4.2050    3.0040  -12.1580 O.3    48  DA48       -0.4373
    994  O5'        2.0890    2.9850  -13.3530 O.3    48  DA48       -0.3114
    995  C5'        1.2700    3.7810  -14.2020 C.3    48  DA48        0.1811
    996  C4'       -0.2070    3.6710  -13.8910 C.3    48  DA48        0.1746
    997  O4'       -0.5890    2.2880  -13.6780 O.3    48  DA48       -0.3327
    998  C3'       -0.7100    4.4250  -12.6670 C.3    48  DA48        0.1558
    999  O3'       -1.0050    5.7710  -13.0000 O.3    48  DA48       -0.3138
   1000  C2'       -1.9420    3.6320  -12.2490 C.3    48  DA48        0.0865
   1001  C1'       -1.6120    2.2100  -12.7150 C.3    48  DA48        0.2094
   1002  N9        -1.2830    1.1360  -11.8400 N.ar   48  DA48       -0.2714
   1003  C8        -0.1560    0.3590  -11.8970 C.ar   48  DA48        0.1815
   1004  N7        -0.0400   -0.4780  -10.8940 N.ar   48  DA48       -0.2193
   1005  C5        -1.1670   -0.2340  -10.1250 C.ar   48  DA48        0.1518
   1006  C6        -1.6330   -0.7960   -8.9240 C.ar   48  DA48        0.1919
   1007  N6        -0.9910   -1.7620   -8.2620 N.pl3  48  DA48       -0.1054
   1008  N1        -2.7940   -0.3260   -8.4210 N.ar   48  DA48       -0.2040
   1009  C2        -3.4370    0.6410   -9.0850 C.ar   48  DA48        0.2016
   1010  N3        -3.1000    1.2480  -10.2220 N.ar   48  DA48       -0.2048
   1011  C4        -1.9410    0.7590  -10.6950 C.ar   48  DA48        0.1691
   1012  P         -1.2560    7.0570  -11.8660 P.3    49  DC49        0.2141
   1013  OP1       -1.4970    8.4750  -12.2120 O.2    49  DC49       -0.5172
   1014  OP2        0.1020    6.6240  -11.4690 O.3    49  DC49       -0.4373
   1015  O5'       -2.1710    6.6510  -10.6120 O.3    49  DC49       -0.3114
   1016  C5'       -3.4100    7.3000  -10.3450 C.3    49  DC49        0.1811
   1017  C4'       -4.3340    6.4400   -9.5160 C.3    49  DC49        0.1746
   1018  O4'       -4.0250    5.0460   -9.7690 O.3    49  DC49       -0.3327
   1019  C3'       -4.2090    6.5440   -8.0030 C.3    49  DC49        0.1558
   1020  O3'       -4.8810    7.6480   -7.4280 O.3    49  DC49       -0.3138
   1021  C2'       -4.7740    5.2120   -7.5300 C.3    49  DC49        0.0866
   1022  C1'       -4.2140    4.2840   -8.5940 C.3    49  DC49        0.2106
   1023  N1        -3.1500    3.5370   -8.2260 N.ar   49  DC49       -0.2556
   1024  C2        -3.2260    2.4880   -7.3020 C.ar   49  DC49        0.3531
   1025  O2        -4.3200    2.2420   -6.7670 O.2    49  DC49       -0.2443
   1026  N3        -2.1100    1.7760   -7.0190 N.ar   49  DC49       -0.1739
   1027  C4        -0.9560    2.0770   -7.6170 C.ar   49  DC49        0.1759
   1028  N4         0.1180    1.3470   -7.3070 N.pl3  49  DC49       -0.1070
   1029  C5        -0.8580    3.1360   -8.5560 C.ar   49  DC49        0.0566
   1030  C6        -1.9630    3.8370   -8.8330 C.ar   49  DC49        0.0849
   1031  P         -4.7120    7.7250   -6.0510 P.3    50  DA50        0.2141
   1032  OP1       -5.5500    8.9550   -5.8840 O.3    50  DA50       -0.4373
   1033  OP2       -3.2300    7.8220   -5.9360 O.2    50  DA50       -0.5172
   1034  O5'       -5.2110    6.6440   -4.9870 O.3    50  DA50       -0.3114
   1035  C5'       -6.5590    6.6520   -4.5060 C.3    50  DA50        0.1811
   1036  C4'       -6.7410    5.6340   -3.4050 C.3    50  DA50        0.1746
   1037  O4'       -6.3020    4.3390   -3.9010 O.3    50  DA50       -0.3327
   1038  C3'       -5.9500    5.8340   -2.1140 C.3    50  DA50        0.1558
   1039  O3'       -6.6080    6.7010   -1.1910 O.3    50  DA50       -0.3138
   1040  C2'       -5.8660    4.4160   -1.5600 C.3    50  DA50        0.0865
   1041  C1'       -5.7390    3.5840   -2.8370 C.3    50  DA50        0.2094
   1042  N9        -4.3250    3.2770   -3.1940 N.ar   50  DA50       -0.2714
   1043  C8        -3.4530    3.9970   -3.9680 C.ar   50  DA50        0.1815
   1044  N7        -2.2610    3.4570   -4.0640 N.ar   50  DA50       -0.2193
   1045  C5        -2.3570    2.3040   -3.3000 C.ar   50  DA50        0.1518
   1046  C6        -1.4310    1.2900   -2.9980 C.ar   50  DA50        0.1919
   1047  N6        -0.1750    1.2760   -3.4510 N.pl3  50  DA50       -0.1054
   1048  N1        -1.8460    0.2790   -2.2050 N.ar   50  DA50       -0.2040
   1049  C2        -3.1050    0.2940   -1.7520 C.ar   50  DA50        0.2016
   1050  N3        -4.0650    1.1900   -1.9670 N.ar   50  DA50       -0.2048
   1051  C4        -3.6210    2.1810   -2.7570 C.ar   50  DA50        0.1691
   1052  P         -5.8030    7.3950    0.0150 P.3    51  DG51        0.2141
   1053  OP1       -6.5990    8.5140    0.5770 O.3    51  DG51       -0.4373
   1054  OP2       -4.5190    7.6380   -0.6850 O.2    51  DG51       -0.5172
   1055  O5'       -5.4360    6.3700    1.1840 O.3    51  DG51       -0.3114
   1056  C5'       -6.4110    5.3940    1.5080 C.3    51  DG51        0.1811
   1057  C4'       -5.7560    4.1290    1.9880 C.3    51  DG51        0.1746
   1058  O4'       -5.1780    3.4000    0.8740 O.3    51  DG51       -0.3327
   1059  C3'       -4.5860    4.3380    2.9270 C.3    51  DG51        0.1558
   1060  O3'       -5.0070    4.6430    4.2430 O.3    51  DG51       -0.3138
   1061  C2'       -3.8190    3.0270    2.7980 C.3    51  DG51        0.0865
   1062  C1'       -4.0420    2.6900    1.3230 C.3    51  DG51        0.2094
   1063  N9        -2.9490    3.0370    0.4960 N.ar   51  DG51       -0.2713
   1064  C8        -2.8910    4.0560   -0.4250 C.ar   51  DG51        0.1816
   1065  N7        -1.7290    4.1560   -1.0100 N.ar   51  DG51       -0.2173
   1066  C5        -0.9730    3.1450   -0.4470 C.ar   51  DG51        0.1748
   1067  C6         0.3720    2.7580   -0.6810 C.ar   51  DG51        0.3023
   1068  O6         1.1870    3.2570   -1.4660 O.2    51  DG51       -0.2633
   1069  N1         0.7470    1.6750    0.1100 N.ar   51  DG51       -0.1709
   1070  C2        -0.0730    1.0420    1.0130 C.ar   51  DG51        0.2606
   1071  N2         0.4680    0.0150    1.6830 N.pl3  51  DG51       -0.0859
   1072  N3        -1.3240    1.3910    1.2420 N.ar   51  DG51       -0.1918
   1073  C4        -1.7090    2.4410    0.4860 C.ar   51  DG51        0.1722
   1074  P         -4.0940    5.6280    5.1180 P.3    52  DA52        0.2141
   1075  OP1       -4.7610    5.6030    6.4600 O.3    52  DA52       -0.4373
   1076  OP2       -4.1110    6.8900    4.3350 O.2    52  DA52       -0.5172
   1077  O5'       -2.5870    5.0590    5.2600 O.3    52  DA52       -0.3114
   1078  C5'       -2.3030    4.0580    6.2380 C.3    52  DA52        0.1811
   1079  C4'       -0.8540    3.6660    6.2240 C.3    52  DA52        0.1746
   1080  O4'       -0.5630    3.2030    4.8930 O.3    52  DA52       -0.3327
   1081  C3'        0.1400    4.7970    6.4750 C.3    52  DA52        0.1558
   1082  O3'        0.3150    5.1020    7.8540 O.3    52  DA52       -0.3138
   1083  C2'        1.3790    4.1480    5.8660 C.3    52  DA52        0.0865
   1084  C1'        0.8010    3.4620    4.6180 C.3    52  DA52        0.2094
   1085  N9         0.9670    4.4090    3.4270 N.ar   52  DA52       -0.2714
   1086  C8        -0.0680    5.0410    2.7880 C.ar   52  DA52        0.1815
   1087  N7         0.3080    5.7640    1.7600 N.ar   52  DA52       -0.2193
   1088  C5         1.6830    5.5960    1.7220 C.ar   52  DA52        0.1518
   1089  C6         2.6740    6.1020    0.8630 C.ar   52  DA52        0.1919
   1090  N6         2.4170    6.9140   -0.1650 N.pl3  52  DA52       -0.1054
   1091  N1         3.9530    5.7410    1.1000 N.ar   52  DA52       -0.2040
   1092  C2         4.2100    4.9270    2.1310 C.ar   52  DA52        0.2016
   1093  N3         3.3650    4.3860    3.0050 N.ar   52  DA52       -0.2048
   1094  C4         2.1030    4.7650    2.7430 C.ar   52  DA52        0.1691
   1095  P          0.4580    6.6110    8.3930 P.3    53  DA53        0.2141
   1096  OP1        0.3700    6.6940    9.8780 O.3    53  DA53       -0.4373
   1097  OP2       -0.3960    7.5040    7.5640 O.2    53  DA53       -0.5172
   1098  O5'        1.9800    6.8140    7.9410 O.3    53  DA53       -0.3114
   1099  C5'        3.0620    6.3550    8.7530 C.3    53  DA53        0.1811
   1100  C4'        4.3960    6.6090    8.0740 C.3    53  DA53        0.1746
   1101  O4'        4.3880    5.9940    6.7600 O.3    53  DA53       -0.3327
   1102  C3'        4.8120    8.0540    7.8140 C.3    53  DA53        0.1558
   1103  O3'        5.4810    8.6640    8.9170 O.3    53  DA53       -0.3138
   1104  C2'        5.7930    7.9150    6.6610 C.3    53  DA53        0.0865
   1105  C1'        5.1970    6.7480    5.8740 C.3    53  DA53        0.2094
   1106  N9         4.3720    7.2140    4.7970 N.ar   53  DA53       -0.2714
   1107  C8         3.0230    7.4530    4.8260 C.ar   53  DA53        0.1815
   1108  N7         2.5510    7.9570    3.7100 N.ar   53  DA53       -0.2193
   1109  C5         3.6660    8.0570    2.8940 C.ar   53  DA53        0.1518
   1110  C6         3.8350    8.5180    1.5760 C.ar   53  DA53        0.1919
   1111  N6         2.8370    8.9830    0.8220 N.pl3  53  DA53       -0.1054
   1112  N1         5.0800    8.4840    1.0560 N.ar   53  DA53       -0.2040
   1113  C2         6.0800    8.0170    1.8120 C.ar   53  DA53        0.2016
   1114  N3         6.0450    7.5570    3.0610 N.ar   53  DA53       -0.2048
   1115  C4         4.7950    7.6040    3.5490 C.ar   53  DA53        0.1691
   1116  P          5.6830   10.3620    8.9600 P.3    54  DG54        0.2141
   1117  OP1        6.2890   10.4070   10.3080 O.3    54  DG54       -0.4373
   1118  OP2        4.3030   10.8420    8.7250 O.2    54  DG54       -0.5172
   1119  O5'        6.5760   11.2510    7.9740 O.3    54  DG54       -0.3114
   1120  C5'        7.9730   11.2050    8.1980 C.3    54  DG54        0.1811
   1121  C4'        8.7540   11.7320    7.0280 C.3    54  DG54        0.1746
   1122  O4'        8.2460   11.1620    5.7970 O.3    54  DG54       -0.3327
   1123  C3'        8.6560   13.2220    6.7750 C.3    54  DG54        0.1558
   1124  O3'        9.4230   13.9890    7.6780 O.3    54  DG54       -0.3138
   1125  C2'        9.1350   13.3120    5.3360 C.3    54  DG54        0.0865
   1126  C1'        8.4500   12.0810    4.7430 C.3    54  DG54        0.2094
   1127  N9         7.2180   12.5300    4.0770 N.ar   54  DG54       -0.2713
   1128  C8         5.9610   12.0550    4.3620 C.ar   54  DG54        0.1816
   1129  N7         5.0530   12.4610    3.5160 N.ar   54  DG54       -0.2173
   1130  C5         5.7490   13.2480    2.6180 C.ar   54  DG54        0.1748
   1131  C6         5.3020   13.9640    1.4780 C.ar   54  DG54        0.3023
   1132  O6         4.1530   14.0410    1.0240 O.2    54  DG54       -0.2633
   1133  N1         6.3420   14.6380    0.8440 N.ar   54  DG54       -0.1709
   1134  C2         7.6530   14.6240    1.2590 C.ar   54  DG54        0.2606
   1135  N2         8.5140   15.3350    0.5180 N.pl3  54  DG54       -0.0859
   1136  N3         8.0830   13.9650    2.3160 N.ar   54  DG54       -0.1918
   1137  C4         7.0900   13.3030    2.9470 C.ar   54  DG54        0.1722
   1138  P          8.7300   14.9140    8.1200 P.3    55  DA55        0.2141
   1139  OP1        9.5800   15.3970    9.2330 O.3    55  DA55       -0.4373
   1140  OP2        7.2820   14.6570    8.3580 O.2    55  DA55       -0.5172
   1141  O5'        8.8250   15.8860    6.8650 O.3    55  DA55       -0.3114
   1142  C5'       10.0630   16.0880    6.2210 C.3    55  DA55        0.1811
   1143  C4'        9.8900   17.0240    5.0630 C.3    55  DA55        0.1746
   1144  O4'        9.3100   16.3230    3.9320 O.3    55  DA55       -0.3327
   1145  C3'        8.9290   18.1650    5.3140 C.3    55  DA55        0.1558
   1146  O3'        9.4550   19.2080    6.1140 O.3    55  DA55       -0.3138
   1147  C2'        8.5200   18.5640    3.9010 C.3    55  DA55        0.0865
   1148  C1'        8.4320   17.1890    3.2290 C.3    55  DA55        0.2094
   1149  N9         6.9970   16.6100    3.4880 N.ar   55  DA55       -0.2714
   1150  C8         6.5050   15.8610    4.5240 C.ar   55  DA55        0.1815
   1151  N7         5.2100   15.6550    4.4590 N.ar   55  DA55       -0.2193
   1152  C5         4.8270   16.3150    3.3020 C.ar   55  DA55        0.1518
   1153  C6         3.5800   16.4740    2.6730 C.ar   55  DA55        0.1919
   1154  N6         2.4430   15.9570    3.1450 N.pl3  55  DA55       -0.1054
   1155  N1         3.5410   17.1910    1.5300 N.ar   55  DA55       -0.2040
   1156  C2         4.6820   17.7080    1.0580 C.ar   55  DA55        0.2016
   1157  N3         5.9120   17.6260    1.5580 N.ar   55  DA55       -0.2048
   1158  C4         5.9160   16.9080    2.6940 C.ar   55  DA55        0.1691
   1159  P          8.5470   19.7920    7.3100 P.3    56  DC56        0.2141
   1160  OP1        9.5560   20.8040    7.6890 O.2    56  DC56       -0.5172
   1161  OP2        7.6110   19.2440    8.3260 O.3    56  DC56       -0.4373
   1162  O5'        7.6680   20.4380    6.1510 O.3    56  DC56       -0.3114
   1163  C5'        8.0640   21.6530    5.5440 C.3    56  DC56        0.1811
   1164  C4'        6.8510   22.2310    4.8550 C.3    56  DC56        0.1746
   1165  O4'        6.2740   21.2060    4.0030 O.3    56  DC56       -0.3327
   1166  C3'        5.7040   22.5870    5.7860 C.3    56  DC56        0.1558
   1167  O3'        5.9290   23.8380    6.4410 O.3    56  DC56       -0.3138
   1168  C2'        4.5640   22.6380    4.7680 C.3    56  DC56        0.0866
   1169  C1'        4.8730   21.3970    3.9340 C.3    56  DC56        0.2106
   1170  N1         4.1430   20.2230    4.4630 N.ar   56  DC56       -0.2556
   1171  C2         2.8090   20.0440    4.0800 C.ar   56  DC56        0.3531
   1172  O2         2.2640   20.9190    3.3850 O.2    56  DC56       -0.2443
   1173  N3         2.1520   18.9270    4.4760 N.ar   56  DC56       -0.1739
   1174  C4         2.7770   18.0150    5.2220 C.ar   56  DC56        0.1759
   1175  N4         2.0900   16.9310    5.5880 N.pl3  56  DC56       -0.1070
   1176  C5         4.1280   18.1780    5.6210 C.ar   56  DC56        0.0566
   1177  C6         4.7730   19.2820    5.2280 C.ar   56  DC56        0.0849
   1178  P          5.3970   24.1950    8.0380 P.3    57  DA57        0.2141
   1179  OP1        6.0070   25.5360    8.2110 O.2    57  DA57       -0.5172
   1180  OP2        5.4600   23.2140    9.1460 O.3    57  DA57       -0.4373
   1181  O5'        3.8730   24.3030    7.5540 O.3    57  DA57       -0.3114
   1182  C5'        3.4670   25.2840    6.6010 C.3    57  DA57        0.1811
   1183  C4'        2.0220   25.0840    6.1790 C.3    57  DA57        0.1746
   1184  O4'        1.8740   23.8040    5.5090 O.3    57  DA57       -0.3327
   1185  C3'        0.9420   25.0530    7.2510 C.3    57  DA57        0.1558
   1186  O3'        0.5440   26.3320    7.7280 O.3    57  DA57       -0.3138
   1187  C2'       -0.2000   24.3560    6.5220 C.3    57  DA57        0.0865
   1188  C1'        0.5530   23.3100    5.7020 C.3    57  DA57        0.2094
   1189  N9         0.6050   22.0480    6.4870 N.ar   57  DA57       -0.2714
   1190  C8         1.6880   21.5020    7.1250 C.ar   57  DA57        0.1815
   1191  N7         1.4590   20.3150    7.6340 N.ar   57  DA57       -0.2193
   1192  C5         0.1350   20.0650    7.3090 C.ar   57  DA57        0.1518
   1193  C6        -0.7110   18.9710    7.5620 C.ar   57  DA57        0.1919
   1194  N6        -0.3290   17.8790    8.2290 N.pl3  57  DA57       -0.1054
   1195  N1        -1.9780   19.0380    7.1010 N.ar   57  DA57       -0.2040
   1196  C2        -2.3600   20.1320    6.4310 C.ar   57  DA57        0.2016
   1197  N3        -1.6580   21.2220    6.1300 N.ar   57  DA57       -0.2048
   1198  C4        -0.4040   21.1240    6.6040 C.ar   57  DA57        0.1691
   1199  P          0.2660   26.4910    9.1960 P.3    58  DC58        0.2141
   1200  OP1       -0.4090   27.5380    9.9960 O.3    58  DC58       -0.4373
   1201  OP2        1.2560   25.5980    9.8340 O.2    58  DC58       -0.5172
   1202  O5'       -0.8430   25.5810    8.4890 O.3    58  DC58       -0.3114
   1203  C5'       -1.9710   26.2050    7.8680 C.3    58  DC58        0.1811
   1204  C4'       -3.2550   25.5110    8.2780 C.3    58  DC58        0.1746
   1205  O4'       -3.1500   24.0970    7.9760 O.3    58  DC58       -0.3327
   1206  C3'       -3.5600   25.5340    9.7690 C.3    58  DC58        0.1558
   1207  O3'       -4.1730   26.7600   10.1560 O.3    58  DC58       -0.3138
   1208  C2'       -4.5300   24.3650    9.8820 C.3    58  DC58        0.0866
   1209  C1'       -3.9100   23.3610    8.9170 C.3    58  DC58        0.2106
   1210  N1        -3.0810   22.4300    9.6340 N.ar   58  DC58       -0.2556
   1211  C2        -3.6470   21.2930   10.2210 C.ar   58  DC58        0.3531
   1212  O2        -4.8760   21.1250   10.1360 O.2    58  DC58       -0.2443
   1213  N3        -2.8430   20.4120   10.8630 N.ar   58  DC58       -0.1739
   1214  C4        -1.5300   20.6330   10.9300 C.ar   58  DC58        0.1759
   1215  N4        -0.7770   19.7370   11.5730 N.pl3  58  DC58       -0.1070
   1216  C5        -0.9370   21.7790   10.3420 C.ar   58  DC58        0.0566
   1217  C6        -1.7340   22.6470    9.7090 C.ar   58  DC58        0.0849
   1218  P         -3.8960   27.3940   11.5330 P.3    59  DG59        0.2141
   1219  OP1       -3.9600   28.8760   11.6250 O.3    59  DG59       -0.4373
   1220  OP2       -2.5760   26.7310   11.3280 O.2    59  DG59       -0.5172
   1221  O5'       -4.5010   26.7700   12.8680 O.3    59  DG59       -0.3114
   1222  C5'       -5.8950   26.7790   13.0960 C.3    59  DG59        0.1811
   1223  C4'       -6.2910   25.6830   14.0600 C.3    59  DG59        0.1746
   1224  O4'       -5.9180   24.3920   13.5190 O.3    59  DG59       -0.3327
   1225  C3'       -5.6890   25.6600   15.4550 C.3    59  DG59        0.1558
   1226  O3'       -6.3280   26.6210   16.3000 O.3    59  DG59       -0.3138
   1227  C2'       -6.0320   24.2330   15.8760 C.3    59  DG59        0.0865
   1228  C1'       -5.7880   23.4660   14.5760 C.3    59  DG59        0.2094
   1229  N9        -4.4270   22.8910   14.5830 N.ar   59  DG59       -0.2713
   1230  C8        -3.4320   23.2590   13.7100 C.ar   59  DG59        0.1816
   1231  N7        -2.3690   22.5060   13.7940 N.ar   59  DG59       -0.2173
   1232  C5        -2.6780   21.5850   14.7770 C.ar   59  DG59        0.1746
   1233  C6        -1.9160   20.5130   15.3090 C.ar   59  DG59        0.3001
   1234  O6        -0.7720   20.1580   14.9990 O.2    59  DG59       -0.2635
   1235  N1        -2.6100   19.8230   16.3000 N.ar   59  DG59       -0.1881
   1236  C2        -3.8810   20.1280   16.7240 C.ar   59  DG59        0.2410
   1237  N2        -4.3840   19.3470   17.6890 N.pl3  59  DG59       -0.1663
   1238  N3        -4.6000   21.1210   16.2400 N.ar   59  DG59       -0.1932
   1239  C4        -3.9460   21.8050   15.2770 C.ar   59  DG59        0.1722
   1240  P         -5.5650   27.2460   17.6470 P.3    60  DC60        0.2141
   1241  OP1       -6.6600   28.2560   17.8480 O.2    60  DC60       -0.5172
   1242  OP2       -4.2410   27.4680   18.3150 O.3    60  DC60       -0.4373
   1243  O5'       -6.1150   25.8020   18.0760 O.3    60  DC60       -0.3114
   1244  C5'       -7.2070   25.6820   18.9880 C.3    60  DC60        0.1811
   1245  C4'       -6.8790   24.7270   20.1110 C.3    60  DC60        0.1746
   1246  O4'       -6.3550   23.5020   19.5310 O.3    60  DC60       -0.3327
   1247  C3'       -5.8270   25.1210   21.1530 C.3    60  DC60        0.1558
   1248  O3'       -6.3560   25.9280   22.2180 O.3    60  DC60       -0.3138
   1249  C2'       -5.4090   23.7570   21.6950 C.3    60  DC60        0.0866
   1250  C1'       -5.4400   22.8920   20.4340 C.3    60  DC60        0.2106
   1251  N1        -4.2520   22.6850   19.7370 N.ar   60  DC60       -0.2556
   1252  C2        -3.3760   21.6800   20.1620 C.ar   60  DC60        0.3531
   1253  O2        -3.7480   20.9030   21.0580 O.2    60  DC60       -0.2443
   1254  N3        -2.1530   21.5840   19.5880 N.ar   60  DC60       -0.1739
   1255  C4        -1.7970   22.4410   18.6300 C.ar   60  DC60        0.1759
   1256  N4        -0.5820   22.3080   18.0930 N.pl3  60  DC60       -0.1070
   1257  C5        -2.6700   23.4670   18.1850 C.ar   60  DC60        0.0566
   1258  C6        -3.8760   23.5580   18.7550 C.ar   60  DC60        0.0849
   1259  P         -5.3420   26.9020   23.1030 P.3    61  DC61        0.2141
   1260  OP1       -6.0440   27.9300   23.9250 O.3    61  DC61       -0.4373
   1261  OP2       -4.5820   27.3030   21.8970 O.2    61  DC61       -0.5172
   1262  O5'       -4.3480   26.0410   24.0230 O.3    61  DC61       -0.3114
   1263  C5'       -4.7360   25.6170   25.3090 C.3    61  DC61        0.1811
   1264  C4'       -3.8080   24.5280   25.7840 C.3    61  DC61        0.1746
   1265  O4'       -3.5900   23.6000   24.6970 O.3    61  DC61       -0.3327
   1266  C3'       -2.4050   24.9610   26.1580 C.3    61  DC61        0.1558
   1267  O3'       -2.3380   25.6070   27.4630 O.3    61  DC61       -0.3138
   1268  C2'       -1.6870   23.6100   26.0810 C.3    61  DC61        0.0866
   1269  C1'       -2.3180   23.0080   24.8360 C.3    61  DC61        0.2106
   1270  N1        -1.5190   23.2150   23.7170 N.ar   61  DC61       -0.2556
   1271  C2        -0.3530   22.4740   23.4930 C.ar   61  DC61        0.3531
   1272  O2        -0.0180   21.6200   24.3300 O.2    61  DC61       -0.2443
   1273  N3         0.3730   22.7100   22.3740 N.ar   61  DC61       -0.1739
   1274  C4        -0.0260   23.6390   21.5040 C.ar   61  DC61        0.1759
   1275  N4         0.7220   23.8360   20.4150 N.pl3  61  DC61       -0.1070
   1276  C5        -1.2040   24.4000   21.7130 C.ar   61  DC61        0.0566
   1277  C6        -1.9180   24.1640   22.8190 C.ar   61  DC61        0.0849
   1278  P         -1.0770   25.9380   28.0230 P.3    62  DC62        0.2141
   1279  OP1       -1.2840   26.6590   29.3070 O.3    62  DC62       -0.4373
   1280  OP2       -0.8020   26.7220   26.7800 O.2    62  DC62       -0.5172
   1281  O5'        0.0810   24.8820   28.2680 O.3    62  DC62       -0.3114
   1282  C5'       -0.1700   23.7190   29.0290 C.3    62  DC62        0.1811
   1283  C4'        0.9360   22.7270   28.8130 C.3    62  DC62        0.1746
   1284  O4'        0.8970   22.2230   27.4510 O.3    62  DC62       -0.3327
   1285  C3'        2.3320   23.2970   28.9520 C.3    62  DC62        0.1558
   1286  O3'        2.7490   23.4630   30.2930 O.3    62  DC62       -0.3138
   1287  C2'        3.1770   22.3130   28.1560 C.3    62  DC62        0.0866
   1288  C1'        2.2190   21.9390   27.0160 C.3    62  DC62        0.2106
   1289  N1         2.5110   22.7450   25.8450 N.ar   62  DC62       -0.2556
   1290  C2         3.6150   22.4200   25.0490 C.ar   62  DC62        0.3531
   1291  O2         4.3380   21.4670   25.3890 O.2    62  DC62       -0.2443
   1292  N3         3.8630   23.1500   23.9360 N.ar   62  DC62       -0.1739
   1293  C4         3.0600   24.1640   23.6110 C.ar   62  DC62        0.1759
   1294  N4         3.3440   24.8560   22.5040 N.pl3  62  DC62       -0.1070
   1295  C5         1.9360   24.5100   24.4040 C.ar   62  DC62        0.0566
   1296  C6         1.6950   23.7860   25.5030 C.ar   62  DC62        0.0849
   1297  P          3.8410   24.6330   30.6200 P.3    63  DG63        0.2141
   1298  OP1        4.1370   24.8280   32.0540 O.3    63  DG63       -0.4373
   1299  OP2        3.0870   25.7250   29.8920 O.2    63  DG63       -0.5172
   1300  O5'        5.1930   24.3350   29.8120 O.3    63  DG63       -0.3114
   1301  C5'        6.0930   23.2530   30.1970 C.3    63  DG63        0.1811
   1302  C4'        7.2840   23.1900   29.2640 C.3    63  DG63        0.1746
   1303  O4'        6.8920   22.6930   27.9510 O.3    63  DG63       -0.3327
   1304  C3'        7.9640   24.5160   28.9690 C.3    63  DG63        0.1558
   1305  O3'        8.8380   24.8750   30.0250 O.3    63  DG63       -0.3138
   1306  C2'        8.6680   24.2280   27.6420 C.3    63  DG63        0.0865
   1307  C1'        7.6390   23.3580   26.9350 C.3    63  DG63        0.2094
   1308  N9         6.7210   24.1780   26.1020 N.ar   63  DG63       -0.2713
   1309  C8         5.4610   24.6310   26.4090 C.ar   63  DG63        0.1816
   1310  N7         4.9220   25.3390   25.4550 N.ar   63  DG63       -0.2173
   1311  C5         5.8780   25.3540   24.4570 C.ar   63  DG63        0.1748
   1312  C6         5.8670   25.9660   23.1770 C.ar   63  DG63        0.3023
   1313  O6         4.9680   26.6410   22.6580 O.2    63  DG63       -0.2633
   1314  N1         7.0480   25.7340   22.4780 N.ar   63  DG63       -0.1709
   1315  C2         8.1100   25.0020   22.9540 C.ar   63  DG63        0.2606
   1316  N2         9.1630   24.8880   22.1340 N.pl3  63  DG63       -0.0859
   1317  N3         8.1350   24.4290   24.1410 N.ar   63  DG63       -0.1918
   1318  C4         6.9990   24.6420   24.8370 C.ar   63  DG63        0.1722
   1319  P          9.0720   26.3830   30.3650 P.3    64  DA64        0.2141
   1320  OP1       10.0310   26.6170   31.4850 O.3    64  DA64       -0.4373
   1321  OP2        7.9430   27.3240   30.1720 O.2    64  DA64       -0.5172
   1322  O5'        9.8470   26.3790   28.9740 O.3    64  DA64       -0.3114
   1323  C5'       11.0400   25.6110   28.7710 C.3    64  DA64        0.1811
   1324  C4'       11.5820   25.8780   27.3910 C.3    64  DA64        0.1746
   1325  O4'       10.5380   25.5920   26.4220 O.3    64  DA64       -0.3327
   1326  C3'       11.9530   27.3260   27.1150 C.3    64  DA64        0.1558
   1327  O3'       13.2830   27.5910   27.5330 O.3    64  DA64       -0.3138
   1328  C2'       11.8280   27.4100   25.6060 C.3    64  DA64        0.0865
   1329  C1'       10.6060   26.5260   25.3580 C.3    64  DA64        0.2094
   1330  N9         9.3640   27.2440   25.3070 N.ar   64  DA64       -0.2714
   1331  C8         8.3840   27.3690   26.2570 C.ar   64  DA64        0.1815
   1332  N7         7.3960   28.1540   25.8990 N.ar   64  DA64       -0.2193
   1333  C5         7.7520   28.5750   24.6280 C.ar   64  DA64        0.1518
   1334  C6         7.1210   29.4260   23.7020 C.ar   64  DA64        0.1919
   1335  N6         5.9510   30.0270   23.9290 N.pl3  64  DA64       -0.1054
   1336  N1         7.7430   29.6390   22.5230 N.ar   64  DA64       -0.2040
   1337  C2         8.9150   29.0340   22.2960 C.ar   64  DA64        0.2016
   1338  N3         9.6040   28.2150   23.0860 N.ar   64  DA64       -0.2048
   1339  C4         8.9610   28.0240   24.2500 C.ar   64  DA64        0.1691
   1340  P         13.8330   29.2120   28.2480 P.3    65  DC65        0.2141
   1341  OP1       15.2690   29.5320   28.3870 O.2    65  DC65       -0.5172
   1342  OP2       12.8490   29.8480   29.1590 O.3    65  DC65       -0.4373
   1343  O5'       13.3920   29.5310   26.7560 O.3    65  DC65       -0.3114
   1344  C5'       13.8760   28.7410   25.6600 C.3    65  DC65        0.1812
   1345  C4'       13.5030   29.4040   24.3690 C.3    65  DC65        0.1775
   1346  O4'       12.1020   29.1990   24.0720 O.3    65  DC65       -0.3326
   1347  C3'       13.6570   30.9060   24.4360 C.3    65  DC65        0.1864
   1348  O3'       15.0120   31.2400   24.2190 O.3    65  DC65       -0.2133
   1349  C2'       12.7060   31.3880   23.3520 C.3    65  DC65        0.0895
   1350  C1'       11.5690   30.3730   23.4870 C.3    65  DC65        0.2107
   1351  N1        10.4480   30.8830   24.3370 N.ar   65  DC65       -0.2556
   1352  C2         9.4040   31.5640   23.7000 C.ar   65  DC65        0.3531
   1353  O2         9.3850   31.6020   22.4580 O.2    65  DC65       -0.2443
   1354  N3         8.4480   32.1590   24.4530 N.ar   65  DC65       -0.1739
   1355  C4         8.5090   32.0930   25.7830 C.ar   65  DC65        0.1759
   1356  N4         7.5460   32.6950   26.4840 N.pl3  65  DC65       -0.1070
   1357  C5         9.5590   31.4080   26.4480 C.ar   65  DC65        0.0566
   1358  C6        10.5000   30.8210   25.7010 C.ar   65  DC65        0.0849
   1359  P         16.6380   33.0310   24.0750 P.3    66  DA66        0.3939
   1360  OP1       16.2990   33.5180   25.4390 O.3    66  DA66       -0.1425
   1361  OP2       16.3670   31.6130   23.7100 O.3    66  DA66       -0.1496
   1362  O5'       15.9230   33.9540   22.9890 O.3    66  DA66       -0.2926
   1363  C5'       14.5180   34.1450   23.0310 C.3    66  DA66        0.1828
   1364  C4'       14.1140   35.3530   22.2200 C.3    66  DA66        0.1754
   1365  O4'       14.0770   35.0040   20.8070 O.3    66  DA66       -0.3510
   1366  C3'       12.6970   35.8010   22.5340 C.3    66  DA66        0.1839
   1367  O3'       12.6690   36.6550   23.6680 O.3    66  DA66       -0.2204
   1368  C2'       12.2460   36.4550   21.2360 C.3    66  DA66        0.0676
   1369  C1'       12.9090   35.5430   20.2020 C.3    66  DA66        0.1450
   1370  N9        11.2080   35.4880   23.9030 N.ar   66  DA66       -0.2032
   1371  C8        11.6260   34.6340   24.8900 C.ar   66  DA66        0.2005
   1372  N7        10.8220   34.5890   25.9260 N.ar   66  DA66       -0.2179
   1373  C5         9.8070   35.4740   25.5970 C.ar   66  DA66        0.1534
   1374  C6         8.6450   35.8770   26.2790 C.ar   66  DA66        0.1919
   1375  N6         8.2990   35.4180   27.4840 N.pl3  66  DA66       -0.1054
   1376  N1         7.8430   36.7770   25.6730 N.ar   66  DA66       -0.2040
   1377  C2         8.1910   37.2360   24.4650 C.ar   66  DA66        0.2016
   1378  N3         9.2540   36.9330   23.7240 N.ar   66  DA66       -0.2031
   1379  C4        10.0320   36.0360   24.3550 C.ar   66  DA66        0.1862
@<TRIPOS>BOND
     1   691   690    2
     2   721   722    1
     3   721   720    1
     4   703   704    1
     5   703   705    1
     6   703   702    1
     7   718   717    2
     8   707   708    1
     9   707   705    1
    10   706   705    1
    11   706   717    1
    12   704   708    1
    13   708   709    1
    14   722   723    1
    15   722   724    1
    16   690   692   ar
    17   690   689   ar
    18   702   701    1
    19   687   688    1
    20   687   685    1
    21   717   720    1
    22   717   719    1
    23   723   727    1
    24   688   689    1
    25   688   684    1
    26   692   693   ar
    27   739   738    2
    28   725   724    1
    29   725   738    1
    30   711   710    2
    31   689   696   ar
    32   709   710   ar
    33   709   716   ar
    34   508   507    2
    35   724   726    1
    36   684   683    1
    37   701   698    1
    38   686   685    1
    39   686   698    1
    40   710   712   ar
    41   738   741    1
    42   738   740    1
    43   727   726    1
    44   727   728    1
    45   716   715   ar
    46   685   683    1
    47   699   698    2
    48   742   741    1
    49   742   743    1
    50   693   694    2
    51   693   695   ar
    52   683   682    1
    53   698   700    1
    54   486   485    2
    55   493   507    1
    56   493   492    1
    57   696   695   ar
    58   712   713   ar
    59   511   510    1
    60   511   512    1
    61   715   713   ar
    62   507   510    1
    63   507   509    1
    64   528   527    2
    65   728   729   ar
    66   728   737   ar
    67   695   697    1
    68   489   490    1
    69   489   488    1
    70   743   744    1
    71   743   745    1
    72   490   492    1
    73   490   491    1
    74   729   730   ar
    75   713   714    1
    76   744   748    1
    77   682   681    1
    78   492   494    1
    79   512   514    1
    80   512   513    1
    81   515   527    1
    82   515   514    1
    83   485   488    1
    84   485   473    1
    85   485   487    1
    86   737   736   ar
    87   737   731   ar
    88   527   530    1
    89   527   529    1
    90   494   495    1
    91   473   472    1
    92   736   735   ar
    93   746   745    1
    94   746   759    1
    95   491   495    1
    96   745   747    1
    97   681   678    1
    98   675   676   ar
    99   675   674   ar
   100   730   731   ar
   101   676   677   ar
   102   514   516    1
   103   666   667    1
   104   666   664    1
   105   531   530    1
   106   531   532    1
   107   748   747    1
   108   748   749    1
   109   513   517    1
   110   731   732   ar
   111   495   496    1
   112   750   749   ar
   113   750   751   ar
   114   667   663    1
   115   667   668    1
   116   761   759    2
   117   665   664    1
   118   665   678    1
   119   654   653    1
   120   749   758   ar
   121   674   672   ar
   122   759   760    1
   123   759   762    1
   124   735   734   ar
   125   550   549    2
   126   472   474    1
   127   472   470    1
   128   474   475    1
   129   516   517    1
   130   664   662    1
   131   677   668   ar
   132   677   671   ar
   133   470   469    1
   134   470   471    1
   135   751   752   ar
   136   517   518    1
   137   532   534    1
   138   532   533    1
   139   551   549    1
   140   678   680    2
   141   678   679    1
   142   663   662    1
   143   668   669   ar
   144   662   661    1
   145   732   734   ar
   146   732   733    1
   147   549   535    1
   148   549   552    1
   149   469   468    1
   150   535   534    1
   151   496   497   ar
   152   496   506   ar
   153   762   763    1
   154   763   764    1
   155   653   652   ar
   156   653   655   ar
   157   758   752   ar
   158   758   757   ar
   159   672   671   ar
   160   672   673    1
   161   475   471    1
   162   475   476    1
   163   652   650   ar
   164   525   518   ar
   165   525   524   ar
   166   534   536    1
   167   533   537    1
   168   671   670   ar
   169   752   753   ar
   170   497   498   ar
   171   518   519   ar
   172   478   477    2
   173   757   756   ar
   174   505   506   ar
   175   505   503   ar
   176   526   524    1
   177   466   465    2
   178   975   976    1
   179   975   974    1
   180   506   499   ar
   181   669   670   ar
   182   468   465    1
   183   655   656   ar
   184   661   660    1
   185   961   962    1
   186   961   959    1
   187   957   958    1
   188   957   959    1
   189   957   956    1
   190   960   959    1
   191   960   971    1
   192   976   977    1
   193   976   978    1
   194   524   522   ar
   195   552   553    1
   196   765   764    1
   197   765   769    1
   198   764   766    1
   199   771   772   ar
   200   771   770   ar
   201   962   958    1
   202   962   963    1
   203   650   651    2
   204   650   649   ar
   205   992   991    2
   206   972   971    2
   207   476   477   ar
   208   476   483   ar
   209   539   538   ar
   210   539   540   ar
   211   753   754    1
   212   753   755   ar
   213   772   773   ar
   214   536   537    1
   215   979   978    1
   216   979   991    1
   217   537   538    1
   218   477   479   ar
   219   498   499   ar
   220   995   996    1
   221   995   994    1
   222   956   955    1
   223   965   964    2
   224   977   981    1
   225   519   520    2
   226   519   521   ar
   227   465   451    1
   228   465   467    1
   229   553   554    1
   230   451   450    1
   231   756   755   ar
   232   660   657    1
   233   996   997    1
   234   996   998    1
   235   499   500   ar
   236   503   504   ar
   237   503   502   ar
   238   971   974    1
   239   971   973    1
   240   504   928   ar
   241   656   649   ar
   242   656   646   ar
   243   949   950   ar
   244   949   948   ar
   245   978   980    1
   246   997  1001    1
   247   538   548   ar
   248   928   927   ar
   249   950   951   ar
   250   991   994    1
   251   991   993    1
   252   452   450    1
   253   452   453    1
   254   540   541   ar
   255   649   648   ar
   256   770   769    1
   257   770   780   ar
   258   483   482   ar
   259   462   461    1
   260   769   768    1
   261   522   521   ar
   262   522   523    2
   263   766   767    1
   264   766   768    1
   265   981   980    1
   266   981   982    1
   267   963   964   ar
   268   963   970   ar
   269   572   571    2
   270   964   966   ar
   271   479   480   ar
   272   940   941    1
   273   940   938    1
   274   783   781    2
   275   999   998    1
   276   999  1012    1
   277   450   448    1
   278   773   780   ar
   279   773   774   ar
   280   767   781    1
   281   573   571    1
   282   955   952    1
   283   948   946   ar
   284  1001  1000    1
   285  1001  1002    1
   286   502   500   ar
   287   502   926   ar
   288   644   645    1
   289   644   642    1
   290   998  1000    1
   291   941   937    1
   292   941   942    1
   293   500   501    2
   294   658   657    2
   295   463   461   ar
   296   463   464   ar
   297   554   556    1
   298   554   555    1
   299   953   952    2
   300   646   645    1
   301   646   647   ar
   302   657   659    1
   303   657   643    1
   304   461   460   ar
   305   781   782    1
   306   781   784    1
   307   780   779   ar
   308   571   557    1
   309   571   574    1
   310   775   774    2
   311   939   952    1
   312   939   938    1
   313   453   449    1
   314   453   454    1
   315   548   541   ar
   316   548   547   ar
   317   951   942   ar
   318   951   945   ar
   319   927   926   ar
   320   927   929   ar
   321   448   449    1
   322   448   447    1
   323   482   480   ar
   324   482   484    1
   325   541   542   ar
   326   557   556    1
   327  1013  1012    2
   328   561   562   ar
   329   561   560   ar
   330   648   647   ar
   331   970   969   ar
   332   556   558    1
   333   645   641    1
   334   774   776   ar
   335   480   481    2
   336   952   954    1
   337   562   563   ar
   338   966   967   ar
   339   938   936    1
   340   982   989   ar
   341   982   983   ar
   342  1003  1002   ar
   343  1003  1004   ar
   344   555   559    1
   345   937   936    1
   346  1012  1014    1
   347  1012  1015    1
   348  1002  1011   ar
   349   942   943   ar
   350   643   642    1
   351   926   924   ar
   352   936   935    1
   353   642   640    1
   354   989   988   ar
   355   631   630    2
   356   929   930   ar
   357   464   454   ar
   358   464   457   ar
   359   946   945   ar
   360   946   947    1
   361   454   455   ar
   362   460   458   ar
   363   547   545   ar
   364   609   608    2
   365   447   446    1
   366   984   983    2
   367   945   944   ar
   368   779   777   ar
   369   440   439    1
   370   983   985   ar
   371   560   559    1
   372   560   570   ar
   373   969   967   ar
   374   967   968    1
   375   542   543    2
   376   542   544   ar
   377   784   785    1
   378  1004  1005   ar
   379   574   575    1
   380   559   558    1
   381   776   777   ar
   382   584   583   ar
   383   584   585   ar
   384  1011  1010   ar
   385  1011  1005   ar
   386   563   570   ar
   387   563   564   ar
   388   641   640    1
   389   630   629   ar
   390   630   632   ar
   391  1015  1016    1
   392   587   586    2
   393   595   593    2
   394   446   443    1
   395   988   990    1
   396   988   986   ar
   397   943   944   ar
   398   794   793    2
   399   794   795    1
   400   924   925    2
   401   924   923   ar
   402   457   458   ar
   403   457   456   ar
   404   640   639    1
   405  1016  1017    1
   406   565   564    2
   407   935   934    1
   408   777   778    1
   409   629   627   ar
   410   458   459    2
   411   930   923   ar
   412   930   920   ar
   413  1010  1009   ar
   414   905   906   ar
   415   905   903   ar
   416   583   582   ar
   417   455   456   ar
   418   793   792    1
   419   444   443    2
   420   545   544   ar
   421   545   546    1
   422   608   607   ar
   423   608   610   ar
   424  1005  1006   ar
   425   906   907   ar
   426   570   569   ar
   427   606   607   ar
   428   606   605   ar
   429   785   786    1
   430   439   438   ar
   431   439   441   ar
   432   564   566   ar
   433   634   632    1
   434   985   986   ar
   435   575   576    1
   436  1018  1017    1
   437  1018  1022    1
   438   797   610   ar
   439   797   796   ar
   440   585   586    1
   441   585   592   ar
   442   934   931    1
   443   632   633   ar
   444   586   588    1
   445   923   922   ar
   446   986   987    2
   447   638   639    1
   448   638   635    1
   449  1017  1019    1
   450   607   614   ar
   451   443   445    1
   452   443   429    1
   453   594   593    1
   454   918   919    1
   455   918   916    1
   456   919   920    1
   457   919   915    1
   458   438   436   ar
   459   593   579    1
   460   593   596    1
   461   441   442   ar
   462   819   818    2
   463   795   796    2
   464   795   802    1
   465   610   611   ar
   466   920   921   ar
   467   627   628    2
   468   627   626   ar
   469   904   903    1
   470  1009  1008   ar
   471   903   902   ar
   472   907   908   ar
   473   605   604   ar
   474   796   798   ar
   475   841   840    1
   476   637   635    2
   477  1006  1008   ar
   478  1006  1007    1
   479   792   802    1
   480   792   791    1
   481   787   786    1
   482   787   791    1
   483   582   592   ar
   484   582   581    1
   485   430   428    1
   486   430   431    1
   487  1030  1029   ar
   488  1030  1023   ar
   489   578   579    1
   490   578   576    1
   491   578   580    1
   492   569   567   ar
   493   234   233    2
   494   617   615    2
   495   429   428    1
   496   786   788    1
   497   256   255    2
   498   576   577    1
   499  1022  1023    1
   500  1022  1021    1
   501   566   567   ar
   502   633   626   ar
   503  1029  1027   ar
   504   592   591    1
   505   862   861    2
   506   588   589    2
   507   635   636    1
   508   635   623    1
   509   597   596    1
   510   597   598    1
   511   802   801    1
   512   626   625    1
   513   922   921   ar
   514   442   435   ar
   515   442   432   ar
   516   436   437    2
   517   436   435   ar
   518  1023  1024   ar
   519   915   914    1
   520   614   604   ar
   521   614   613   ar
   522   818   817    1
   523   818   820    1
   524   931   917    1
   525   931   933    2
   526   931   932    1
   527   577   581    1
   528   816   817   ar
   529   816   815   ar
   530   788   789    1
   531   788   790    1
   532   791   790    1
   533   567   568    1
   534   916   917    1
   535   916   914    1
   536  1019  1021    1
   537  1019  1020    1
   538   428   426    1
   539   611   613   ar
   540   611   612   ar
   541   908   902   ar
   542   908   899   ar
   543   275   274    2
   544   604   603    1
   545   257   255    1
   546   902   901   ar
   547   863   861   ar
   548   863   864   ar
   549   431   432    1
   550   431   427    1
   551   581   580    1
   552   840   842   ar
   553   840   839   ar
   554   914   913    1
   555   798   612   ar
   556   798   799    1
   557   435   434   ar
   558   861   860   ar
   559  1027  1028    1
   560  1027  1026   ar
   561   255   241    1
   562   255   258    1
   563   817   824   ar
   564   624   622    1
   565   624   625    1
   566   842   843   ar
   567   432   433   ar
   568  1020  1031    1
   569   884   883    2
   570   233   235    1
   571   233   220    1
   572   233   236    1
   573  1024  1026   ar
   574  1024  1025    2
   575   789   803    1
   576   591   589    1
   577   589   590    2
   578   820   821    2
   579   615   618    1
   580   615   616    1
   581   615   601    1
   582   622   623    1
   583   622   620    1
   584   805   803    2
   585   865   864    1
   586   625   621    1
   587   815   814   ar
   588   801   799    2
   589   598   599    1
   590   598   600    1
   591   618   619    1
   592   599   603    1
   593   600   601    1
   594   600   602    1
   595   241   240    1
   596   864   866   ar
   597   213   212    2
   598   297   296    2
   599   799   800    1
   600   426   427    1
   601   426   425    1
   602   237   236    1
   603   237   238    1
   604   839   838   ar
   605   839   845   ar
   606   220   219    1
   607   803   804    1
   608   803   806    1
   609   276   274    1
   610   882   883   ar
   611   882   880   ar
   612   838   837   ar
   613   274   263    1
   614   274   277    1
   615   899   898    1
   616   899   900   ar
   617   603   602    1
   618   901   900   ar
   619   434   433   ar
   620   883   885   ar
   621   860   859   ar
   622   860   867   ar
   623   843   844   ar
   624   258   259    1
   625   913   912    1
   626   621   620    1
   627   824   814   ar
   628   824   823    1
   629   319   318    2
   630   881   880    2
   631   898   897    1
   632   898   894    1
   633   590   822    1
   634   216   215    1
   635   216   217    1
   636   897   895    1
   637  1031  1033    2
   638  1031  1032    1
   639  1031  1034    1
   640   620   619    1
   641   821   823    1
   642   821   822    2
   643   238   240    1
   644   238   239    1
   645   806   807    1
   646   814   813    1
   647   259   260    1
   648   859   858   ar
   649   240   242    1
   650   263   262    1
   651   880   879   ar
   652   298   296    1
   653   415   414    2
   654   912   909    1
   655   866   867   ar
   656   296   299    1
   657   296   282    1
   658   215   212    1
   659   845   844   ar
   660   845   836   ar
   661   212   199    1
   662   212   214    1
   663   867   857   ar
   664   837   836   ar
   665   277   278    1
   666   278   279    1
   667   217   219    1
   668   217   218    1
   669   219   221    1
   670   425   424    1
   671   416   414   ar
   672   416   417   ar
   673   418   417    1
   674   424   421    1
   675   320   318    1
   676   414   413   ar
   677   827   825    2
   678   885   887    1
   679   885   886   ar
   680   318   304    1
   681   318   321    1
   682  1034  1035    1
   683   262   260    1
   684   262   264    1
   685   417   419   ar
   686   894   893    1
   687   260   261    1
   688   836   835    1
   689   199   198    1
   690   858   857   ar
   691   299   300    1
   692   895   896    1
   693   895   893    1
   694   282   281    1
   695   300   301    1
   696   239   243    1
   697   242   243    1
   698  1035  1036    1
   699   807   808    1
   700   879   886   ar
   701   879   878    1
   702   221   222    1
   703   813   809    1
   704   813   812    1
   705   857   856    1
   706   809   808    1
   707   304   303    1
   708   413   420   ar
   709   413   412   ar
   710   909   896    1
   711   909   910    2
   712   909   911    1
   713   279   281    1
   714   279   280    1
   715   218   222    1
   716  1044  1043   ar
   717  1044  1045   ar
   718   281   283    1
   719   341   339    2
   720  1043  1042   ar
   721   893   892    1
   722   419   420   ar
   723   810   808    1
   724   810   812    1
   725   810   811    1
   726  1037  1036    1
   727  1037  1041    1
   728   321   322    1
   729   193   191    1
   730   421   423    2
   731   421   422    1
   732   421   407    1
   733   825   828    1
   734   825   811    1
   735   825   826    1
   736   420   410   ar
   737   243   244    1
   738   412   411   ar
   739   340   339    1
   740   261   265    1
   741   264   265    1
   742   303   301    1
   743   303   305    1
   744   286   287   ar
   745   286   285   ar
   746   835   831    1
   747   835   834    1
   748  1047  1046    1
   749   878   877    1
   750   878   874    1
   751   301   302    1
   752   322   323    1
   753  1036  1038    1
   754   222   223    1
   755   877   875    1
   756   287   288   ar
   757  1045  1046   ar
   758  1045  1051   ar
   759   198   200    1
   760   198   196    1
   761   273   272   ar
   762   273   266   ar
   763   245   244   ar
   764   245   246   ar
   765   395   394    2
   766   856   855    1
   767   856   852    1
   768   831   830    1
   769   280   284    1
   770  1042  1041    1
   771  1042  1051   ar
   772   828   829    1
   773   339   326    1
   774   339   342    1
   775   272   270   ar
   776  1046  1048   ar
   777   244   254   ar
   778   200   201    1
   779   362   360    1
   780  1041  1040    1
   781   411   410   ar
   782   410   409    1
   783   265   266    1
   784  1051  1050   ar
   785   891   892    1
   786   891   876    1
   787   407   406    1
   788   326   325    1
   789   408   406    1
   790   408   409    1
   791   283   284    1
   792   196   195    1
   793   196   197    1
   794   890   888    2
   795   191   192    1
   796   191   194    1
   797   855   853    1
   798   192   177    1
   799   266   267   ar
   800   285   284    1
   801   285   295   ar
   802   246   247   ar
   803   195   194    1
   804   875   873    1
   805   406   404    1
   806   223   224   ar
   807   223   232   ar
   808   834   832    1
   809   394   393   ar
   810   394   396   ar
   811  1048  1049   ar
   812   874   873    1
   813   302   306    1
   814   376   375    1
   815   325   323    1
   816   325   327    1
   817   852   851    1
   818   224   225   ar
   819   398   396    1
   820   288   295   ar
   821   288   289   ar
   822   323   324    1
   823  1038  1040    1
   824  1038  1039    1
   825   305   306    1
   826   829   830    1
   827   401   399    2
   828   360   361    2
   829   830   832    1
   830  1050  1049   ar
   831   409   405    1
   832   270   271    1
   833   270   269   ar
   834   308   309   ar
   835   308   307   ar
   836   342   343    1
   837   254   247   ar
   838   254   253   ar
   839   832   833    1
   840   876   888    1
   841   888   889    2
   842   290   289    2
   843   393   391   ar
   844   295   294   ar
   845   396   397   ar
   846   247   248   ar
   847   309   310   ar
   848  1068  1067    2
   849   201   197    1
   850   201   202    1
   851   377   375   ar
   852   377   378   ar
   853   267   269   ar
   854   267   268    2
   855   330   331   ar
   856   330   329   ar
   857   289   291   ar
   858   873   872    1
   859   177   176    1
   860   306   307    1
   861   853   851    1
   862   853   854    1
   863   232   231   ar
   864   232   226   ar
   865   870   868    2
   866   331   332   ar
   867   381   379    2
   868   375   374   ar
   869   253   251   ar
   870   352   351   ar
   871   352   353   ar
   872  1039  1052    1
   873   850   851    1
   874   850   849    1
   875   307   317   ar
   876   324   328    1
   877   231   230   ar
   878   848   846    2
   879   225   226   ar
   880  1065  1066   ar
   881  1065  1064   ar
   882   343   344    1
   883   404   405    1
   884   404   403    1
   885   347   363    1
   886   347   346    1
   887   355   354    1
   888   351   350   ar
   889   327   328    1
   890  1054  1052    2
   891  1067  1066   ar
   892  1067  1069   ar
   893   399   402    1
   894   399   400    1
   895   399   387    1
   896   872   871    1
   897   402   403    1
   898   363   364    1
   899   346   344    1
   900   346   348    1
   901   226   227   ar
   902   391   392    2
   903   391   390   ar
   904   378   371   ar
   905   397   390   ar
   906  1066  1073   ar
   907   248   249    2
   908   248   250   ar
   909   833   846    1
   910  1064  1063   ar
   911   294   292   ar
   912   310   317   ar
   913   310   311   ar
   914   329   328    1
   915   329   338   ar
   916   210   211   ar
   917   210   209   ar
   918   202   211   ar
   919   202   203   ar
   920   291   292   ar
   921   251   250   ar
   922   251   252    1
   923   178   176    1
   924   178   179    1
   925  1090  1089    1
   926   854   868    1
   927   317   316   ar
   928   176   174    1
   929   353   354   ar
   930   353   359   ar
   931   374   372   ar
   932   849   846    1
   933   332   338   ar
   934   332   333   ar
   935   230   229   ar
   936  1052  1053    1
   937  1052  1055    1
   938   846   847    1
   939   379   380    1
   940   379   382    1
   941   379   368    1
   942   354   356   ar
   943   344   345    1
   944   390   389    1
   945  1069  1070   ar
   946   868   871    1
   947   868   869    1
   948   211   205   ar
   949   292   293    1
   950   334   333    1
   951   382   383    1
   952   209   208   ar
   953   171   169    2
   954   350   359   ar
   955   350   349    1
   956   312   311    2
   957  1073  1063   ar
   958  1073  1072   ar
   959   364   365    1
   960  1063  1062    1
   961   311   313   ar
   962  1135  1134    1
   963   338   337   ar
   964   348   349    1
   965   227   229   ar
   966   227   228    1
   967   371   372   ar
   968   371   370    1
   969   203   204   ar
   970   386   387    1
   971   386   388    1
   972   386   384    1
   973   333   335   ar
   974   367   368    1
   975   367   365    1
   976   367   369    1
   977   388   389    1
   978   316   314   ar
   979  1111  1110    1
   980   345   349    1
   981  1133  1134   ar
   982  1133  1131   ar
   983   372   373    2
   984  1089  1091   ar
   985  1089  1088   ar
   986  1058  1062    1
   987  1058  1057    1
   988   359   358   ar
   989   174   173    1
   990   174   175    1
   991  1070  1072   ar
   992  1070  1071    1
   993  1132  1131    2
   994  1112  1110   ar
   995  1112  1113   ar
   996  1156  1155   ar
   997  1156  1157   ar
   998  1091  1092   ar
   999  1055  1056    1
  1000   389   385    1
  1001   356   357   ar
  1002   179   180    1
  1003   179   175    1
  1004  1134  1136   ar
  1005  1062  1061    1
  1006   365   366    1
  1007   366   370    1
  1008   205   204   ar
  1009   205   206   ar
  1010   170   169    1
  1011  1131  1130   ar
  1012   313   314   ar
  1013  1056  1057    1
  1014  1155  1153   ar
  1015  1157  1158   ar
  1016   208   206   ar
  1017  1110  1109   ar
  1018   169   172    1
  1019   169   158    1
  1020   369   370    1
  1021   314   315    1
  1022   173   172    1
  1023   383   384    1
  1024  1088  1087   ar
  1025  1088  1094   ar
  1026  1087  1086   ar
  1027   337   336   ar
  1028   180   181   ar
  1029   180   190   ar
  1030  1113  1114   ar
  1031   384   385    1
  1032   335   336   ar
  1033  1057  1059    1
  1034   358   357   ar
  1035   206   207    1
  1036  1092  1093   ar
  1037   189   190   ar
  1038   189   187   ar
  1039   181   182   ar
  1040  1136  1137   ar
  1041   190   183   ar
  1042  1130  1137   ar
  1043  1130  1129   ar
  1044  1153  1154    1
  1045  1153  1152   ar
  1046  1158  1152   ar
  1047  1158  1149   ar
  1048  1094  1093   ar
  1049  1094  1085   ar
  1050   188   187    1
  1051  1086  1085   ar
  1052  1061  1059    1
  1053   187   186   ar
  1054  1109  1115   ar
  1055  1109  1108   ar
  1056   158   157    1
  1057  1059  1060    1
  1058  1137  1127   ar
  1059  1114  1115   ar
  1060   182   183   ar
  1061   183   184   ar
  1062  1148  1149    1
  1063  1148  1147    1
  1064  1148  1144    1
  1065  1152  1151   ar
  1066  1172  1171    2
  1067  1085  1084    1
  1068  1149  1150   ar
  1069  1129  1128   ar
  1070  1115  1106   ar
  1071   186   184   ar
  1072  1108  1107   ar
  1073   184   185    2
  1074  1147  1145    1
  1075  1144  1143    1
  1076  1169  1165    1
  1077  1169  1170    1
  1078  1169  1168    1
  1079  1165  1164    1
  1080  1127  1128   ar
  1081  1127  1126    1
  1082  1171  1170   ar
  1083  1171  1173   ar
  1084   157   159    1
  1085   157   155    1
  1086  1060  1074    1
  1087   159   160    1
  1088  1076  1074    2
  1089  1151  1150   ar
  1090  1170  1177   ar
  1091  1173  1174   ar
  1092  1084  1080    1
  1093  1084  1083    1
  1094  1126  1125    1
  1095  1126  1122    1
  1096  1168  1166    1
  1097  1106  1107   ar
  1098  1106  1105    1
  1099  1164  1163    1
  1100  1164  1166    1
  1101  1080  1079    1
  1102  1143  1145    1
  1103  1143  1142    1
  1104  1074  1077    1
  1105  1074  1075    1
  1106  1174  1175    1
  1107  1174  1176   ar
  1108  1177  1176   ar
  1109  1077  1078    1
  1110  1145  1146    1
  1111   151   150    2
  1112  1125  1123    1
  1113   155   154    1
  1114   155   156    1
  1115  1184  1188    1
  1116  1184  1183    1
  1117  1163  1162    1
  1118   153   154    1
  1119   153   150    1
  1120  1188  1189    1
  1121  1188  1187    1
  1122  1166  1167    1
  1123  1122  1121    1
  1124   163   162    2
  1125   160   161    1
  1126   160   156    1
  1127  1083  1081    1
  1128  1105  1104    1
  1129  1105  1101    1
  1130  1146  1159    1
  1131  1197  1196   ar
  1132  1197  1198   ar
  1133   162   161   ar
  1134   162   164   ar
  1135  1162  1159    1
  1136   150   152    1
  1137   150   137    1
  1138  1183  1182    1
  1139  1183  1185    1
  1140  1142  1141    1
  1141  1079  1078    1
  1142  1079  1081    1
  1143   161   168   ar
  1144   164   165   ar
  1145  1196  1195   ar
  1146  1167  1178    1
  1147  1081  1082    1
  1148  1189  1198   ar
  1149  1189  1190   ar
  1150  1187  1185    1
  1151  1182  1181    1
  1152  1198  1192   ar
  1153   168   167   ar
  1154  1104  1102    1
  1155   165   167   ar
  1156   165   166    1
  1157  1101  1100    1
  1158  1123  1121    1
  1159  1123  1124    1
  1160  1141  1138    1
  1161  1121  1120    1
  1162  1195  1193   ar
  1163  1190  1191   ar
  1164  1185  1186    1
  1165  1192  1193   ar
  1166  1192  1191   ar
  1167  1159  1160    2
  1168  1159  1161    1
  1169   137   136    1
  1170  1181  1178    1
  1171  1193  1194    1
  1172  1097  1095    2
  1173  1124  1138    1
  1174  1186  1199    1
  1175  1102  1100    1
  1176  1102  1103    1
  1177  1082  1095    1
  1178  1203  1204    1
  1179  1203  1202    1
  1180  1098  1095    1
  1181  1098  1099    1
  1182  1119  1120    1
  1183  1119  1116    1
  1184  1205  1204    1
  1185  1205  1209    1
  1186  1178  1179    2
  1187  1178  1180    1
  1188  1100  1099    1
  1189  1138  1140    2
  1190  1138  1139    1
  1191  1204  1206    1
  1192   147   146   ar
  1193   147   148   ar
  1194   136   138    1
  1195   136   134    1
  1196   146   144   ar
  1197  1095  1096    1
  1198   138   139    1
  1199  1202  1199    1
  1200   148   149   ar
  1201  1118  1116    2
  1202   144   145    1
  1203   144   143   ar
  1204  1103  1116    1
  1205  1209  1210    1
  1206  1209  1208    1
  1207  1116  1117    1
  1208   149   143   ar
  1209   149   140   ar
  1210   143   142   ar
  1211  1199  1201    2
  1212  1199  1200    1
  1213   140   141   ar
  1214   140   139    1
  1215   142   141   ar
  1216  1210  1217   ar
  1217  1210  1211   ar
  1218  1217  1216   ar
  1219   134   133    1
  1220   134   135    1
  1221   132   133    1
  1222   132   129    1
  1223  1206  1208    1
  1224  1206  1207    1
  1225   139   135    1
  1226  1212  1211    2
  1227  1207  1218    1
  1228  1211  1213   ar
  1229  1216  1214   ar
  1230   131   129    2
  1231   129   130    1
  1232   129   115    1
  1233  1213  1214   ar
  1234  1214  1215    1
  1235  1220  1218    2
  1236  1218  1219    1
  1237  1218  1221    1
  1238   126   125    1
  1239   115   114    1
  1240   124   125   ar
  1241   124   122   ar
  1242   125   127   ar
  1243   123   122    2
  1244   122   121   ar
  1245   127   128   ar
  1246   114   116    1
  1247   114   112    1
  1248  1221  1222    1
  1249   116   117    1
  1250  1222  1223    1
  1251   121   128   ar
  1252   121   120   ar
  1253   128   118   ar
  1254  1224  1223    1
  1255  1224  1228    1
  1256   120   119   ar
  1257   118   119   ar
  1258   118   117    1
  1259  1230  1231   ar
  1260  1230  1229   ar
  1261  1231  1232   ar
  1262   101   100    2
  1263  1223  1225    1
  1264   117   113    1
  1265   102   100   ar
  1266   102   103   ar
  1267   104   103    1
  1268   112   111    1
  1269   112   113    1
  1270   100    99   ar
  1271  1228  1229    1
  1272  1228  1227    1
  1273  1229  1239   ar
  1274   111   110    1
  1275   103   105   ar
  1276  1232  1239   ar
  1277  1232  1233   ar
  1278  1234  1233    2
  1279   110   107    1
  1280  1239  1238   ar
  1281  1233  1235   ar
  1282  1225  1227    1
  1283  1225  1226    1
  1284    99   106   ar
  1285    99    98   ar
  1286   105   106   ar
  1287   108   107    2
  1288   106    96   ar
  1289  1238  1236   ar
  1290    98    97   ar
  1291  1226  1240    1
  1292  1235  1236   ar
  1293  1235    81    1
  1294   109   107    1
  1295   107    93    1
  1296    94    95    1
  1297    94    92    1
  1298  1236  1237    1
  1299    80    79    1
  1300    96    97   ar
  1301    96    95    1
  1302    93    92    1
  1303    95    91    1
  1304    92    90    1
  1305  1240  1241    2
  1306  1240  1243    1
  1307  1240  1242    1
  1308  1237    81    1
  1309  1237    82    1
  1310    79    81    1
  1311    79    78    1
  1312    22    20    2
  1313    81    82    1
  1314     1     2    1
  1315  1243  1244    1
  1316  1256  1255    1
  1317  1257  1255   ar
  1318  1257  1258   ar
  1319    91    90    1
  1320  1255  1254   ar
  1321    82    83    1
  1322     2     3    1
  1323    58    57    2
  1324    90    89    1
  1325    78    77   ar
  1326    78    84   ar
  1327  1258  1251   ar
  1328    21    20    1
  1329    20     6    1
  1330    20    23    1
  1331    77    76   ar
  1332  1244  1245    1
  1333    87    85    2
  1334    88    89    1
  1335    88    85    1
  1336    44    42    2
  1337    11    10   ar
  1338    11    12   ar
  1339  1246  1245    1
  1340  1246  1250    1
  1341  1254  1252   ar
  1342    84    83    1
  1343    84    75   ar
  1344    10     9   ar
  1345     6     5    1
  1346  1251  1252   ar
  1347  1251  1250    1
  1348    57    56   ar
  1349    57    59   ar
  1350    85    86    1
  1351    85    72    1
  1352    23    24    1
  1353     5     3    1
  1354     5     7    1
  1355    36    35    2
  1356    76    75   ar
  1357     3     4    1
  1358    55    56   ar
  1359    55    54   ar
  1360    33    32   ar
  1361    33    34   ar
  1362  1245  1247    1
  1363  1252  1253    2
  1364  1369  1365    1
  1365  1369  1368    1
  1366    14    13    2
  1367    56    63   ar
  1368    75    74    1
  1369  1275  1274    1
  1370  1250  1249    1
  1371    59    60   ar
  1372    66    64    2
  1373    12    13   ar
  1374    12    19   ar
  1375    32    31   ar
  1376     4     8    1
  1377    42    43    1
  1378    42    45    1
  1379    42    28    1
  1380  1365  1364    1
  1381    35    34   ar
  1382    35    37   ar
  1383     9     8    1
  1384     9    19   ar
  1385    34    41   ar
  1386    54    53   ar
  1387    24    25    1
  1388    13    15   ar
  1389    73    71    1
  1390    73    74    1
  1391    71    72    1
  1392    71    69    1
  1393  1247  1249    1
  1394  1247  1248    1
  1395  1368  1366    1
  1396     7     8    1
  1397    67    64    1
  1398    67    68    1
  1399  1274  1276   ar
  1400  1274  1273   ar
  1401    19    18   ar
  1402    74    70    1
  1403    63    53   ar
  1404    63    62   ar
  1405    45    46    1
  1406    60    61    1
  1407    60    62   ar
  1408    64    65    1
  1409    64    50    1
  1410  1276  1277   ar
  1411    27    28    1
  1412    27    25    1
  1413    27    29    1
  1414    31    41   ar
  1415    31    30    1
  1416  1261  1259    2
  1417    37    38   ar
  1418    53    52    1
  1419    41    40   ar
  1420    25    26    1
  1421  1316  1315    1
  1422  1248  1259    1
  1423  1364  1366    1
  1424  1364  1363    1
  1425  1337  1336   ar
  1426  1337  1338   ar
  1427    70    69    1
  1428    15    16   ar
  1429  1273  1271   ar
  1430    69    68    1
  1431    26    30    1
  1432  1353  1352    2
  1433  1314  1315   ar
  1434  1314  1312   ar
  1435  1294  1293    1
  1436  1336  1334   ar
  1437  1366  1367    1
  1438    49    50    1
  1439    49    51    1
  1440    49    47    1
  1441  1313  1312    2
  1442    29    30    1
  1443    18    16   ar
  1444  1277  1270   ar
  1445    46    47    1
  1446    51    52    1
  1447  1315  1317   ar
  1448    38    40   ar
  1449    38    39    1
  1450  1362  1363    1
  1451  1362  1359    1
  1452  1338  1339   ar
  1453  1259  1260    1
  1454  1259  1262    1
  1455    16    17    1
  1456    52    48    1
  1457  1312  1311   ar
  1458  1349  1350    1
  1459  1349  1347    1
  1460    47    48    1
  1461  1350  1346    1
  1462  1350  1351    1
  1463  1271  1270   ar
  1464  1271  1272    2
  1465  1293  1292   ar
  1466  1293  1295   ar
  1467  1352  1351   ar
  1468  1352  1354   ar
  1469  1334  1335    1
  1470  1334  1333   ar
  1471  1361  1359    1
  1472  1361  1348    1
  1473  1270  1269    1
  1474  1378  1379   ar
  1475  1378  1377   ar
  1476  1370  1379   ar
  1477  1370  1371   ar
  1478  1292  1290   ar
  1479  1262  1263    1
  1480  1346  1345    1
  1481  1359  1360    1
  1482  1317  1318   ar
  1483  1348  1347    1
  1484  1339  1333   ar
  1485  1339  1330   ar
  1486  1351  1358   ar
  1487  1379  1373   ar
  1488  1345  1347    1
  1489  1345  1344    1
  1490  1295  1296   ar
  1491  1354  1355   ar
  1492  1311  1318   ar
  1493  1311  1310   ar
  1494  1377  1376   ar
  1495  1333  1332   ar
  1496  1265  1269    1
  1497  1265  1264    1
  1498  1269  1268    1
  1499  1318  1308   ar
  1500  1371  1372   ar
  1501  1290  1291    2
  1502  1290  1289   ar
  1503  1330  1329    1
  1504  1330  1331   ar
  1505  1263  1264    1
  1506  1329  1328    1
  1507  1329  1325    1
  1508  1310  1309   ar
  1509  1296  1289   ar
  1510  1373  1372   ar
  1511  1373  1374   ar
  1512  1328  1326    1
  1513  1344  1343    1
  1514  1376  1374   ar
  1515  1358  1357   ar
  1516  1355  1357   ar
  1517  1355  1356    1
  1518  1264  1266    1
  1519  1289  1288    1
  1520  1332  1331   ar
  1521  1268  1266    1
  1522  1308  1309   ar
  1523  1308  1307    1
  1524  1266  1267    1
  1525  1374  1375    1
  1526  1325  1324    1
  1527  1343  1340    1
  1528  1280  1278    2
  1529  1307  1306    1
  1530  1307  1303    1
  1531  1288  1284    1
  1532  1288  1287    1
  1533  1326  1324    1
  1534  1326  1327    1
  1535  1324  1323    1
  1536  1284  1283    1
  1537  1267  1278    1
  1538  1327  1340    1
  1539  1306  1304    1
  1540  1303  1302    1
  1541  1278  1281    1
  1542  1278  1279    1
  1543  1287  1285    1
  1544  1340  1341    2
  1545  1340  1342    1
  1546  1281  1282    1
  1547  1323  1322    1
  1548  1283  1285    1
  1549  1283  1282    1
  1550  1285  1286    1
  1551  1304  1302    1
  1552  1304  1305    1
  1553  1322  1319    1
  1554  1302  1301    1
  1555  1300  1301    1
  1556  1300  1297    1
  1557  1299  1297    2
  1558  1305  1319    1
  1559  1321  1319    2
  1560  1286  1297    1
  1561  1319  1320    1
  1562  1297  1298    1
