@<TRIPOS>MOLECULE
dna.pdb
 1463 1634 0 0 0
SMALL
GASTEIGER

@<TRIPOS>ATOM
      1  O5'        3.9720   13.5480  -16.8170 O.3     1  DA1        -0.2176
      2  C5'        5.2700   13.2270  -17.2960 C.3     1  DA1         0.2140
      3  C4'        5.4330   11.7220  -17.3430 C.3     1  DA1         0.1776
      4  O4'        5.6730   11.2500  -15.9960 O.3     1  DA1        -0.3326
      5  C3'        4.1990   10.9440  -17.7810 C.3     1  DA1         0.1559
      6  O3'        4.0900   10.8920  -19.2020 O.3     1  DA1        -0.3138
      7  C2'        4.5120    9.5800  -17.1910 C.3     1  DA1         0.0865
      8  C1'        5.0830    9.9750  -15.8380 C.3     1  DA1         0.2094
      9  N9         4.0100   10.0510  -14.8770 N.ar    1  DA1        -0.2714
     10  C8         3.6700   11.2120  -14.2340 C.ar    1  DA1         0.1815
     11  N7         2.7100   11.0670  -13.3510 N.ar    1  DA1        -0.2193
     12  C5         2.3980    9.7180  -13.4200 C.ar    1  DA1         0.1518
     13  C6         1.4590    8.9280  -12.7330 C.ar    1  DA1         0.1919
     14  N6         0.6310    9.4070  -11.8020 N.pl3   1  DA1        -0.1054
     15  N1         1.4020    7.6150  -13.0390 N.ar    1  DA1        -0.2040
     16  C2         2.2340    7.1360  -13.9710 C.ar    1  DA1         0.2016
     17  N3         3.1580    7.7770  -14.6830 N.ar    1  DA1        -0.2048
     18  C4         3.1890    9.0800  -14.3560 C.ar    1  DA1         0.1691
     19  P          2.5870   10.9040  -19.9730 P.3     2  DT2         0.2141
     20  OP1        2.9640   11.1670  -21.3820 O.2     2  DT2        -0.5172
     21  OP2        1.5180   11.7040  -19.3230 O.3     2  DT2        -0.4373
     22  O5'        2.1950    9.3680  -19.7950 O.3     2  DT2        -0.3114
     23  C5'        3.0110    8.3320  -20.3260 C.3     2  DT2         0.1811
     24  C4'        2.5730    6.9860  -19.7750 C.3     2  DT2         0.1746
     25  O4'        2.7230    6.9990  -18.3290 O.3     2  DT2        -0.3327
     26  C3'        1.1270    6.5400  -20.0090 C.3     2  DT2         0.1558
     27  O3'        0.9640    5.8790  -21.2710 O.3     2  DT2        -0.3138
     28  C2'        0.9140    5.5570  -18.8670 C.3     2  DT2         0.0866
     29  C1'        1.7140    6.2010  -17.7340 C.3     2  DT2         0.2106
     30  N1         0.9270    7.0540  -16.7770 N.ar    2  DT2        -0.2559
     31  C2         0.3440    6.4290  -15.6920 C.ar    2  DT2         0.3545
     32  O2         0.3830    5.2240  -15.5190 O.2     2  DT2        -0.2443
     33  N3        -0.2920    7.2700  -14.8100 N.ar    2  DT2        -0.1533
     34  C4        -0.4010    8.6420  -14.9040 C.ar    2  DT2         0.2804
     35  O4        -1.0040    9.2620  -14.0310 O.2     2  DT2        -0.2654
     36  C5         0.2290    9.2160  -16.0590 C.ar    2  DT2         0.0534
     37  C6         0.8550    8.4210  -16.9320 C.ar    2  DT2         0.0824
     38  C7         0.1650   10.7020  -16.2510 C.3     2  DT2         0.0377
     39  P         -0.5840    5.6140  -21.9010 P.3     3  DC3         0.2141
     40  OP1       -0.5040    5.0440  -23.2650 O.2     3  DC3        -0.5172
     41  OP2       -1.2950    6.8940  -21.6420 O.3     3  DC3        -0.4373
     42  O5'       -1.2540    4.5340  -20.9230 O.3     3  DC3        -0.3114
     43  C5'       -0.9470    3.1620  -21.1220 C.3     3  DC3         0.1811
     44  C4'       -1.4320    2.2700  -20.0010 C.3     3  DC3         0.1746
     45  O4'       -0.9980    2.7960  -18.7200 O.3     3  DC3        -0.3327
     46  C3'       -2.9380    2.1090  -19.8330 C.3     3  DC3         0.1558
     47  O3'       -3.5340    1.2160  -20.7610 O.3     3  DC3        -0.3138
     48  C2'       -3.0400    1.6340  -18.3910 C.3     3  DC3         0.0866
     49  C1'       -1.9470    2.4680  -17.7240 C.3     3  DC3         0.2106
     50  N1        -2.5300    3.6860  -17.1520 N.ar    3  DC3        -0.2556
     51  C2        -3.3550    3.6430  -16.0220 C.ar    3  DC3         0.3531
     52  O2        -3.6570    2.5360  -15.5440 O.2     3  DC3        -0.2443
     53  N3        -3.7990    4.8040  -15.4850 N.ar    3  DC3        -0.1739
     54  C4        -3.4500    5.9690  -16.0330 C.ar    3  DC3         0.1759
     55  N4        -3.9120    7.0880  -15.4690 N.pl3   3  DC3        -0.1070
     56  C5        -2.6150    6.0340  -17.1780 C.ar    3  DC3         0.0566
     57  C6        -2.1780    4.8850  -17.7050 C.ar    3  DC3         0.0849
     58  P         -5.2700    1.2090  -21.0230 P.3     4  DC4         0.2141
     59  OP1       -5.8220    0.7450  -22.3170 O.2     4  DC4        -0.5172
     60  OP2       -5.5450    2.5950  -20.5780 O.3     4  DC4        -0.4373
     61  O5'       -5.7790    0.2130  -19.8720 O.3     4  DC4        -0.3114
     62  C5'       -5.0490   -0.9630  -19.4700 C.3     4  DC4         0.1811
     63  C4'       -5.2070   -1.2690  -17.9850 C.3     4  DC4         0.1746
     64  O4'       -4.2500   -0.5330  -17.1740 O.3     4  DC4        -0.3327
     65  C3'       -6.5440   -0.8840  -17.3690 C.3     4  DC4         0.1558
     66  O3'       -7.5630   -1.8000  -17.7220 O.3     4  DC4        -0.3138
     67  C2'       -6.1870   -0.9020  -15.8910 C.3     4  DC4         0.0866
     68  C1'       -4.8790   -0.1220  -15.9660 C.3     4  DC4         0.2106
     69  N1        -5.1210    1.3800  -15.9450 N.ar    4  DC4        -0.2556
     70  C2        -5.3730    2.0130  -14.7220 C.ar    4  DC4         0.3531
     71  O2        -5.3840    1.3270  -13.6850 O.2     4  DC4        -0.2443
     72  N3        -5.5960    3.3480  -14.7040 N.ar    4  DC4        -0.1739
     73  C4        -5.5760    4.0440  -15.8410 C.ar    4  DC4         0.1759
     74  N4        -5.8020    5.3580  -15.7740 N.pl3   4  DC4        -0.1070
     75  C5        -5.3230    3.4220  -17.0910 C.ar    4  DC4         0.0566
     76  C6        -5.1020    2.1030  -17.1040 C.ar    4  DC4         0.0849
     77  P         -8.9310   -1.3500  -18.0960 P.3     5  DG5         0.2141
     78  OP1       -9.5690   -2.5810  -18.6550 O.3     5  DG5        -0.4373
     79  OP2       -9.0210    0.0380  -18.6720 O.2     5  DG5        -0.5172
     80  O5'       -9.2650   -1.2090  -16.5270 O.3     5  DG5        -0.3114
     81  C5'       -9.4520   -2.4350  -15.8170 C.3     5  DG5         0.1811
     82  C4'       -9.5670   -2.2570  -14.3250 C.3     5  DG5         0.1746
     83  O4'       -8.5240   -1.3710  -13.8960 O.3     5  DG5        -0.3327
     84  C3'      -10.7630   -1.5160  -13.8030 C.3     5  DG5         0.1558
     85  O3'      -11.8140   -2.3840  -13.6690 O.3     5  DG5        -0.3138
     86  C2'      -10.3340   -1.1070  -12.4230 C.3     5  DG5         0.0865
     87  C1'       -8.9660   -0.5770  -12.8050 C.3     5  DG5         0.2094
     88  N9        -9.0710    0.8590  -13.2930 N.ar    5  DG5        -0.2713
     89  C8        -8.9780    1.3240  -14.5830 C.ar    5  DG5         0.1816
     90  N7        -9.0650    2.6230  -14.6700 N.ar    5  DG5        -0.2173
     91  C5        -9.2220    3.0450  -13.3630 C.ar    5  DG5         0.1748
     92  C6        -9.3720    4.3490  -12.8250 C.ar    5  DG5         0.3023
     93  O6        -9.3940    5.4290  -13.4290 O.2     5  DG5        -0.2633
     94  N1        -9.5060    4.3290  -11.4400 N.ar    5  DG5        -0.1709
     95  C2        -9.4960    3.1920  -10.6670 C.ar    5  DG5         0.2606
     96  N2        -9.6370    3.3740   -9.3470 N.pl3   5  DG5        -0.0859
     97  N3        -9.3590    1.9740  -11.1520 N.ar    5  DG5        -0.1918
     98  C4        -9.2290    1.9690  -12.4960 C.ar    5  DG5         0.1722
     99  P        -12.9640   -1.8130  -14.2140 P.3     6  DT6         0.2141
    100  OP1      -13.5490   -3.1780  -14.2630 O.3     6  DT6        -0.4373
    101  OP2      -13.0600   -0.9250  -15.4000 O.2     6  DT6        -0.5172
    102  O5'      -13.5110   -1.0460  -12.9380 O.3     6  DT6        -0.3114
    103  C5'      -13.4470   -1.6820  -11.6750 C.3     6  DT6         0.1811
    104  C4'      -13.5020   -0.6690  -10.5690 C.3     6  DT6         0.1746
    105  O4'      -12.3300    0.1800  -10.6410 O.3     6  DT6        -0.3327
    106  C3'      -14.6620    0.3060  -10.6680 C.3     6  DT6         0.1558
    107  O3'      -15.8560   -0.2570  -10.1440 O.3     6  DT6        -0.3138
    108  C2'      -14.1570    1.4870   -9.8510 C.3     6  DT6         0.0866
    109  C1'      -12.6720    1.4880  -10.2150 C.3     6  DT6         0.2106
    110  N1       -12.3510    2.3980  -11.2830 N.ar    6  DT6        -0.2559
    111  C2       -12.1370    3.7120  -10.9150 C.ar    6  DT6         0.3545
    112  O2       -12.1020    4.0800   -9.7540 O.2     6  DT6        -0.2443
    113  N3       -11.9670    4.5880  -11.9600 N.ar    6  DT6        -0.1533
    114  C4       -11.9880    4.2870  -13.3060 C.ar    6  DT6         0.2804
    115  O4       -11.8190    5.1840  -14.1290 O.2     6  DT6        -0.2654
    116  C5       -12.2160    2.9020  -13.6070 C.ar    6  DT6         0.0534
    117  C6       -12.3850    2.0290  -12.6100 C.ar    6  DT6         0.0824
    118  C7       -12.2570    2.4740  -15.0440 C.3     6  DT6         0.0377
    119  P        -17.5020    0.5040  -10.4380 P.3     7  DC7         0.2141
    120  OP1      -18.7670   -0.2660  -10.3330 O.3     7  DC7        -0.4373
    121  OP2      -16.9200    0.7740  -11.7830 O.2     7  DC7        -0.5172
    122  O5'      -17.7200    1.9030   -9.6980 O.3     7  DC7        -0.3114
    123  C5'      -18.1650    1.9720   -8.3210 C.3     7  DC7         0.1811
    124  C4'      -17.8900    3.3470   -7.7430 C.3     7  DC7         0.1746
    125  O4'      -16.5120    3.7050   -8.0390 O.3     7  DC7        -0.3327
    126  C3'      -18.7140    4.4940   -8.3160 C.3     7  DC7         0.1558
    127  O3'      -19.9510    4.6520   -7.6320 O.3     7  DC7        -0.3138
    128  C2'      -17.8090    5.7050   -8.1110 C.3     7  DC7         0.0866
    129  C1'      -16.4220    5.0930   -8.3190 C.3     7  DC7         0.2106
    130  N1       -15.9360    5.2940   -9.7290 N.ar    7  DC7        -0.2556
    131  C2       -15.5500    6.5820  -10.1170 C.ar    7  DC7         0.3531
    132  O2       -15.5720    7.4930   -9.2710 O.2     7  DC7        -0.2443
    133  N3       -15.1650    6.7980  -11.3970 N.ar    7  DC7        -0.1739
    134  C4       -15.1580    5.7900  -12.2700 C.ar    7  DC7         0.1759
    135  N4       -14.7720    6.0500  -13.5220 N.pl3   7  DC7        -0.1070
    136  C5       -15.5460    4.4770  -11.8970 C.ar    7  DC7         0.0566
    137  C6       -15.9250    4.2690  -10.6310 C.ar    7  DC7         0.0849
    138  P        -21.0590    5.4490   -8.3480 P.3     8  DA8         0.2141
    139  OP1      -22.3470    5.5810   -7.6300 O.3     8  DA8        -0.4373
    140  OP2      -21.0160    5.5420   -9.8250 O.2     8  DA8        -0.5172
    141  O5'      -20.0410    6.5830   -7.8570 O.3     8  DA8        -0.3114
    142  C5'      -20.4900    7.7010   -7.1080 C.3     8  DA8         0.1812
    143  C4'      -20.3030    8.9910   -7.8650 C.3     8  DA8         0.1775
    144  O4'      -18.9530    9.0740   -8.3960 O.3     8  DA8        -0.3326
    145  C3'      -21.1750    9.1710   -9.0970 C.3     8  DA8         0.1859
    146  O3'      -22.5120    9.5300   -8.7970 O.3     8  DA8        -0.2202
    147  C2'      -20.4020   10.2370   -9.8590 C.3     8  DA8         0.0894
    148  C1'      -18.9690    9.7560   -9.6350 C.3     8  DA8         0.2095
    149  N9       -18.4180    8.9630  -10.7050 N.ar    8  DA8        -0.2714
    150  C8       -18.3510    7.5940  -10.7060 C.ar    8  DA8         0.1815
    151  N7       -17.9450    7.0850  -11.8450 N.ar    8  DA8        -0.2193
    152  C5       -17.7310    8.1950  -12.6470 C.ar    8  DA8         0.1518
    153  C6       -17.2930    8.3320  -13.9760 C.ar    8  DA8         0.1919
    154  N6       -16.9770    7.2990  -14.7600 N.pl3   8  DA8        -0.1054
    155  N1       -17.1880    9.5820  -14.4760 N.ar    8  DA8        -0.2040
    156  C2       -17.5040   10.6170  -13.6880 C.ar    8  DA8         0.2016
    157  N3       -17.9260   10.6150  -12.4260 N.ar    8  DA8        -0.2048
    158  C4       -18.0200    9.3590  -11.9590 C.ar    8  DA8         0.1691
    159  P        -23.6590    8.7780   -9.4660 P.3     9  DC9         0.4149
    160  OP1      -24.7410    9.5930   -8.8560 O.2     9  DC9        -0.2668
    161  OP2      -24.0080    7.6530  -10.3700 O.3     9  DC9        -0.1481
    162  O5'      -22.7010    9.7650  -10.2620 O.3     9  DC9        -0.2177
    163  C5'      -22.9960   11.1510  -10.3360 C.3     9  DC9         0.2140
    164  C4'      -22.9300   11.6200  -11.7680 C.3     9  DC9         0.1776
    165  O4'      -21.5890   11.3990  -12.2800 O.3     9  DC9        -0.3326
    166  C3'      -23.7950   10.8690  -12.7670 C.3     9  DC9         0.1559
    167  O3'      -25.1490   11.3000  -12.7630 O.3     9  DC9        -0.3138
    168  C2'      -23.1260   11.2340  -14.0830 C.3     9  DC9         0.0866
    169  C1'      -21.6520   11.2140  -13.6830 C.3     9  DC9         0.2106
    170  N1       -21.0010    9.9620  -14.0740 N.ar    9  DC9        -0.2556
    171  C2       -20.6400    9.9070  -15.4250 C.ar    9  DC9         0.3531
    172  O2       -20.7490   10.9350  -16.1150 O.2     9  DC9        -0.2443
    173  N3       -20.1840    8.7400  -15.9390 N.ar    9  DC9        -0.1739
    174  C4       -20.0840    7.6620  -15.1610 C.ar    9  DC9         0.1759
    175  N4       -19.6300    6.5340  -15.7120 N.pl3   9  DC9        -0.1070
    176  C5       -20.4450    7.6970  -13.7900 C.ar    9  DC9         0.0566
    177  C6       -20.8940    8.8510  -13.2860 C.ar    9  DC9         0.0849
    178  P        -25.7970   10.5320  -13.2180 P.3    10  DA10        0.2141
    179  OP1      -27.0830   11.0550  -12.6860 O.2    10  DA10       -0.5172
    180  OP2      -25.2220    9.2840  -12.6510 O.3    10  DA10       -0.4373
    181  O5'      -25.9440   10.3570  -14.7950 O.3    10  DA10       -0.3114
    182  C5'      -26.3020   11.4800  -15.6200 C.3    10  DA10        0.1811
    183  C4'      -26.0940   11.1610  -17.0810 C.3    10  DA10        0.1746
    184  O4'      -24.6800   10.9760  -17.3600 O.3    10  DA10       -0.3327
    185  C3'      -26.7360    9.8800  -17.5800 C.3    10  DA10        0.1558
    186  O3'      -28.1210   10.0250  -17.8430 O.3    10  DA10       -0.3138
    187  C2'      -25.9080    9.5540  -18.8150 C.3    10  DA10        0.0865
    188  C1'      -24.5160    9.9970  -18.3710 C.3    10  DA10        0.2094
    189  N9       -23.7230    8.8700  -17.7900 N.ar   10  DA10       -0.2714
    190  C8       -23.4380    8.5450  -16.4900 C.ar   10  DA10        0.1815
    191  N7       -22.7210    7.4540  -16.3620 N.ar   10  DA10       -0.2193
    192  C5       -22.5230    7.0320  -17.6670 C.ar   10  DA10        0.1518
    193  C6       -21.8380    5.9310  -18.2120 C.ar   10  DA10        0.1919
    194  N6       -21.2010    5.0190  -17.4750 N.pl3  10  DA10       -0.1054
    195  N1       -21.8320    5.8000  -19.5550 N.ar   10  DA10       -0.2040
    196  C2       -22.4700    6.7160  -20.2930 C.ar   10  DA10        0.2016
    197  N3       -23.1460    7.7920  -19.8970 N.ar   10  DA10       -0.2048
    198  C4       -23.1350    7.8930  -18.5580 C.ar   10  DA10        0.1691
    199  P        -29.1420    8.7550  -17.5320 P.3    11  DC11        0.2141
    200  OP1      -30.3850    9.4970  -17.8450 O.2    11  DC11       -0.5172
    201  OP2      -29.1670    7.6680  -16.5190 O.3    11  DC11       -0.4373
    202  O5'      -28.5380    8.0780  -18.9140 O.3    11  DC11       -0.3114
    203  C5'      -28.9600    8.4540  -20.2330 C.3    11  DC11        0.1811
    204  C4'      -28.3390    7.6430  -21.3910 C.3    11  DC11        0.1746
    205  O4'      -26.9190    7.6160  -21.2770 O.3    11  DC11       -0.3327
    206  C3'      -28.7030    6.1760  -21.3600 C.3    11  DC11        0.1558
    207  O3'      -30.0190    5.8890  -21.8580 O.3    11  DC11       -0.3138
    208  C2'      -27.5760    5.5080  -22.1420 C.3    11  DC11        0.0866
    209  C1'      -26.3880    6.3460  -21.7120 C.3    11  DC11        0.2106
    210  N1       -25.7360    5.6300  -20.5870 N.ar   11  DC11       -0.2556
    211  C2       -24.8830    4.5580  -20.8720 C.ar   11  DC11        0.3531
    212  O2       -24.6610    4.2690  -22.0600 O.2    11  DC11       -0.2443
    213  N3       -24.3270    3.8680  -19.8480 N.ar   11  DC11       -0.1739
    214  C4       -24.5950    4.2130  -18.5880 C.ar   11  DC11        0.1759
    215  N4       -24.0230    3.5040  -17.6110 N.pl3  11  DC11       -0.1070
    216  C5       -25.4560    5.2960  -18.2780 C.ar   11  DC11        0.0566
    217  C6       -26.0040    5.9750  -19.2930 C.ar   11  DC11        0.0849
    218  P        -31.0230    4.6040  -21.4290 P.3    12  DC12        0.2141
    219  OP1      -32.4360    4.3460  -21.7800 O.2    12  DC12       -0.5172
    220  OP2      -30.6830    4.7380  -19.9960 O.3    12  DC12       -0.4373
    221  O5'      -30.0640    3.4900  -22.0680 O.3    12  DC12       -0.3114
    222  C5'      -30.2740    2.9540  -23.3730 C.3    12  DC12        0.1811
    223  C4'      -29.5600    1.6210  -23.5000 C.3    12  DC12        0.1746
    224  O4'      -28.1220    1.8540  -23.5640 O.3    12  DC12       -0.3327
    225  C3'      -29.7540    0.6420  -22.3340 C.3    12  DC12        0.1558
    226  O3'      -30.9820   -0.1150  -22.4140 O.3    12  DC12       -0.3138
    227  C2'      -28.5250   -0.2390  -22.5420 C.3    12  DC12        0.0866
    228  C1'      -27.4520    0.7960  -22.9030 C.3    12  DC12        0.2106
    229  N1       -26.8610    1.2620  -21.5490 N.ar   12  DC12       -0.2556
    230  C2       -25.9060    0.4470  -20.9300 C.ar   12  DC12        0.3531
    231  O2       -25.6320   -0.6500  -21.4460 O.2    12  DC12       -0.2443
    232  N3       -25.3110    0.8770  -19.7920 N.ar   12  DC12       -0.1739
    233  C4       -25.6380    2.0610  -19.2740 C.ar   12  DC12        0.1759
    234  N4       -25.0250    2.4420  -18.1510 N.pl3  12  DC12       -0.1070
    235  C5       -26.6030    2.9010  -19.8850 C.ar   12  DC12        0.0566
    236  C6       -27.1890    2.4740  -21.0100 C.ar   12  DC12        0.0849
    237  P        -31.8790   -0.6090  -21.1490 P.3    13  DT13        0.2141
    238  OP1      -33.1240   -1.3920  -21.3110 O.2    13  DT13       -0.5172
    239  OP2      -31.7030    0.2780  -19.9760 O.3    13  DT13       -0.4373
    240  O5'      -30.6170   -1.5870  -21.0730 O.3    13  DT13       -0.3114
    241  C5'      -30.4090   -2.6500  -21.9900 C.3    13  DT13        0.1812
    242  C4'      -29.2580   -3.5220  -21.5490 C.3    13  DT13        0.1775
    243  O4'      -28.0410   -2.7340  -21.4540 O.3    13  DT13       -0.3326
    244  C3'      -29.4020   -4.1670  -20.1760 C.3    13  DT13        0.1864
    245  O3'      -30.2090   -5.3340  -20.2130 O.3    13  DT13       -0.2133
    246  C2'      -27.9500   -4.4100  -19.7680 C.3    13  DT13        0.0895
    247  C1'      -27.2580   -3.1840  -20.3680 C.3    13  DT13        0.2107
    248  N1       -27.0840   -2.0170  -19.3780 N.ar   13  DT13       -0.2559
    249  C2       -25.9090   -1.9890  -18.6520 C.ar   13  DT13        0.3545
    250  O2       -25.0490   -2.8460  -18.7470 O.2    13  DT13       -0.2443
    251  N3       -25.7750   -0.9160  -17.8050 N.ar   13  DT13       -0.1533
    252  C4       -26.6790    0.1090  -17.6150 C.ar   13  DT13        0.2804
    253  O4       -26.4170    1.0060  -16.8170 O.2    13  DT13       -0.2654
    254  C5       -27.8740    0.0080  -18.4030 C.ar   13  DT13        0.0534
    255  C6       -28.0300   -1.0250  -19.2360 C.ar   13  DT13        0.0824
    256  C7       -28.9190    1.0750  -18.2670 C.3    13  DT13        0.0377
    257  P        -30.6060   -6.2290  -18.8990 P.3    14  DG14        0.3939
    258  OP1      -32.0170   -6.4860  -18.5310 O.3    14  DG14       -0.1425
    259  OP2      -30.0540   -4.8620  -18.7690 O.3    14  DG14       -0.1496
    260  O5'      -29.6850   -7.2360  -18.0660 O.3    14  DG14       -0.2926
    261  C5'      -28.4780   -7.7440  -18.6240 C.3    14  DG14        0.1828
    262  C4'      -27.6400   -8.4230  -17.5550 C.3    14  DG14        0.1747
    263  O4'      -26.5460   -7.5550  -17.1730 O.3    14  DG14       -0.3327
    264  C3'      -28.3820   -8.7170  -16.2580 C.3    14  DG14        0.1558
    265  O3'      -29.0430   -9.9750  -16.3170 O.3    14  DG14       -0.3138
    266  C2'      -27.2440   -8.7190  -15.2390 C.3    14  DG14        0.0865
    267  C1'      -26.3650   -7.5940  -15.7690 C.3    14  DG14        0.2094
    268  N9       -26.6640   -6.1350  -15.2010 N.ar   14  DG14       -0.2713
    269  C8       -27.4790   -5.1100  -15.6180 C.ar   14  DG14        0.1816
    270  N7       -27.6520   -4.1880  -14.7100 N.ar   14  DG14       -0.2173
    271  C5       -26.9070   -4.6250  -13.6310 C.ar   14  DG14        0.1748
    272  C6       -26.7070   -4.0450  -12.3520 C.ar   14  DG14        0.3023
    273  O6       -27.1700   -2.9860  -11.9100 O.2    14  DG14       -0.2633
    274  N1       -25.8750   -4.8230  -11.5520 N.ar   14  DG14       -0.1709
    275  C2       -25.3050   -6.0130  -11.9370 C.ar   14  DG14        0.2606
    276  N2       -24.5300   -6.6190  -11.0270 N.pl3  14  DG14       -0.0859
    277  N3       -25.4820   -6.5650  -13.1210 N.ar   14  DG14       -0.1918
    278  C4       -26.2880   -5.8270  -13.9140 C.ar   14  DG14        0.1722
    279  P        -30.4570  -10.1950  -15.4690 P.3    15  DC15        0.2141
    280  OP1      -30.7800  -11.4940  -16.1100 O.2    15  DC15       -0.5172
    281  OP2      -31.2760   -8.9950  -15.7970 O.3    15  DC15       -0.4373
    282  O5'      -30.4490  -10.3920  -13.8800 O.3    15  DC15       -0.3114
    283  C5'      -30.0180  -11.6300  -13.2960 C.3    15  DC15        0.1811
    284  C4'      -29.2830  -11.4040  -11.9820 C.3    15  DC15        0.1746
    285  O4'      -28.3750  -10.2750  -12.1020 O.3    15  DC15       -0.3327
    286  C3'      -30.1030  -11.0980  -10.7350 C.3    15  DC15        0.1558
    287  O3'      -30.5760  -12.2980  -10.1230 O.3    15  DC15       -0.3138
    288  C2'      -29.0870  -10.4030   -9.8260 C.3    15  DC15        0.0866
    289  C1'      -28.1890   -9.6750  -10.8290 C.3    15  DC15        0.2106
    290  N1       -28.5140   -8.2890  -10.9400 N.ar   15  DC15       -0.2556
    291  C2       -28.1810   -7.4600   -9.8620 C.ar   15  DC15        0.3531
    292  O2       -27.5860   -7.9540   -8.8890 O.2    15  DC15       -0.2443
    293  N3       -28.5180   -6.1490   -9.9100 N.ar   15  DC15       -0.1739
    294  C4       -29.1570   -5.6620  -10.9740 C.ar   15  DC15        0.1759
    295  N4       -29.4680   -4.3640  -10.9760 N.pl3  15  DC15       -0.1070
    296  C5       -29.5030   -6.4850  -12.0770 C.ar   15  DC15        0.0566
    297  C6       -29.1690   -7.7790  -12.0250 C.ar   15  DC15        0.0849
    298  P        -31.8410  -12.2940   -9.1790 P.3    16  DT16        0.2141
    299  OP1      -31.8040  -13.5810   -8.4410 O.3    16  DT16       -0.4373
    300  OP2      -33.0990  -11.7990   -9.7820 O.2    16  DT16       -0.5172
    301  O5'      -31.3820  -11.1010   -8.2210 O.3    16  DT16       -0.3114
    302  C5'      -30.4070  -11.3020   -7.2080 C.3    16  DT16        0.1811
    303  C4'      -30.5170  -10.2280   -6.1580 C.3    16  DT16        0.1746
    304  O4'      -30.0790   -8.9700   -6.7290 O.3    16  DT16       -0.3327
    305  C3'      -31.9310   -9.9420   -5.6640 C.3    16  DT16        0.1558
    306  O3'      -32.3770  -10.8390   -4.6590 O.3    16  DT16       -0.3138
    307  C2'      -31.8420   -8.4910   -5.2070 C.3    16  DT16        0.0866
    308  C1'      -30.8730   -7.9130   -6.2370 C.3    16  DT16        0.2106
    309  N1       -31.4580   -7.2440   -7.3960 N.ar   16  DT16       -0.2559
    310  C2       -31.8870   -5.9350   -7.2820 C.ar   16  DT16        0.3545
    311  O2       -31.8140   -5.3010   -6.2450 O.2    16  DT16       -0.2443
    312  N3       -32.4090   -5.3930   -8.4310 N.ar   16  DT16       -0.1533
    313  C4       -32.5420   -6.0130   -9.6560 C.ar   16  DT16        0.2804
    314  O4       -33.0310   -5.3940  -10.5980 O.2    16  DT16       -0.2654
    315  C5       -32.0750   -7.3700   -9.6940 C.ar   16  DT16        0.0534
    316  C6       -31.5630   -7.9230   -8.5910 C.ar   16  DT16        0.0824
    317  C7       -32.1770   -8.1310  -10.9830 C.3    16  DT16        0.0377
    318  P        -34.0110  -11.5050   -4.6880 P.3    17  DC17        0.2141
    319  OP1      -34.4840  -12.5230   -3.6990 O.3    17  DC17       -0.4373
    320  OP2      -34.3850  -11.6210   -6.1170 O.2    17  DC17       -0.5172
    321  O5'      -34.4540  -10.0540   -4.1790 O.3    17  DC17       -0.3114
    322  C5'      -34.8040   -9.8700   -2.8080 C.3    17  DC17        0.1811
    323  C4'      -35.1440   -8.4290   -2.5230 C.3    17  DC17        0.1746
    324  O4'      -34.4130   -7.5960   -3.4590 O.3    17  DC17       -0.3327
    325  C3'      -36.5800   -8.0270   -2.8020 C.3    17  DC17        0.1558
    326  O3'      -37.4830   -8.4800   -1.8170 O.3    17  DC17       -0.3138
    327  C2'      -36.4080   -6.5170   -2.8080 C.3    17  DC17        0.0866
    328  C1'      -35.1620   -6.4150   -3.7140 C.3    17  DC17        0.2106
    329  N1       -35.4770   -6.2570   -5.1880 N.ar   17  DC17       -0.2556
    330  C2       -35.7710   -4.9780   -5.6750 C.ar   17  DC17        0.3531
    331  O2       -35.9760   -4.0610   -4.8620 O.2    17  DC17       -0.2443
    332  N3       -35.8230   -4.7780   -7.0140 N.ar   17  DC17       -0.1739
    333  C4       -35.5960   -5.7930   -7.8490 C.ar   17  DC17        0.1759
    334  N4       -35.6580   -5.5480   -9.1600 N.pl3  17  DC17       -0.1070
    335  C5       -35.2970   -7.0960   -7.3760 C.ar   17  DC17        0.0566
    336  C6       -35.2460   -7.2890   -6.0530 C.ar   17  DC17        0.0849
    337  P        -38.6840   -9.1040   -2.4410 P.3    18  DT18        0.2141
    338  OP1      -38.3190  -10.4120   -1.8290 O.3    18  DT18       -0.4373
    339  OP2      -39.2320   -9.0690   -3.8210 O.2    18  DT18       -0.5172
    340  O5'      -39.7000   -8.3340   -1.4790 O.3    18  DT18       -0.3114
    341  C5'      -39.9400   -6.9370   -1.6600 C.3    18  DT18        0.1812
    342  C4'      -39.7880   -6.1860   -0.3550 C.3    18  DT18        0.1775
    343  O4'      -40.8910   -6.4750    0.5250 O.3    18  DT18       -0.3326
    344  C3'      -38.5350   -6.4760    0.4530 C.3    18  DT18        0.1859
    345  O3'      -37.4070   -5.7240   -0.0350 O.3    18  DT18       -0.2203
    346  C2'      -38.9410   -6.1910    1.8990 C.3    18  DT18        0.0895
    347  C1'      -40.4600   -6.3800    1.8620 C.3    18  DT18        0.2107
    348  N1       -40.8410   -7.8790    2.3890 N.ar   18  DT18       -0.2559
    349  C2       -41.8290   -8.3050    3.2560 C.ar   18  DT18        0.3545
    350  O2       -42.9560   -7.8430    3.2580 O.2    18  DT18       -0.2443
    351  N3       -41.4490   -9.2970    4.1270 N.ar   18  DT18       -0.1533
    352  C4       -40.2080   -9.8920    4.2170 C.ar   18  DT18        0.2804
    353  O4       -40.0180  -10.7730    5.0520 O.2    18  DT18       -0.2654
    354  C5       -39.2360   -9.3950    3.2840 C.ar   18  DT18        0.0534
    355  C6       -39.5790   -8.4300    2.4260 C.ar   18  DT18        0.0824
    356  C7       -37.8540   -9.9790    3.3030 C.3    18  DT18        0.0377
    357  P        -37.2750   -3.5420   -0.3930 P.3    19  DA19        0.5411
    358  OP1      -38.4250   -2.6940   -0.0220 O.2    19  DA19       -0.2272
    359  OP2      -36.8440   -3.5900   -1.8120 O.2    19  DA19       -0.2272
    360  O5'      -36.0440   -3.0660    0.4900 O.3    19  DA19       -0.2722
    361  C5'      -36.0350   -3.3700    1.8870 C.3    19  DA19        0.1850
    362  C4'      -34.7660   -4.0950    2.2970 C.3    19  DA19        0.1748
    363  O4'      -34.7710   -5.5020    1.9400 O.3    19  DA19       -0.3327
    364  C3'      -33.4570   -3.6160    1.7130 C.3    19  DA19        0.1558
    365  O3'      -33.0580   -2.3980    2.2990 O.3    19  DA19       -0.3138
    366  C2'      -32.5240   -4.7490    2.1160 C.3    19  DA19        0.0865
    367  C1'      -33.4240   -5.9650    1.9010 C.3    19  DA19        0.2094
    368  N9       -33.2420   -6.6600    0.6600 N.ar   19  DA19       -0.2714
    369  C8       -34.1450   -6.7070   -0.3700 C.ar   19  DA19        0.1815
    370  N7       -33.8220   -7.5550   -1.3180 N.ar   19  DA19       -0.2193
    371  C5       -32.6260   -8.1010   -0.8810 C.ar   19  DA19        0.1518
    372  C6       -31.7680   -9.0660   -1.4370 C.ar   19  DA19        0.1919
    373  N6       -31.9970   -9.6750   -2.6030 N.pl3  19  DA19       -0.1054
    374  N1       -30.6530   -9.3860   -0.7450 N.ar   19  DA19       -0.2040
    375  C2       -30.4250   -8.7760    0.4230 C.ar   19  DA19        0.2016
    376  N3       -31.1570   -7.8560    1.0480 N.ar   19  DA19       -0.2048
    377  C4       -32.2560   -7.5590    0.3350 C.ar   19  DA19        0.1691
    378  P        -32.1040   -1.4380    1.4530 P.3    20  DT20        0.2141
    379  OP1      -31.7570   -0.1620    2.1560 O.3    20  DT20       -0.4373
    380  OP2      -32.4640   -1.4090    0.0090 O.2    20  DT20       -0.5172
    381  O5'      -30.8760   -2.4430    1.6270 O.3    20  DT20       -0.3114
    382  C5'      -29.9980   -2.3460    2.7540 C.3    20  DT20        0.1811
    383  C4'      -28.8380   -3.3030    2.6130 C.3    20  DT20        0.1746
    384  O4'      -29.3690   -4.6390    2.3950 O.3    20  DT20       -0.3327
    385  C3'      -27.8740   -3.0830    1.4500 C.3    20  DT20        0.1558
    386  O3'      -26.8430   -2.1440    1.7550 O.3    20  DT20       -0.3138
    387  C2'      -27.2900   -4.4770    1.2420 C.3    20  DT20        0.0866
    388  C1'      -28.4920   -5.3720    1.5500 C.3    20  DT20        0.2106
    389  N1       -29.2250   -5.7630    0.3650 N.ar   20  DT20       -0.2559
    390  C2       -28.7200   -6.8090   -0.3840 C.ar   20  DT20        0.3545
    391  O2       -27.7170   -7.4250   -0.0730 O.2    20  DT20       -0.2443
    392  N3       -29.4360   -7.1100   -1.5180 N.ar   20  DT20       -0.1533
    393  C4       -30.5790   -6.4830   -1.9680 C.ar   20  DT20        0.2804
    394  O4       -31.1110   -6.8680   -3.0060 O.2    20  DT20       -0.2654
    395  C5       -31.0400   -5.4070   -1.1360 C.ar   20  DT20        0.0534
    396  C6       -30.3630   -5.0930   -0.0280 C.ar   20  DT20        0.0824
    397  C7       -32.2770   -4.6620   -1.5410 C.3    20  DT20        0.0377
    398  P        -25.9740   -1.3800    0.5570 P.3    21  DT21        0.2141
    399  OP1      -25.5430   -0.5750    1.7290 O.3    21  DT21       -0.4373
    400  OP2      -26.6530   -0.7150   -0.5920 O.2    21  DT21       -0.5172
    401  O5'      -24.6920   -2.1620    0.0380 O.3    21  DT21       -0.3114
    402  C5'      -24.3100   -3.3940    0.6260 C.3    21  DT21        0.1811
    403  C4'      -24.2280   -4.4550   -0.4390 C.3    21  DT21        0.1746
    404  O4'      -25.5420   -4.7440   -0.9870 O.3    21  DT21       -0.3327
    405  C3'      -23.5100   -4.0540   -1.7130 C.3    21  DT21        0.1558
    406  O3'      -22.1110   -3.8740   -1.5650 O.3    21  DT21       -0.3138
    407  C2'      -23.9160   -5.1800   -2.6600 C.3    21  DT21        0.0866
    408  C1'      -25.3610   -5.4350   -2.2170 C.3    21  DT21        0.2106
    409  N1       -26.3200   -4.9000   -3.0140 N.ar   21  DT21       -0.2559
    410  C2       -26.6900   -5.5020   -4.2020 C.ar   21  DT21        0.3545
    411  O2       -26.1720   -6.5230   -4.6180 O.2    21  DT21       -0.2443
    412  N3       -27.6930   -4.8620   -4.8890 N.ar   21  DT21       -0.1533
    413  C4       -28.3480   -3.7070   -4.5170 C.ar   21  DT21        0.2804
    414  O4       -29.2310   -3.2530   -5.2400 O.2    21  DT21       -0.2654
    415  C5       -27.9070   -3.1420   -3.2730 C.ar   21  DT21        0.0534
    416  C6       -26.9330   -3.7430   -2.5840 C.ar   21  DT21        0.0824
    417  C7       -28.5590   -1.8830   -2.7820 C.3    21  DT21        0.0377
    418  P        -21.3460   -3.0510   -2.5740 P.3    22  DC22        0.2141
    419  OP1      -20.1790   -2.2960   -2.0500 O.3    22  DC22       -0.4373
    420  OP2      -22.2060   -2.4380   -3.6110 O.2    22  DC22       -0.5172
    421  O5'      -20.8860   -4.4630   -3.1320 O.3    22  DC22       -0.3114
    422  C5'      -20.1140   -4.5070   -4.2900 C.3    22  DC22        0.1811
    423  C4'      -20.6470   -5.5200   -5.2590 C.3    22  DC22        0.1746
    424  O4'      -22.0940   -5.7040   -5.2050 O.3    22  DC22       -0.3327
    425  C3'      -20.4230   -5.0510   -6.6730 C.3    22  DC22        0.1558
    426  O3'      -19.0630   -5.0440   -7.0290 O.3    22  DC22       -0.3138
    427  C2'      -21.3760   -5.9280   -7.4680 C.3    22  DC22        0.0866
    428  C1'      -22.5820   -5.9850   -6.5230 C.3    22  DC22        0.2106
    429  N1       -23.5100   -4.9050   -7.1150 N.ar   22  DC22       -0.2556
    430  C2       -24.2280   -5.1230   -8.2960 C.ar   22  DC22        0.3531
    431  O2       -24.0180   -6.1660   -8.9390 O.2    22  DC22       -0.2443
    432  N3       -25.1250   -4.1950   -8.7040 N.ar   22  DC22       -0.1739
    433  C4       -25.3170   -3.0890   -7.9830 C.ar   22  DC22        0.1759
    434  N4       -26.2120   -2.2030   -8.4250 N.pl3  22  DC22       -0.1070
    435  C5       -24.6000   -2.8490   -6.7830 C.ar   22  DC22        0.0566
    436  C6       -23.7140   -3.7690   -6.3840 C.ar   22  DC22        0.0849
    437  P        -18.6460   -3.8870   -7.7160 P.3    23  DC23        0.2141
    438  OP1      -17.1560   -3.9180   -7.7490 O.2    23  DC23       -0.5172
    439  OP2      -19.3580   -2.5910   -7.5130 O.3    23  DC23       -0.4373
    440  O5'      -19.1240   -4.5550   -9.0770 O.3    23  DC23       -0.3114
    441  C5'      -18.6870   -5.8720   -9.3590 C.3    23  DC23        0.1811
    442  C4'      -18.9080   -6.2130  -10.7950 C.3    23  DC23        0.1746
    443  O4'      -20.3200   -6.3140  -11.0520 O.3    23  DC23       -0.3327
    444  C3'      -18.3400   -5.2460  -11.8080 C.3    23  DC23        0.1558
    445  O3'      -17.8690   -6.1040  -12.8340 O.3    23  DC23       -0.3138
    446  C2'      -19.5560   -4.4110  -12.1890 C.3    23  DC23        0.0866
    447  C1'      -20.6720   -5.4410  -12.0950 C.3    23  DC23        0.2106
    448  N1       -21.8710   -4.7450  -11.7830 N.ar   23  DC23       -0.2556
    449  C2       -22.8870   -4.6450  -12.7410 C.ar   23  DC23        0.3531
    450  O2       -23.0180   -5.5620  -13.5700 O.2    23  DC23       -0.2443
    451  N3       -23.6940   -3.5580  -12.7360 N.ar   23  DC23       -0.1739
    452  C4       -23.5160   -2.5980  -11.8270 C.ar   23  DC23        0.1759
    453  N4       -24.3350   -1.5450  -11.8610 N.pl3  23  DC23       -0.1070
    454  C5       -22.4920   -2.6800  -10.8480 C.ar   23  DC23        0.0566
    455  C6       -21.6980   -3.7560  -10.8560 C.ar   23  DC23        0.0849
    456  P        -16.9940   -5.3360  -13.6970 P.3    24  DT24        0.2141
    457  OP1      -15.7890   -6.1130  -14.1200 O.2    24  DT24       -0.5172
    458  OP2      -16.8530   -3.9320  -13.2160 O.3    24  DT24       -0.4373
    459  O5'      -18.0050   -5.3220  -14.9160 O.3    24  DT24       -0.3114
    460  C5'      -18.2310   -6.5110  -15.6290 C.3    24  DT24        0.1811
    461  C4'      -18.9190   -6.1880  -16.8970 C.3    24  DT24        0.1746
    462  O4'      -20.2990   -5.8640  -16.6110 O.3    24  DT24       -0.3327
    463  C3'      -18.3700   -4.9600  -17.5820 C.3    24  DT24        0.1558
    464  O3'      -17.2030   -5.2400  -18.3440 O.3    24  DT24       -0.3138
    465  C2'      -19.5620   -4.5170  -18.4250 C.3    24  DT24        0.0866
    466  C1'      -20.7400   -4.8800  -17.5220 C.3    24  DT24        0.2106
    467  N1       -21.2120   -3.7310  -16.7800 N.ar   24  DT24       -0.2559
    468  C2       -22.0610   -2.8490  -17.4200 C.ar   24  DT24        0.3545
    469  O2       -22.4900   -3.0380  -18.5450 O.2    24  DT24       -0.2443
    470  N3       -22.3920   -1.7300  -16.6940 N.ar   24  DT24       -0.1533
    471  C4       -21.9670   -1.4120  -15.4210 C.ar   24  DT24        0.2804
    472  O4       -22.3520   -0.3690  -14.8980 O.2    24  DT24       -0.2654
    473  C5       -21.0870   -2.3770  -14.8240 C.ar   24  DT24        0.0534
    474  C6       -20.7500   -3.4740  -15.5080 C.ar   24  DT24        0.0824
    475  C7       -20.5700   -2.1210  -13.4400 C.3    24  DT24        0.0377
    476  P        -16.3700   -4.1090  -18.8090 P.3    25  DC25        0.2141
    477  OP1      -15.2790   -4.9600  -19.2720 O.2    25  DC25       -0.5172
    478  OP2      -16.2280   -3.1510  -17.6780 O.3    25  DC25       -0.4373
    479  O5'      -17.0720   -3.2910  -19.9800 O.3    25  DC25       -0.3114
    480  C5'      -16.8730   -3.7750  -21.2650 C.3    25  DC25        0.1811
    481  C4'      -18.0500   -3.3200  -22.0830 C.3    25  DC25        0.1746
    482  O4'      -19.1030   -3.2170  -21.1500 O.3    25  DC25       -0.3327
    483  C3'      -18.0240   -1.9220  -22.6250 C.3    25  DC25        0.1558
    484  O3'      -17.2990   -1.7960  -23.8590 O.3    25  DC25       -0.3138
    485  C2'      -19.5020   -1.7930  -22.8280 C.3    25  DC25        0.0866
    486  C1'      -19.9980   -2.1940  -21.5190 C.3    25  DC25        0.2106
    487  N1       -20.0840   -1.1020  -20.5730 N.ar   25  DC25       -0.2556
    488  C2       -21.0670   -0.1060  -20.6020 C.ar   25  DC25        0.3531
    489  O2       -21.7640    0.0170  -21.6230 O.2    25  DC25       -0.2443
    490  N3       -21.2290    0.6920  -19.5190 N.ar   25  DC25       -0.1739
    491  C4       -20.4570    0.5250  -18.4450 C.ar   25  DC25        0.1759
    492  N4       -20.6540    1.3350  -17.4020 N.pl3  25  DC25       -0.1070
    493  C5       -19.4550   -0.4780  -18.3960 C.ar   25  DC25        0.0566
    494  C6       -19.2990   -1.2640  -19.4670 C.ar   25  DC25        0.0849
    495  P        -16.2120   -0.9750  -23.6200 P.3    26  DT26        0.2141
    496  OP1      -15.1760   -1.4470  -24.5740 O.2    26  DT26       -0.5172
    497  OP2      -15.8030   -0.4360  -22.3040 O.3    26  DT26       -0.4373
    498  O5'      -17.0880    0.1490  -24.3140 O.3    26  DT26       -0.3114
    499  C5'      -17.9070   -0.1450  -25.4550 C.3    26  DT26        0.1811
    500  C4'      -18.8810    0.9810  -25.6680 C.3    26  DT26        0.1746
    501  O4'      -19.9600    0.9000  -24.6970 O.3    26  DT26       -0.3327
    502  C3'      -18.2550    2.3370  -25.4150 C.3    26  DT26        0.1558
    503  O3'      -17.4950    2.7820  -26.5270 O.3    26  DT26       -0.3138
    504  C2'      -19.4600    3.1930  -25.0560 C.3    26  DT26        0.0866
    505  C1'      -20.2790    2.2010  -24.2260 C.3    26  DT26        0.2106
    506  N1       -20.0140    2.3280  -22.7550 N.ar   26  DT26       -0.2559
    507  C2       -20.5540    3.4010  -22.0720 C.ar   26  DT26        0.3545
    508  O2       -21.2990    4.2120  -22.5920 O.2    26  DT26       -0.2443
    509  N3       -20.1870    3.4930  -20.7510 N.ar   26  DT26       -0.1533
    510  C4       -19.3530    2.6380  -20.0610 C.ar   26  DT26        0.2804
    511  O4       -19.1180    2.8510  -18.8740 O.2    26  DT26       -0.2654
    512  C5       -18.8320    1.5500  -20.8390 C.ar   26  DT26        0.0534
    513  C6       -19.1730    1.4370  -22.1250 C.ar   26  DT26        0.0824
    514  C7       -17.9140    0.5650  -20.1770 C.3    26  DT26        0.0377
    515  P        -16.2260    3.8650  -26.3290 P.3    27  DG27        0.2141
    516  OP1      -15.4310    4.0820  -27.5440 O.2    27  DG27       -0.5172
    517  OP2      -15.6300    3.1360  -25.1960 O.3    27  DG27       -0.4373
    518  O5'      -16.7300    5.2920  -25.8240 O.3    27  DG27       -0.3114
    519  C5'      -17.2720    6.1720  -26.7810 C.3    27  DG27        0.1811
    520  C4'      -17.7400    7.4530  -26.1260 C.3    27  DG27        0.1746
    521  O4'      -18.8340    7.1550  -25.2370 O.3    27  DG27       -0.3327
    522  C3'      -16.7130    8.1210  -25.2330 C.3    27  DG27        0.1558
    523  O3'      -15.8370    8.9040  -26.0150 O.3    27  DG27       -0.3138
    524  C2'      -17.6160    8.9740  -24.3550 C.3    27  DG27        0.0865
    525  C1'      -18.7710    8.0060  -24.1170 C.3    27  DG27        0.2094
    526  N9       -18.5910    7.2020  -22.9030 N.ar   27  DG27       -0.2713
    527  C8       -18.0640    5.9410  -22.7590 C.ar   27  DG27        0.1816
    528  N7       -17.9400    5.5740  -21.5120 N.ar   27  DG27       -0.2173
    529  C5       -18.4140    6.6520  -20.7880 C.ar   27  DG27        0.1748
    530  C6       -18.5280    6.8440  -19.3870 C.ar   27  DG27        0.3023
    531  O6       -18.2190    6.0630  -18.4790 O.2    27  DG27       -0.2633
    532  N1       -19.0620    8.0910  -19.0750 N.ar   27  DG27       -0.1709
    533  C2       -19.4390    9.0370  -19.9990 C.ar   27  DG27        0.2606
    534  N2       -19.9350   10.1800  -19.5060 N.pl3  27  DG27       -0.0859
    535  N3       -19.3390    8.8720  -21.3030 N.ar   27  DG27       -0.1918
    536  C4       -18.8220    7.6690  -21.6300 C.ar   27  DG27        0.1722
    537  P        -14.2910    9.0940  -25.5500 P.3    28  DT28        0.2141
    538  OP1      -13.5610    9.7910  -26.6310 O.2    28  DT28       -0.5172
    539  OP2      -13.6980    7.8920  -24.9250 O.3    28  DT28       -0.4373
    540  O5'      -14.5970   10.1890  -24.4310 O.3    28  DT28       -0.3114
    541  C5'      -14.6420   11.5480  -24.8220 C.3    28  DT28        0.1811
    542  C4'      -15.2680   12.3810  -23.7260 C.3    28  DT28        0.1746
    543  O4'      -16.4180   11.6930  -23.1710 O.3    28  DT28       -0.3327
    544  C3'      -14.3920   12.5910  -22.5050 C.3    28  DT28        0.1558
    545  O3'      -13.3960   13.5650  -22.7550 O.3    28  DT28       -0.3138
    546  C2'      -15.4510   13.0650  -21.5150 C.3    28  DT28        0.0866
    547  C1'      -16.5260   12.0230  -21.7930 C.3    28  DT28        0.2106
    548  N1       -16.2990   10.7400  -20.9120 N.ar   28  DT28       -0.2559
    549  C2       -16.7110   10.8010  -19.5940 C.ar   28  DT28        0.3545
    550  O2       -17.1940   11.8020  -19.0950 O.2    28  DT28       -0.2443
    551  N3       -16.5350    9.6430  -18.8760 N.ar   28  DT28       -0.1533
    552  C4       -16.0010    8.4570  -19.3330 C.ar   28  DT28        0.2804
    553  O4       -15.9080    7.5000  -18.5680 O.2    28  DT28       -0.2654
    554  C5       -15.5960    8.4730  -20.7110 C.ar   28  DT28        0.0534
    555  C6       -15.7560    9.5860  -21.4320 C.ar   28  DT28        0.0824
    556  C7       -15.0020    7.2290  -21.3020 C.3    28  DT28        0.0377
    557  P        -12.1660   13.5280  -21.9480 P.3    29  DT29        0.2141
    558  OP1      -11.2460   14.4800  -22.5790 O.2    29  DT29       -0.5172
    559  OP2      -11.6420   12.4040  -21.0810 O.3    29  DT29       -0.4373
    560  O5'      -13.1810   14.3660  -21.0390 O.3    29  DT29       -0.3114
    561  C5'      -12.7140   15.4420  -20.2210 C.3    29  DT29        0.1811
    562  C4'      -13.7450   15.7460  -19.1700 C.3    29  DT29        0.1746
    563  O4'      -14.5810   14.5780  -19.2010 O.3    29  DT29       -0.3327
    564  C3'      -13.3880   15.7200  -17.7080 C.3    29  DT29        0.1558
    565  O3'      -12.8070   16.9610  -17.2330 O.3    29  DT29       -0.3138
    566  C2'      -14.7670   15.4720  -17.1160 C.3    29  DT29        0.0866
    567  C1'      -15.2240   14.3350  -17.9660 C.3    29  DT29        0.2106
    568  N1       -15.1240   13.0740  -17.5760 N.ar   29  DT29       -0.2559
    569  C2       -15.7050   12.5690  -16.4290 C.ar   29  DT29        0.3545
    570  O2       -16.3490   13.2530  -15.6540 O.2    29  DT29       -0.2443
    571  N3       -15.5040   11.2260  -16.2190 N.ar   29  DT29       -0.1533
    572  C4       -14.7950   10.3580  -17.0230 C.ar   29  DT29        0.2804
    573  O4       -14.7030    9.1750  -16.7020 O.2    29  DT29       -0.2654
    574  C5       -14.2210   10.9580  -18.1940 C.ar   29  DT29        0.0534
    575  C6       -14.4020   12.2610  -18.4230 C.ar   29  DT29        0.0824
    576  C7       -13.4300   10.0950  -19.1320 C.3    29  DT29        0.0377
    577  P        -11.5320   16.7050  -16.4730 P.3    30  DG30        0.2141
    578  OP1      -10.6660   17.9110  -16.6040 O.3    30  DG30       -0.4373
    579  OP2      -11.1040   15.3960  -17.0490 O.2    30  DG30       -0.5172
    580  O5'      -11.8800   16.4970  -14.9420 O.3    30  DG30       -0.3114
    581  C5'      -12.5780   17.4990  -14.2340 C.3    30  DG30        0.1811
    582  C4'      -13.1910   16.9050  -13.0080 C.3    30  DG30        0.1746
    583  O4'      -14.2350   15.9780  -13.3910 O.3    30  DG30       -0.3327
    584  C3'      -12.2480   16.0290  -12.2220 C.3    30  DG30        0.1558
    585  O3'      -11.3870   16.7920  -11.4180 O.3    30  DG30       -0.3138
    586  C2'      -13.2130   15.1960  -11.4060 C.3    30  DG30        0.0865
    587  C1'      -14.2830   14.9130  -12.4540 C.3    30  DG30        0.2094
    588  N9       -13.9570   13.6530  -13.1870 N.ar   30  DG30       -0.2713
    589  C8       -13.2240   13.4850  -14.3370 C.ar   30  DG30        0.1816
    590  N7       -13.0170   12.2320  -14.6380 N.ar   30  DG30       -0.2173
    591  C5       -13.6500   11.5280  -13.6310 C.ar   30  DG30        0.1748
    592  C6       -13.7690   10.1310  -13.4150 C.ar   30  DG30        0.3023
    593  O6       -13.3170    9.2080  -14.1040 O.2    30  DG30       -0.2633
    594  N1       -14.4980    9.8420  -12.2650 N.ar   30  DG30       -0.1709
    595  C2       -15.0460   10.7840  -11.4260 C.ar   30  DG30        0.2606
    596  N2       -15.7160   10.3120  -10.3660 N.pl3  30  DG30       -0.0859
    597  N3       -14.9430   12.0850  -11.6130 N.ar   30  DG30       -0.1918
    598  C4       -14.2380   12.3890  -12.7240 C.ar   30  DG30        0.1722
    599  P        -10.0080   16.1410  -10.9380 P.3    31  DA31        0.2141
    600  OP1       -8.5820   16.1800  -10.4990 O.3    31  DA31       -0.4373
    601  OP2      -10.3580   15.7040  -12.3210 O.2    31  DA31       -0.5172
    602  O5'      -10.8580   15.2560   -9.9190 O.3    31  DA31       -0.3114
    603  C5'      -11.2790   15.7780   -8.6600 C.3    31  DA31        0.1811
    604  C4'      -11.3950   14.6650   -7.6470 C.3    31  DA31        0.1746
    605  O4'      -12.4380   13.7460   -8.0600 O.3    31  DA31       -0.3327
    606  C3'      -10.1470   13.8100   -7.5300 C.3    31  DA31        0.1558
    607  O3'       -9.2010   14.4110   -6.6550 O.3    31  DA31       -0.3138
    608  C2'      -10.7000   12.4730   -7.0590 C.3    31  DA31        0.0865
    609  C1'      -12.0210   12.4080   -7.8320 C.3    31  DA31        0.2094
    610  N9       -11.7870   11.7010   -9.0280 N.ar   31  DA31       -0.2714
    611  C8       -11.3600   12.2750  -10.1970 C.ar   31  DA31        0.1815
    612  N7       -11.1860   11.4180  -11.1750 N.ar   31  DA31       -0.2193
    613  C5       -11.5210   10.1980  -10.6100 C.ar   31  DA31        0.1518
    614  C6       -11.5460    8.8910  -11.1270 C.ar   31  DA31        0.1919
    615  N6       -11.2160    8.5870  -12.3850 N.pl3  31  DA31       -0.1054
    616  N1       -11.9280    7.8960  -10.2980 N.ar   31  DA31       -0.2040
    617  C2       -12.2600    8.2020   -9.0380 C.ar   31  DA31        0.2016
    618  N3       -12.2760    9.3890   -8.4380 N.ar   31  DA31       -0.2048
    619  C4       -11.8910   10.3560   -9.2880 C.ar   31  DA31        0.1691
    620  P         -7.5820   14.2360   -7.0720 P.3    32  DA32        0.2141
    621  OP1       -6.7560   15.4690   -7.1460 O.3    32  DA32       -0.4373
    622  OP2       -7.5940   13.2960   -8.2190 O.2    32  DA32       -0.5172
    623  O5'       -7.1330   13.4200   -5.7840 O.3    32  DA32       -0.3114
    624  C5'       -6.5030   12.1550   -5.9080 C.3    32  DA32        0.1811
    625  C4'       -7.4200   11.0710   -5.4070 C.3    32  DA32        0.1746
    626  O4'       -8.6450   11.0860   -6.1950 O.3    32  DA32       -0.3327
    627  C3'       -6.8940    9.6610   -5.5960 C.3    32  DA32        0.1558
    628  O3'       -6.0000    9.2580   -4.5740 O.3    32  DA32       -0.3138
    629  C2'       -8.1800    8.8560   -5.5960 C.3    32  DA32        0.0865
    630  C1'       -9.0540    9.7520   -6.4670 C.3    32  DA32        0.2094
    631  N9        -8.8190    9.1510   -7.8160 N.ar   32  DA32       -0.2714
    632  C8        -8.4550    9.9740   -8.8500 C.ar   32  DA32        0.1815
    633  N7        -8.6470    9.4480  -10.0360 N.ar   32  DA32       -0.2193
    634  C5        -9.1710    8.1950   -9.7630 C.ar   32  DA32        0.1518
    635  C6        -9.5880    7.1420  -10.5960 C.ar   32  DA32        0.1919
    636  N6        -9.5410    7.1910  -11.9300 N.pl3  32  DA32       -0.1054
    637  N1       -10.0620    6.0250  -10.0050 N.ar   32  DA32       -0.2040
    638  C2       -10.1100    5.9770   -8.6680 C.ar   32  DA32        0.2016
    639  N3        -9.7480    6.9000   -7.7800 N.ar   32  DA32       -0.2048
    640  C4        -9.2810    7.9970   -8.4000 C.ar   32  DA32        0.1691
    641  P         -5.1940    8.3570   -4.8480 P.3    33  DG33        0.2141
    642  OP1       -4.5120    8.4180   -3.5340 O.3    33  DG33       -0.4373
    643  OP2       -4.3980    8.0360   -6.0530 O.2    33  DG33       -0.5172
    644  O5'       -6.3910    7.3120   -4.7820 O.3    33  DG33       -0.3114
    645  C5'       -6.0510    5.9620   -4.8430 C.3    33  DG33        0.1811
    646  C4'       -7.1770    5.1560   -5.4360 C.3    33  DG33        0.1746
    647  O4'       -8.0040    5.9510   -6.3240 O.3    33  DG33       -0.3327
    648  C3'       -6.6400    4.0720   -6.3330 C.3    33  DG33        0.1558
    649  O3'       -6.1310    3.0310   -5.5170 O.3    33  DG33       -0.3138
    650  C2'       -7.9070    3.7570   -7.1180 C.3    33  DG33        0.0865
    651  C1'       -8.3200    5.1840   -7.4730 C.3    33  DG33        0.2094
    652  N9        -7.2880    5.4870   -8.6600 N.ar   33  DG33       -0.2713
    653  C8        -6.9350    6.8110   -8.5540 C.ar   33  DG33        0.1816
    654  N7        -6.3710    7.2820   -9.6320 N.ar   33  DG33       -0.2173
    655  C5        -6.3510    6.2100  -10.5050 C.ar   33  DG33        0.1748
    656  C6        -5.8590    6.1090  -11.8320 C.ar   33  DG33        0.3023
    657  O6        -5.3250    6.9880  -12.5200 O.2    33  DG33       -0.2633
    658  N1        -6.0360    4.8320  -12.3570 N.ar   33  DG33       -0.1709
    659  C2        -6.6150    3.7810  -11.6860 C.ar   33  DG33        0.2606
    660  N2        -6.6990    2.6250  -12.3580 N.pl3  33  DG33       -0.0859
    661  N3        -7.0750    3.8590  -10.4530 N.ar   33  DG33       -0.1918
    662  C4        -6.9140    5.0900   -9.9230 C.ar   33  DG33        0.1722
    663  P         -4.7360    2.8970   -5.6520 P.3    34  DA34        0.2141
    664  OP1       -3.8210    2.0140   -4.8900 O.3    34  DA34       -0.4373
    665  OP2       -4.3580    4.3280   -5.7320 O.2    34  DA34       -0.5172
    666  O5'       -4.9440    2.2610   -7.0980 O.3    34  DA34       -0.3114
    667  C5'       -5.5270    0.9690   -7.2580 C.3    34  DA34        0.1811
    668  C4'       -5.1620    0.4010   -8.6090 C.3    34  DA34        0.1746
    669  O4'       -5.6060    1.3310   -9.6320 O.3    34  DA34       -0.3327
    670  C3'       -3.6690    0.2950   -8.8510 C.3    34  DA34        0.1558
    671  O3'       -3.0970   -0.8940   -8.3280 O.3    34  DA34       -0.3138
    672  C2'       -3.5820    0.3550  -10.3590 C.3    34  DA34        0.0865
    673  C1'       -4.6270    1.4280  -10.6510 C.3    34  DA34        0.2094
    674  N9        -3.9140    2.6840  -10.7010 N.ar   34  DA34       -0.2714
    675  C8        -4.0890    3.6780   -9.7740 C.ar   34  DA34        0.1815
    676  N7        -3.5230    4.8150  -10.1040 N.ar   34  DA34       -0.2193
    677  C5        -2.9360    4.5490  -11.3310 C.ar   34  DA34        0.1518
    678  C6        -2.1820    5.3450  -12.2110 C.ar   34  DA34        0.1919
    679  N6        -1.8810    6.6240  -11.9770 N.pl3  34  DA34       -0.1054
    680  N1        -1.7440    4.7730  -13.3530 N.ar   34  DA34       -0.2040
    681  C2        -2.0470    3.4910  -13.5870 C.ar   34  DA34        0.2016
    682  N3        -2.7470    2.6430  -12.8380 N.ar   34  DA34       -0.2048
    683  C4        -3.1670    3.2410  -11.7110 C.ar   34  DA34        0.1691
    684  P         -1.8260   -0.7520   -7.3260 P.3    35  DA35        0.2141
    685  OP1       -2.0080   -1.8040   -6.3050 O.3    35  DA35       -0.4373
    686  OP2       -1.9640    0.6730   -6.9450 O.2    35  DA35       -0.5172
    687  O5'       -0.3850   -0.9300   -7.9780 O.3    35  DA35       -0.3114
    688  C5'       -0.0180   -2.1680   -8.5810 C.3    35  DA35        0.1811
    689  C4'        0.4220   -1.9490  -10.0120 C.3    35  DA35        0.1746
    690  O4'       -0.4980   -1.0470  -10.6800 O.3    35  DA35       -0.3327
    691  C3'        1.7760   -1.3020  -10.2350 C.3    35  DA35        0.1558
    692  O3'        2.7940   -2.2850  -10.1110 O.3    35  DA35       -0.3138
    693  C2'        1.6440   -0.8190  -11.6710 C.3    35  DA35        0.0865
    694  C1'        0.1950   -0.3340  -11.6900 C.3    35  DA35        0.2094
    695  N9         0.1300    1.0710  -11.3640 N.ar   35  DA35       -0.2714
    696  C8        -0.3960    1.5810  -10.2060 C.ar   35  DA35        0.1815
    697  N7        -0.5020    2.8890  -10.2030 N.ar   35  DA35       -0.2193
    698  C5        -0.0110    3.2630  -11.4440 C.ar   35  DA35        0.1518
    699  C6         0.1460    4.5180  -12.0600 C.ar   35  DA35        0.1919
    700  N6        -0.1910    5.6730  -11.4820 N.pl3  35  DA35       -0.1054
    701  N1         0.6680    4.5430  -13.3050 N.ar   35  DA35       -0.2040
    702  C2         1.0040    3.3850  -13.8840 C.ar   35  DA35        0.2016
    703  N3         0.9030    2.1460  -13.4080 N.ar   35  DA35       -0.2048
    704  C4         0.3830    2.1550  -12.1700 C.ar   35  DA35        0.1691
    705  P          4.4560   -1.7970   -9.9430 P.3    36  DC36        0.2141
    706  OP1        5.2810   -3.0240   -9.8680 O.2    36  DC36       -0.5172
    707  OP2        4.1900   -1.0140   -8.7150 O.3    36  DC36       -0.4373
    708  O5'        5.0880   -0.8110  -11.0400 O.3    36  DC36       -0.3114
    709  C5'        5.5880   -1.3310  -12.2620 C.3    36  DC36        0.1811
    710  C4'        5.8790   -0.2230  -13.2650 C.3    36  DC36        0.1746
    711  O4'        4.6850    0.5740  -13.5060 O.3    36  DC36       -0.3327
    712  C3'        6.9030    0.8110  -12.8350 C.3    36  DC36        0.1558
    713  O3'        8.2380    0.3370  -12.9420 O.3    36  DC36       -0.3138
    714  C2'        6.5880    1.9390  -13.8010 C.3    36  DC36        0.0866
    715  C1'        5.0670    1.9340  -13.7270 C.3    36  DC36        0.2106
    716  N1         4.6050    2.8410  -12.6080 N.ar   36  DC36       -0.2556
    717  C2         4.6760    4.2310  -12.7490 C.ar   36  DC36        0.3531
    718  O2         5.1830    4.7020  -13.7810 O.2    36  DC36       -0.2443
    719  N3         4.1920    5.0200  -11.7600 N.ar   36  DC36       -0.1739
    720  C4         3.6570    4.4700  -10.6690 C.ar   36  DC36        0.1759
    721  N4         3.1930    5.2880   -9.7210 N.pl3  36  DC36       -0.1070
    722  C5         3.5760    3.0640  -10.5070 C.ar   36  DC36        0.0566
    723  C6         4.0550    2.2880  -11.4860 C.ar   36  DC36        0.0849
    724  P          9.2640    0.8500  -11.9080 P.3    37  DC37        0.2141
    725  OP1       10.1920   -0.1380  -12.5120 O.2    37  DC37       -0.5172
    726  OP2        8.4970    0.4800  -10.6850 O.3    37  DC37       -0.4373
    727  O5'       10.0690    2.2030  -11.6180 O.3    37  DC37       -0.3114
    728  C5'       11.1340    2.6230  -12.4840 C.3    37  DC37        0.1811
    729  C4'       11.1810    4.1390  -12.6190 C.3    37  DC37        0.1746
    730  O4'        9.8370    4.6720  -12.7690 O.3    37  DC37       -0.3327
    731  C3'       11.7830    4.9510  -11.4800 C.3    37  DC37        0.1558
    732  O3'       13.2050    5.0190  -11.5920 O.3    37  DC37       -0.3138
    733  C2'       11.1680    6.3360  -11.6900 C.3    37  DC37        0.0866
    734  C1'        9.7920    6.0000  -12.2720 C.3    37  DC37        0.2106
    735  N1         8.8060    6.1260  -11.2810 N.ar   37  DC37       -0.2556
    736  C2         8.1930    7.3600  -11.0350 C.ar   37  DC37        0.3531
    737  O2         8.5740    8.3550  -11.6770 O.2    37  DC37       -0.2443
    738  N3         7.2080    7.4350  -10.1090 N.ar   37  DC37       -0.1739
    739  C4         6.8320    6.3420   -9.4440 C.ar   37  DC37        0.1759
    740  N4         5.8570    6.4640   -8.5410 N.pl3  37  DC37       -0.1070
    741  C5         7.4400    5.0820   -9.6780 C.ar   37  DC37        0.0566
    742  C6         8.4130    5.0120  -10.5930 C.ar   37  DC37        0.0849
    743  P         14.1320    5.6670  -10.3240 P.3    38  DA38        0.2141
    744  OP1       15.5960    5.7200  -10.4500 O.2    38  DA38       -0.5172
    745  OP2       13.4680    4.7740   -9.3480 O.3    38  DA38       -0.4373
    746  O5'       13.6560    7.1530  -10.1050 O.3    38  DA38       -0.3114
    747  C5'       14.6250    8.2020  -10.1590 C.3    38  DA38        0.1811
    748  C4'       13.9530    9.5430   -9.8530 C.3    38  DA38        0.1746
    749  O4'       12.5360    9.4130  -10.0100 O.3    38  DA38       -0.3327
    750  C3'       14.0380    9.9140   -8.3820 C.3    38  DA38        0.1558
    751  O3'       15.2210   10.5090   -8.1020 O.3    38  DA38       -0.3138
    752  C2'       12.8590   10.8280   -8.1180 C.3    38  DA38        0.0865
    753  C1'       11.8820   10.1520   -9.0110 C.3    38  DA38        0.2094
    754  N9        11.0120    9.1810   -8.2520 N.ar   38  DA38       -0.2714
    755  C8        10.9860    7.8260   -8.4590 C.ar   38  DA38        0.1815
    756  N7        10.0080    7.2150   -7.8330 N.ar   38  DA38       -0.2193
    757  C5         9.3480    8.2370   -7.1700 C.ar   38  DA38        0.1518
    758  C6         8.2210    8.2460   -6.3300 C.ar   38  DA38        0.1919
    759  N6         7.5330    7.1500   -6.0030 N.pl3  38  DA38       -0.1054
    760  N1         7.8210    9.4360   -5.8310 N.ar   38  DA38       -0.2040
    761  C2         8.5110   10.5340   -6.1590 C.ar   38  DA38        0.2016
    762  N3         9.5830   10.6520   -6.9390 N.ar   38  DA38       -0.2048
    763  C4         9.9560    9.4530   -7.4180 C.ar   38  DA38        0.1691
    764  P         16.0370    9.6840   -7.2600 P.3    39  DC39        0.2141
    765  OP1       17.4560   10.1060   -7.3340 O.2    39  DC39       -0.5172
    766  OP2       15.7220    8.2380   -7.2710 O.3    39  DC39       -0.4373
    767  O5'       15.3730   10.3360   -5.9580 O.3    39  DC39       -0.3114
    768  C5'       15.5630   11.7000   -5.5980 C.3    39  DC39        0.1812
    769  C4'       14.5630   12.0370   -4.5130 C.3    39  DC39        0.1775
    770  O4'       13.2140   11.8010   -4.9930 O.3    39  DC39       -0.3326
    771  C3'       14.6040   11.1760   -3.2560 C.3    39  DC39        0.1859
    772  O3'       15.5350   11.6900   -2.3760 O.3    39  DC39       -0.2202
    773  C2'       13.2390   11.4540   -2.6710 C.3    39  DC39        0.0895
    774  C1'       12.3840   11.3890   -3.9190 C.3    39  DC39        0.2107
    775  N1        11.8930   10.0010   -4.0900 N.ar   39  DC39       -0.2556
    776  C2        10.6130    9.6850   -3.6200 C.ar   39  DC39        0.3531
    777  O2         9.9350   10.5790   -3.0850 O.2    39  DC39       -0.2443
    778  N3        10.1530    8.4190   -3.7590 N.ar   39  DC39       -0.1739
    779  C4        10.9160    7.4910   -4.3380 C.ar   39  DC39        0.1759
    780  N4        10.4200    6.2570   -4.4530 N.pl3  39  DC39       -0.1070
    781  C5        12.2160    7.7910   -4.8210 C.ar   39  DC39        0.0566
    782  C6        12.6660    9.0420   -4.6820 C.ar   39  DC39        0.0849
    783  P         16.1450   10.7800   -1.3700 P.3    40  DT40        0.4149
    784  OP1       17.4230   11.3450   -0.9280 O.2    40  DT40       -0.2668
    785  OP2       15.6380    9.4710   -0.8020 O.3    40  DT40       -0.1481
    786  O5'       15.0090   11.8690   -1.0820 O.3    40  DT40       -0.2177
    787  C5'       14.9920   12.6030    0.1430 C.3    40  DT40        0.2140
    788  C4'       13.6260   13.1970    0.3450 C.3    40  DT40        0.1776
    789  O4'       12.8210   12.4570   -0.5860 O.3    40  DT40       -0.3326
    790  C3'       12.8360   12.9110    1.5940 C.3    40  DT40        0.1559
    791  O3'       13.1740   13.7800    2.7040 O.3    40  DT40       -0.3138
    792  C2'       11.4320   13.1740    1.0700 C.3    40  DT40        0.0866
    793  C1'       11.4640   12.3820   -0.1940 C.3    40  DT40        0.2106
    794  N1        11.0140   11.1170   -0.3360 N.ar   40  DT40       -0.2559
    795  C2         9.6810   10.7910   -0.1720 C.ar   40  DT40        0.3545
    796  O2         8.8210   11.6170    0.0750 O.2    40  DT40       -0.2443
    797  N3         9.3880    9.4550   -0.3070 N.ar   40  DT40       -0.1533
    798  C4        10.2750    8.4350   -0.5830 C.ar   40  DT40        0.2804
    799  O4         9.8610    7.2820   -0.6750 O.2    40  DT40       -0.2654
    800  C5        11.6400    8.8540   -0.7380 C.ar   40  DT40        0.0534
    801  C6        11.9520   10.1460   -0.6130 C.ar   40  DT40        0.0824
    802  C7        12.6820    7.8180   -1.0390 C.3    40  DT40        0.0377
    803  P         13.0140   13.1160    4.0130 P.3    41  DT41        0.2141
    804  OP1       13.9010   14.0030    4.8060 O.3    41  DT41       -0.4373
    805  OP2       13.4530   11.7460    3.6600 O.2    41  DT41       -0.5172
    806  O5'       11.6120   12.9710    4.7580 O.3    41  DT41       -0.3114
    807  C5'       10.8840   14.0690    5.3130 C.3    41  DT41        0.1811
    808  C4'        9.4420   13.6470    5.4720 C.3    41  DT41        0.1746
    809  O4'        8.9440   13.1430    4.2220 O.3    41  DT41       -0.3327
    810  C3'        9.3410   12.4290    6.3740 C.3    41  DT41        0.1558
    811  O3'        9.5010   12.6210    7.7840 O.3    41  DT41       -0.3138
    812  C2'        8.0710   11.7560    5.9370 C.3    41  DT41        0.0866
    813  C1'        8.0970   11.9860    4.4120 C.3    41  DT41        0.2106
    814  N1         8.6100   10.7270    3.8720 N.ar   41  DT41       -0.2559
    815  C2         7.8100    9.6010    3.8200 C.ar   41  DT41        0.3545
    816  O2         6.6840    9.5640    4.2820 O.2    41  DT41       -0.2443
    817  N3         8.3800    8.5120    3.2050 N.ar   41  DT41       -0.1533
    818  C4         9.6400    8.4370    2.6500 C.ar   41  DT41        0.2804
    819  O4        10.0120    7.3870    2.1310 O.2    41  DT41       -0.2654
    820  C5        10.4090    9.6460    2.7450 C.ar   41  DT41        0.0534
    821  C6         9.8800   10.7200    3.3370 C.ar   41  DT41        0.0824
    822  C7        11.7950    9.6650    2.1710 C.3    41  DT41        0.0377
    823  P         10.8060   11.8870    8.6340 P.3    42  DC42        0.2141
    824  OP1       10.9210   12.9370    9.6680 O.3    42  DC42       -0.4373
    825  OP2       12.0360   11.3520    8.0100 O.2    42  DC42       -0.5172
    826  O5'        9.9710   10.6660    9.2540 O.3    42  DC42       -0.3114
    827  C5'        8.9860   10.8690   10.2710 C.3    42  DC42        0.1811
    828  C4'        7.7470   10.0240   10.0260 C.3    42  DC42        0.1746
    829  O4'        7.5630    9.8010    8.6060 O.3    42  DC42       -0.3327
    830  C3'        7.7790    8.6260   10.6230 C.3    42  DC42        0.1558
    831  O3'        7.3960    8.6500   11.9870 O.3    42  DC42       -0.3138
    832  C2'        6.7720    7.8790    9.7550 C.3    42  DC42        0.0866
    833  C1'        6.9780    8.5300    8.3910 C.3    42  DC42        0.2106
    834  N1         7.8460    7.7170    7.5440 N.ar   42  DC42       -0.2556
    835  C2         7.3660    6.5700    6.9010 C.ar   42  DC42        0.3531
    836  O2         6.2390    6.1430    7.2030 O.2    42  DC42       -0.2443
    837  N3         8.1420    5.9620    5.9720 N.ar   42  DC42       -0.1739
    838  C4         9.3460    6.4560    5.6810 C.ar   42  DC42        0.1759
    839  N4        10.0750    5.8220    4.7590 N.pl3  42  DC42       -0.1070
    840  C5         9.8500    7.6170    6.3210 C.ar   42  DC42        0.0566
    841  C6         9.0810    8.2150    7.2380 C.ar   42  DC42        0.0849
    842  P          7.7550    7.2770   13.1360 P.3    43  DC43        0.2141
    843  OP1        7.5860    7.6300   14.5690 O.3    43  DC43       -0.4373
    844  OP2        9.0980    7.3620   12.5090 O.2    43  DC43       -0.5172
    845  O5'        7.1970    5.8070   12.9180 O.3    43  DC43       -0.3114
    846  C5'        5.8840    5.4760   13.3300 C.3    43  DC43        0.1811
    847  C4'        5.4340    4.2050   12.6670 C.3    43  DC43        0.1746
    848  O4'        5.3500    4.3960   11.2290 O.3    43  DC43       -0.3327
    849  C3'        6.3720    3.0230   12.8050 C.3    43  DC43        0.1558
    850  O3'        6.2060    2.3870   14.0620 O.3    43  DC43       -0.3138
    851  C2'        5.8860    2.1320   11.6760 C.3    43  DC43        0.0866
    852  C1'        5.6270    3.1650   10.5780 C.3    43  DC43        0.2106
    853  N1         6.7900    3.3330    9.6690 N.ar   43  DC43       -0.2556
    854  C2         6.9530    2.3910    8.6460 C.ar   43  DC43        0.3531
    855  O2         6.1150    1.4800    8.5330 O.2    43  DC43       -0.2443
    856  N3         8.0160    2.4990    7.8140 N.ar   43  DC43       -0.1739
    857  C4         8.8900    3.4930    7.9730 C.ar   43  DC43        0.1759
    858  N4         9.9220    3.5590    7.1290 N.pl3  43  DC43       -0.1070
    859  C5         8.7430    4.4580    9.0030 C.ar   43  DC43        0.0566
    860  C6         7.6920    4.3470    9.8230 C.ar   43  DC43        0.0849
    861  P          7.4130    1.4770   14.6770 P.3    44  DG44        0.2141
    862  OP1        7.2280    0.6640   15.8750 O.3    44  DG44       -0.4373
    863  OP2        8.7350    2.1280   14.4530 O.2    44  DG44       -0.5172
    864  O5'        6.9870    0.6670   13.3870 O.3    44  DG44       -0.3114
    865  C5'        5.8380   -0.1760   13.4060 C.3    44  DG44        0.1811
    866  C4'        6.0560   -1.4100   12.5630 C.3    44  DG44        0.1746
    867  O4'        6.1560   -1.0440   11.1600 O.3    44  DG44       -0.3327
    868  C3'        7.3500   -2.1580   12.8090 C.3    44  DG44        0.1558
    869  O3'        7.2140   -2.9650   13.9510 O.3    44  DG44       -0.3138
    870  C2'        7.4550   -2.9550   11.5150 C.3    44  DG44        0.0865
    871  C1'        7.0970   -1.8790   10.5170 C.3    44  DG44        0.2094
    872  N9         8.2200   -1.2080   10.0550 N.ar   44  DG44       -0.2713
    873  C8         8.7850   -0.0880   10.6170 C.ar   44  DG44        0.1816
    874  N7         9.9070    0.2630   10.0500 N.ar   44  DG44       -0.2173
    875  C5        10.0970   -0.6770    9.0540 C.ar   44  DG44        0.1748
    876  C6        11.1430   -0.8190    8.1060 C.ar   44  DG44        0.3023
    877  O6        12.1450   -0.1090    7.9590 O.2    44  DG44       -0.2633
    878  N1        10.9450   -1.9170    7.2730 N.ar   44  DG44       -0.1709
    879  C2         9.8720   -2.7730    7.3450 C.ar   44  DG44        0.2606
    880  N2         9.8540   -3.7750    6.4560 N.pl3  44  DG44       -0.0859
    881  N3         8.8930   -2.6540    8.2210 N.ar   44  DG44       -0.1918
    882  C4         9.0640   -1.5950    9.0400 C.ar   44  DG44        0.1722
    883  P          8.4310   -3.1250   15.0410 P.3    45  DG45        0.2141
    884  OP1        8.0630   -3.8410   16.3000 O.3    45  DG45       -0.4373
    885  OP2        9.4800   -2.0740   15.0740 O.2    45  DG45       -0.5172
    886  O5'        8.8700   -4.1970   13.9450 O.3    45  DG45       -0.3114
    887  C5'        7.9320   -5.1730   13.4810 C.3    45  DG45        0.1811
    888  C4'        8.5030   -5.9620   12.3290 C.3    45  DG45        0.1746
    889  O4'        8.7360   -5.0910   11.1900 O.3    45  DG45       -0.3327
    890  C3'        9.8500   -6.6270   12.5290 C.3    45  DG45        0.1558
    891  O3'        9.7640   -7.8200   13.2980 O.3    45  DG45       -0.3138
    892  C2'       10.2490   -6.9100   11.0850 C.3    45  DG45        0.0865
    893  C1'        9.7800   -5.6250   10.3940 C.3    45  DG45        0.2094
    894  N9        11.0000   -4.5570   10.4290 N.ar   45  DG45       -0.2713
    895  C8        11.1710   -3.5280   11.3230 C.ar   45  DG45        0.1816
    896  N7        12.2530   -2.8300   11.1050 N.ar   45  DG45       -0.2173
    897  C5        12.8300   -3.4300   10.0010 C.ar   45  DG45        0.1748
    898  C6        14.0230   -3.1170    9.3000 C.ar   45  DG45        0.3023
    899  O6        14.8320   -2.2100    9.5300 O.2    45  DG45       -0.2633
    900  N1        14.2420   -3.9850    8.2330 N.ar   45  DG45       -0.1709
    901  C2        13.4140   -5.0250    7.8850 C.ar   45  DG45        0.2606
    902  N2        13.7920   -5.7510    6.8250 N.pl3  45  DG45       -0.0859
    903  N3        12.3030   -5.3280    8.5280 N.ar   45  DG45       -0.1918
    904  C4        12.0710   -4.4990    9.5680 C.ar   45  DG45        0.1722
    905  P         11.0690   -8.3280   14.2410 P.3    46  DA46        0.2141
    906  OP1       10.5350   -9.2350   15.2880 O.3    46  DA46       -0.4373
    907  OP2       11.8490   -7.1270   14.6350 O.2    46  DA46       -0.5172
    908  O5'       11.9330   -9.1990   13.2310 O.3    46  DA46       -0.3114
    909  C5'       11.3050  -10.1480   12.3810 C.3    46  DA46        0.1811
    910  C4'       12.2260  -10.5020   11.2480 C.3    46  DA46        0.1746
    911  O4'       12.3480   -9.3790   10.3390 O.3    46  DA46       -0.3327
    912  C3'       13.6550  -10.7690   11.6750 C.3    46  DA46        0.1558
    913  O3'       13.7900  -12.0860   12.1700 O.3    46  DA46       -0.3138
    914  C2'       14.4180  -10.5480   10.3770 C.3    46  DA46        0.0865
    915  C1'       13.6530   -9.3630    9.7810 C.3    46  DA46        0.2094
    916  N9        14.3010   -8.0620   10.0830 N.ar   46  DA46       -0.2714
    917  C8        13.9930   -7.0990   11.0080 C.ar   46  DA46        0.1815
    918  N7        14.8210   -6.0800   11.0070 N.ar   46  DA46       -0.2193
    919  C5        15.7340   -6.3970   10.0130 C.ar   46  DA46        0.1518
    920  C6        16.8630   -5.7220    9.5170 C.ar   46  DA46        0.1919
    921  N6        17.2790   -4.5390    9.9760 N.pl3  46  DA46       -0.1054
    922  N1        17.5590   -6.3130    8.5220 N.ar   46  DA46       -0.2040
    923  C2        17.1410   -7.4980    8.0620 C.ar   46  DA46        0.2016
    924  N3        16.0960   -8.2280    8.4460 N.ar   46  DA46       -0.2048
    925  C4        15.4270   -7.6140    9.4360 C.ar   46  DA46        0.1691
    926  P         14.7930  -12.3640   13.3680 P.3    47  DA47        0.2141
    927  OP1       14.6570  -13.7450   13.8890 O.2    47  DA47       -0.5172
    928  OP2       14.7020  -11.2100   14.3020 O.3    47  DA47       -0.4373
    929  O5'       16.1750  -12.2270   12.5760 O.3    47  DA47       -0.3114
    930  C5'       16.6540  -13.2860   11.7170 C.3    47  DA47        0.1811
    931  C4'       17.9630  -12.8990   11.0410 C.3    47  DA47        0.1746
    932  O4'       17.7810  -11.6840   10.2640 O.3    47  DA47       -0.3327
    933  C3'       19.1890  -12.6140   11.9030 C.3    47  DA47        0.1558
    934  O3'       19.8900  -13.8020   12.2560 O.3    47  DA47       -0.3138
    935  C2'       20.0570  -11.7740   10.9740 C.3    47  DA47        0.0865
    936  C1'       19.0140  -10.9910   10.1740 C.3    47  DA47        0.2094
    937  N9        18.7190   -9.6210   10.6160 N.ar   47  DA47       -0.2714
    938  C8        17.9960   -9.2270   11.7120 C.ar   47  DA47        0.1815
    939  N7        18.0830   -7.9430   11.9690 N.ar   47  DA47       -0.2193
    940  C5        18.9210   -7.4620   10.9750 C.ar   47  DA47        0.1518
    941  C6        19.4090   -6.1740   10.6910 C.ar   47  DA47        0.1919
    942  N6        19.1070   -5.0930   11.4130 N.pl3  47  DA47       -0.1054
    943  N1        20.2270   -6.0350    9.6260 N.ar   47  DA47       -0.2040
    944  C2        20.5280   -7.1190    8.9020 C.ar   47  DA47        0.2016
    945  N3        20.1320   -8.3790    9.0690 N.ar   47  DA47       -0.2048
    946  C4        19.3220   -8.4840   10.1360 C.ar   47  DA47        0.1691
    947  P         21.1420  -13.7110   13.3080 P.3    48  DA48        0.2141
    948  OP1       21.1670  -15.0030   14.0470 O.2    48  DA48       -0.5172
    949  OP2       20.9250  -12.4420   14.0550 O.3    48  DA48       -0.4373
    950  O5'       22.4710  -13.5920   12.4200 O.3    48  DA48       -0.3114
    951  C5'       23.7140  -13.1480   12.9730 C.3    48  DA48        0.1811
    952  C4'       24.5250  -12.4140   11.9210 C.3    48  DA48        0.1746
    953  O4'       23.6240  -11.5990   11.1320 O.3    48  DA48       -0.3327
    954  C3'       25.5800  -11.4720   12.4810 C.3    48  DA48        0.1558
    955  O3'       26.8590  -12.1030   12.5610 O.3    48  DA48       -0.3138
    956  C2'       25.5580  -10.2880   11.5150 C.3    48  DA48        0.0865
    957  C1'       24.0860  -10.2620   11.1030 C.3    48  DA48        0.2094
    958  N9        23.3300   -9.3610   12.1620 N.ar   48  DA48       -0.2714
    959  C8        22.3130   -9.9320   12.8820 C.ar   48  DA48        0.1815
    960  N7        21.5920   -9.0670   13.5570 N.ar   48  DA48       -0.2193
    961  C5        22.1760   -7.8460   13.2610 C.ar   48  DA48        0.1518
    962  C6        21.8780   -6.5320   13.6640 C.ar   48  DA48        0.1919
    963  N6        20.8740   -6.2210   14.4860 N.pl3  48  DA48       -0.1054
    964  N1        22.6580   -5.5380   13.1870 N.ar   48  DA48       -0.2040
    965  C2        23.6640   -5.8510   12.3620 C.ar   48  DA48        0.2016
    966  N3        24.0420   -7.0450   11.9110 N.ar   48  DA48       -0.2048
    967  C4        23.2480   -8.0110   12.4040 C.ar   48  DA48        0.1691
    968  P         27.9530  -11.7320   13.8120 P.3    49  DT49        0.2141
    969  OP1       29.1770  -12.4970   13.4570 O.2    49  DT49       -0.5172
    970  OP2       27.4120  -11.8120   15.1960 O.3    49  DT49       -0.4373
    971  O5'       28.2200  -10.1990   13.4850 O.3    49  DT49       -0.3114
    972  C5'       28.7950   -9.8060   12.2450 C.3    49  DT49        0.1811
    973  C4'       29.2530   -8.3770   12.3300 C.3    49  DT49        0.1746
    974  O4'       28.1040   -7.4820   12.3240 O.3    49  DT49       -0.3327
    975  C3'       29.9530   -8.0540   13.6330 C.3    49  DT49        0.1558
    976  O3'       31.3060   -8.4810   13.6290 O.3    49  DT49       -0.3138
    977  C2'       29.7770   -6.5460   13.7110 C.3    49  DT49        0.0866
    978  C1'       28.3350   -6.4000   13.2170 C.3    49  DT49        0.2106
    979  N1        27.2860   -6.5050   14.3210 N.ar   49  DT49       -0.2559
    980  C2        27.0440   -5.3130   14.9760 C.ar   49  DT49        0.3545
    981  O2        27.6260   -4.2770   14.7080 O.2    49  DT49       -0.2443
    982  N3        26.0910   -5.3760   15.9640 N.ar   49  DT49       -0.1533
    983  C4        25.3720   -6.4870   16.3530 C.ar   49  DT49        0.2804
    984  O4        24.5470   -6.3870   17.2580 O.2    49  DT49       -0.2654
    985  C5        25.6810   -7.6860   15.6260 C.ar   49  DT49        0.0534
    986  C6        26.6040   -7.6530   14.6610 C.ar   49  DT49        0.0824
    987  C7        24.9520   -8.9490   15.9760 C.3    49  DT49        0.0377
    988  P         32.1330   -8.8230   15.1280 P.3    50  DA50        0.2141
    989  OP1       33.5050   -9.3620   15.0120 O.2    50  DA50       -0.5172
    990  OP2       31.1060   -9.5840   15.8720 O.3    50  DA50       -0.4373
    991  O5'       32.1760   -7.4070   15.8670 O.3    50  DA50       -0.3114
    992  C5'       32.8940   -6.3570   15.2440 C.3    50  DA50        0.1811
    993  C4'       32.7020   -5.0410   15.9470 C.3    50  DA50        0.1746
    994  O4'       31.3470   -4.5650   15.7570 O.3    50  DA50       -0.3327
    995  C3'       32.8440   -5.0670   17.4560 C.3    50  DA50        0.1558
    996  O3'       34.1810   -5.1390   17.9130 O.3    50  DA50       -0.3138
    997  C2'       32.1260   -3.7880   17.8580 C.3    50  DA50        0.0865
    998  C1'       30.9460   -3.8180   16.8890 C.3    50  DA50        0.2094
    999  N9        29.7790   -4.4430   17.5360 N.ar   50  DA50       -0.2714
   1000  C8        29.3200   -5.7190   17.3410 C.ar   50  DA50        0.1815
   1001  N7        28.2560   -6.0140   18.0510 N.ar   50  DA50       -0.2193
   1002  C5        28.0000   -4.8520   18.7620 C.ar   50  DA50        0.1518
   1003  C6        27.0040   -4.5140   19.6950 C.ar   50  DA50        0.1919
   1004  N6        26.0420   -5.3530   20.0850 N.pl3  50  DA50       -0.1054
   1005  N1        27.0330   -3.2700   20.2190 N.ar   50  DA50       -0.2040
   1006  C2        27.9970   -2.4300   19.8260 C.ar   50  DA50        0.2016
   1007  N3        28.9860   -2.6310   18.9580 N.ar   50  DA50       -0.2048
   1008  C4        28.9300   -3.8760   18.4560 C.ar   50  DA50        0.1691
   1009  P         34.3640   -6.0950   18.8980 P.3    51  DA51        0.2141
   1010  OP1       35.8310   -6.2560   18.7890 O.2    51  DA51       -0.5172
   1011  OP2       33.5090   -7.2990   19.0580 O.3    51  DA51       -0.4373
   1012  O5'       34.1160   -5.0800   20.1020 O.3    51  DA51       -0.3114
   1013  C5'       34.9420   -3.9360   20.2070 C.3    51  DA51        0.1811
   1014  C4'       34.3460   -2.9430   21.1540 C.3    51  DA51        0.1746
   1015  O4'       32.9920   -2.6430   20.7190 O.3    51  DA51       -0.3327
   1016  C3'       34.1610   -3.4040   22.5900 C.3    51  DA51        0.1558
   1017  O3'       35.3800   -3.2860   23.3350 O.3    51  DA51       -0.3138
   1018  C2'       33.1400   -2.3780   23.0620 C.3    51  DA51        0.0865
   1019  C1'       32.1920   -2.3150   21.8520 C.3    51  DA51        0.2094
   1020  N9        31.0770   -3.2920   21.8990 N.ar   51  DA51       -0.2714
   1021  C8        30.9300   -4.4910   21.2510 C.ar   51  DA51        0.1815
   1022  N7        29.7500   -5.0400   21.4150 N.ar   51  DA51       -0.2193
   1023  C5        29.0770   -4.1410   22.2280 C.ar   51  DA51        0.1518
   1024  C6        27.7780   -4.1430   22.7670 C.ar   51  DA51        0.1919
   1025  N6        26.8910   -5.1180   22.5550 N.pl3  51  DA51       -0.1054
   1026  N1        27.4190   -3.0950   23.5390 N.ar   51  DA51       -0.2040
   1027  C2        28.3080   -2.1180   23.7500 C.ar   51  DA51        0.2016
   1028  N3        29.5550   -2.0040   23.2980 N.ar   51  DA51       -0.2048
   1029  C4        29.8820   -3.0610   22.5350 C.ar   51  DA51        0.1691
   1030  P         35.6800   -4.2860   24.6720 P.3    52  DG52        0.2141
   1031  OP1       36.9830   -4.9280   24.9560 O.3    52  DG52       -0.4373
   1032  OP2       34.5010   -5.1150   24.3340 O.2    52  DG52       -0.5172
   1033  O5'       35.3020   -3.3780   25.9200 O.3    52  DG52       -0.3114
   1034  C5'       34.4070   -3.8480   26.9360 C.3    52  DG52        0.1811
   1035  C4'       33.5320   -2.7090   27.4020 C.3    52  DG52        0.1746
   1036  O4'       32.7800   -2.1860   26.2750 O.3    52  DG52       -0.3327
   1037  C3'       32.4930   -3.0620   28.4510 C.3    52  DG52        0.1558
   1038  O3'       33.0740   -2.9590   29.7490 O.3    52  DG52       -0.3138
   1039  C2'       31.4220   -2.0040   28.2070 C.3    52  DG52        0.0865
   1040  C1'       31.4610   -1.8790   26.6830 C.3    52  DG52        0.2094
   1041  N9        30.6060   -2.7190   25.9270 N.ar   52  DG52       -0.2713
   1042  C8        30.9090   -3.8090   25.1480 C.ar   52  DG52        0.1816
   1043  N7        29.8580   -4.4980   24.7950 N.ar   52  DG52       -0.2173
   1044  C5        28.7970   -3.8250   25.3710 C.ar   52  DG52        0.1748
   1045  C6        27.4050   -4.0970   25.3420 C.ar   52  DG52        0.3023
   1046  O6        26.8190   -5.0270   24.7740 O.2    52  DG52       -0.2633
   1047  N1        26.6750   -3.1580   26.0640 N.ar   52  DG52       -0.1709
   1048  C2        27.2190   -2.0870   26.7330 C.ar   52  DG52        0.2606
   1049  N2        26.3540   -1.2890   27.3730 N.pl3  52  DG52       -0.0859
   1050  N3        28.5100   -1.8210   26.7700 N.ar   52  DG52       -0.1918
   1051  C4        29.2380   -2.7210   26.0760 C.ar   52  DG52        0.1722
   1052  P         32.7690   -4.0240   30.8170 P.3    53  DA53        0.2141
   1053  OP1       33.5410   -3.7200   32.0500 O.3    53  DA53       -0.4373
   1054  OP2       32.9480   -5.3380   30.1480 O.2    53  DA53       -0.5172
   1055  O5'       31.2200   -3.8290   31.1390 O.3    53  DA53       -0.3114
   1056  C5'       30.7390   -2.6360   31.7550 C.3    53  DA53        0.1811
   1057  C4'       29.3010   -2.8170   32.1700 C.3    53  DA53        0.1746
   1058  O4'       28.4590   -2.9100   30.9920 O.3    53  DA53       -0.3327
   1059  C3'       29.0380   -4.1050   32.9280 C.3    53  DA53        0.1558
   1060  O3'       29.3080   -3.9360   34.3110 O.3    53  DA53       -0.3138
   1061  C2'       27.5610   -4.3610   32.6560 C.3    53  DA53        0.0865
   1062  C1'       27.4180   -3.8490   31.2190 C.3    53  DA53        0.2094
   1063  N9        27.5440   -4.9680   30.1890 N.ar   53  DA53       -0.2714
   1064  C8        28.6560   -5.3180   29.4680 C.ar   53  DA53        0.1815
   1065  N7        28.4700   -6.3470   28.6750 N.ar   53  DA53       -0.2193
   1066  C5        27.1460   -6.6970   28.8910 C.ar   53  DA53        0.1518
   1067  C6        26.3360   -7.7110   28.3500 C.ar   53  DA53        0.1919
   1068  N6        26.7620   -8.5920   27.4420 N.pl3  53  DA53       -0.1054
   1069  N1        25.0580   -7.7870   28.7800 N.ar   53  DA53       -0.2040
   1070  C2        24.6320   -6.9030   29.6880 C.ar   53  DA53        0.2016
   1071  N3        25.2980   -5.9070   30.2690 N.ar   53  DA53       -0.2048
   1072  C4        26.5640   -5.8580   29.8210 C.ar   53  DA53        0.1691
   1073  P         29.7870   -5.2220   35.2090 P.3    54  DG54        0.2141
   1074  OP1       30.0900   -4.7490   36.5630 O.3    54  DG54       -0.4373
   1075  OP2       30.5500   -6.3800   34.6040 O.2    54  DG54       -0.5172
   1076  O5'       28.2410   -5.6320   35.1750 O.3    54  DG54       -0.3114
   1077  C5'       27.6530   -6.3620   36.2530 C.3    54  DG54        0.1811
   1078  C4'       26.3690   -6.9880   35.7840 C.3    54  DG54        0.1746
   1079  O4'       26.4800   -6.9000   34.3550 O.3    54  DG54       -0.3327
   1080  C3'       26.1480   -8.4730   35.8950 C.3    54  DG54        0.1558
   1081  O3'       25.6590   -8.8890   37.1950 O.3    54  DG54       -0.3138
   1082  C2'       25.1010   -8.6540   34.8060 C.3    54  DG54        0.0865
   1083  C1'       25.7440   -7.9060   33.6880 C.3    54  DG54        0.2094
   1084  N9        26.4330   -8.5630   32.8290 N.ar   54  DG54       -0.2713
   1085  C8        27.7320   -8.1840   32.5920 C.ar   54  DG54        0.1816
   1086  N7        28.2760   -8.8120   31.5850 N.ar   54  DG54       -0.2173
   1087  C5        27.2800   -9.6540   31.1260 C.ar   54  DG54        0.1748
   1088  C6        27.2780  -10.5840   30.0550 C.ar   54  DG54        0.3023
   1089  O6        28.1970  -10.8520   29.2720 O.2    54  DG54       -0.2633
   1090  N1        26.0540  -11.2360   29.9350 N.ar   54  DG54       -0.1709
   1091  C2        24.9660  -11.0190   30.7470 C.ar   54  DG54        0.2606
   1092  N2        23.8720  -11.7430   30.4750 N.pl3  54  DG54       -0.0859
   1093  N3        24.9540  -10.1590   31.7460 N.ar   54  DG54       -0.1918
   1094  C4        26.1320   -9.5150   31.8820 C.ar   54  DG54        0.1722
   1095  P         26.2380  -10.2530   37.6110 P.3    55  DT55        0.2141
   1096  OP1       25.8720  -10.3380   39.0450 O.3    55  DT55       -0.4373
   1097  OP2       27.6690  -10.1360   37.2240 O.2    55  DT55       -0.5172
   1098  O5'       25.6610  -11.5020   36.8020 O.3    55  DT55       -0.3114
   1099  C5'       24.3230  -11.9420   37.0000 C.3    55  DT55        0.1811
   1100  C4'       23.8920  -12.8600   35.8790 C.3    55  DT55        0.1746
   1101  O4'       24.1690  -12.2120   34.6180 O.3    55  DT55       -0.3327
   1102  C3'       24.5430  -14.2270   35.7330 C.3    55  DT55        0.1558
   1103  O3'       23.9360  -15.2230   36.5480 O.3    55  DT55       -0.3138
   1104  C2'       24.2580  -14.5630   34.2830 C.3    55  DT55        0.0866
   1105  C1'       24.3500  -13.1920   33.6190 C.3    55  DT55        0.2106
   1106  N1        25.6240  -13.0730   32.9750 N.ar   55  DT55       -0.2559
   1107  C2        25.7870  -13.5410   31.6850 C.ar   55  DT55        0.3545
   1108  O2        24.8790  -14.0270   31.0340 O.2    55  DT55       -0.2443
   1109  N3        27.0600  -13.4220   31.1810 N.ar   55  DT55       -0.1533
   1110  C4        28.1600  -12.8930   31.8220 C.ar   55  DT55        0.2804
   1111  O4        29.2400  -12.8530   31.2380 O.2    55  DT55       -0.2654
   1112  C5        27.9100  -12.4300   33.1580 C.ar   55  DT55        0.0534
   1113  C6        26.6820  -12.5340   33.6730 C.ar   55  DT55        0.0824
   1114  C7        29.0450  -11.8380   33.9400 C.3    55  DT55        0.0377
   1115  P         24.3460  -16.0220   36.2700 P.3    56  DG56        0.2141
   1116  OP1       23.2810  -16.2990   37.2610 O.3    56  DG56       -0.4373
   1117  OP2       25.7460  -15.8010   36.7020 O.2    56  DG56       -0.5172
   1118  O5'       24.4410  -17.2300   35.2230 O.3    56  DG56       -0.3114
   1119  C5'       23.5250  -17.2560   34.1390 C.3    56  DG56        0.1811
   1120  C4'       24.1190  -17.9060   32.9170 C.3    56  DG56        0.1767
   1121  O4'       24.0710  -19.3460   33.0630 O.3    56  DG56       -0.3154
   1122  C3'       23.3810  -17.6450   31.6160 C.3    56  DG56        0.1581
   1123  O3'       23.7420  -16.4100   31.0270 O.3    56  DG56       -0.3138
   1124  C2'       23.7620  -18.8510   30.7710 C.3    56  DG56        0.1126
   1125  C1'       23.7660  -19.9500   31.8250 C.3    56  DG56        0.2911
   1126  N9        22.7010  -20.6110   31.2670 N.pl3  56  DG56       -0.1302
   1127  C8        21.9290  -21.0590   32.3110 C.2    56  DG56        0.2799
   1128  N7        21.4090  -22.2380   32.0990 N.2    56  DG56       -0.2096
   1129  C5        21.8650  -22.5920   30.8430 C.3    56  DG56        0.3072
   1130  C6        21.6350  -23.7610   30.0730 C.2    56  DG56        0.3535
   1131  O6        20.9540  -24.7510   30.3690 O.2    56  DG56       -0.2506
   1132  N1        22.2890  -23.7140   28.8450 N.am   56  DG56        0.0136
   1133  C2        23.0700  -22.6680   28.4120 C.2    56  DG56        0.5244
   1134  N2        23.6210  -22.8050   27.1980 N.pl3  56  DG56        0.1572
   1135  N3        23.2930  -21.5760   29.1160 N.2    56  DG56        0.0290
   1136  C4        22.6660  -21.5990   30.3110 C.2    56  DG56        0.3467
   1137  P         22.5210  -15.6540   29.8780 P.3    57  DG57        0.2141
   1138  OP1       22.9140  -14.2710   30.2220 O.3    57  DG57       -0.4373
   1139  OP2       21.1070  -16.0610   30.0470 O.2    57  DG57       -0.5172
   1140  O5'       22.8330  -15.9740   28.3330 O.3    57  DG57       -0.3114
   1141  C5'       22.8550  -17.3180   27.8690 C.3    57  DG57        0.1812
   1142  C4'       21.7440  -17.7150   26.9100 C.3    57  DG57        0.1795
   1143  O4'       21.3920  -19.0970   27.1770 O.3    57  DG57       -0.3153
   1144  C3'       20.4330  -16.9200   26.9160 C.3    57  DG57        0.1888
   1145  O3'       20.2440  -16.2660   25.6650 O.3    57  DG57       -0.2132
   1146  C2'       19.3090  -17.9370   27.1300 C.3    57  DG57        0.1156
   1147  C1'       20.0140  -19.2870   26.9860 C.3    57  DG57        0.2912
   1148  N9        20.1870  -20.4620   28.2570 N.pl3  57  DG57       -0.1302
   1149  C8        20.2560  -20.0740   29.5730 C.2    57  DG57        0.2799
   1150  N7        19.5180  -20.8050   30.3640 N.2    57  DG57       -0.2096
   1151  C5        18.9280  -21.7310   29.5250 C.3    57  DG57        0.3072
   1152  C6        18.0220  -22.7860   29.8060 C.2    57  DG57        0.3535
   1153  O6        17.5480  -23.1180   30.9000 O.2    57  DG57       -0.2506
   1154  N1        17.6690  -23.4890   28.6580 N.am   57  DG57        0.0136
   1155  C2        18.1320  -23.2100   27.3940 C.2    57  DG57        0.5244
   1156  N2        17.6790  -24.0000   26.4110 N.pl3  57  DG57        0.1572
   1157  N3        18.9730  -22.2330   27.1170 N.2    57  DG57        0.0290
   1158  C4        19.3290  -21.5360   28.2170 C.2    57  DG57        0.3467
   1159  P         20.1990  -14.6070   24.9420 P.3    58  DT58        0.3939
   1160  OP1       19.2530  -15.7360   24.8260 O.3    58  DT58       -0.1496
   1161  OP2       20.9280  -14.1340   23.7430 O.3    58  DT58       -0.1425
   1162  O5'       19.3820  -13.3820   25.5560 O.3    58  DT58       -0.2926
   1163  C5'       18.4490  -13.5970   26.6350 C.3    58  DT58        0.1828
   1164  C4'       18.7620  -12.6960   27.8160 C.3    58  DT58        0.1747
   1165  O4'       20.0860  -12.9760   28.3600 O.3    58  DT58       -0.3327
   1166  C3'       18.8060  -11.2040   27.5460 C.3    58  DT58        0.1558
   1167  O3'       17.4980  -10.6640   27.4520 O.3    58  DT58       -0.3138
   1168  C2'       19.5800  -10.6860   28.7560 C.3    58  DT58        0.0866
   1169  C1'       20.6200  -11.7950   28.9430 C.3    58  DT58        0.2106
   1170  N1        21.8120  -11.5880   28.3240 N.ar   58  DT58       -0.2559
   1171  C2        22.6890  -10.6250   28.7870 C.ar   58  DT58        0.3545
   1172  O2        22.4650   -9.9410   29.7700 O.2    58  DT58       -0.2443
   1173  N3        23.8430  -10.4900   28.0530 N.ar   58  DT58       -0.1533
   1174  C4        24.2000  -11.2040   26.9290 C.ar   58  DT58        0.2804
   1175  O4        25.2730  -10.9690   26.3780 O.2    58  DT58       -0.2654
   1176  C5        23.2370  -12.1840   26.5110 C.ar   58  DT58        0.0534
   1177  C6        22.1070  -12.3370   27.2060 C.ar   58  DT58        0.0824
   1178  C7        23.5330  -13.0130   25.2970 C.3    58  DT58        0.0377
   1179  P         17.0400   -9.4680   26.1170 P.3    59  DG59        0.2141
   1180  OP1       15.6200   -9.8540   26.2890 O.3    59  DG59       -0.4373
   1181  OP2       17.6700   -9.6090   24.7850 O.2    59  DG59       -0.5172
   1182  O5'       17.2540   -7.9760   26.6480 O.3    59  DG59       -0.3114
   1183  C5'       17.0160   -7.7400   28.0230 C.3    59  DG59        0.1811
   1184  C4'       18.1140   -6.8830   28.6070 C.3    59  DG59        0.1746
   1185  O4'       19.3270   -7.6440   28.7970 O.3    59  DG59       -0.3327
   1186  C3'       18.5370   -5.7690   27.6820 C.3    59  DG59        0.1558
   1187  O3'       17.6170   -4.7280   27.8260 O.3    59  DG59       -0.3138
   1188  C2'       19.9090   -5.4030   28.2320 C.3    59  DG59        0.0865
   1189  C1'       20.4260   -6.7590   28.7170 C.3    59  DG59        0.2094
   1190  N9        21.3690   -7.1770   27.6590 N.ar   59  DG59       -0.2713
   1191  C8        21.2120   -8.3450   26.9530 C.ar   59  DG59        0.1816
   1192  N7        22.2420   -8.6370   26.2060 N.ar   59  DG59       -0.2173
   1193  C5        23.1330   -7.6040   26.4310 C.ar   59  DG59        0.1748
   1194  C6        24.4260   -7.3680   25.8980 C.ar   59  DG59        0.3023
   1195  O6        25.0600   -8.0590   25.0900 O.2    59  DG59       -0.2633
   1196  N1        24.9870   -6.1940   26.3930 N.ar   59  DG59       -0.1709
   1197  C2        24.3770   -5.3520   27.2920 C.ar   59  DG59        0.2606
   1198  N2        25.0770   -4.2680   27.6540 N.pl3  59  DG59       -0.0859
   1199  N3        23.1760   -5.5570   27.7950 N.ar   59  DG59       -0.1918
   1200  C4        22.6120   -6.6910   27.3270 C.ar   59  DG59        0.1722
   1201  P         17.1290   -3.9700   26.5820 P.3    60  DT60        0.2141
   1202  OP1       15.7170   -3.6230   26.2800 O.3    60  DT60       -0.4373
   1203  OP2       18.0950   -4.2370   25.4910 O.2    60  DT60       -0.5172
   1204  O5'       17.8060   -2.8210   27.4640 O.3    60  DT60       -0.3114
   1205  C5'       18.3170   -1.6820   26.7980 C.3    60  DT60        0.1811
   1206  C4'       19.6590   -1.2440   27.3210 C.3    60  DT60        0.1746
   1207  O4'       20.5620   -2.3680   27.4970 O.3    60  DT60       -0.3327
   1208  C3'       20.4120   -0.3720   26.3470 C.3    60  DT60        0.1558
   1209  O3'       19.8880    0.9360   26.2780 O.3    60  DT60       -0.3138
   1210  C2'       21.8500   -0.4970   26.8280 C.3    60  DT60        0.0866
   1211  C1'       21.8860   -1.9850   27.1700 C.3    60  DT60        0.2106
   1212  N1        22.3510   -2.9260   25.9760 N.ar   60  DT60       -0.2559
   1213  C2        23.6410   -2.8070   25.4960 C.ar   60  DT60        0.3545
   1214  O2        24.3780   -1.8830   25.7950 O.2    60  DT60       -0.2443
   1215  N3        24.0410   -3.8120   24.6490 N.ar   60  DT60       -0.1533
   1216  C4        23.2960   -4.8990   24.2430 C.ar   60  DT60        0.2804
   1217  O4        23.7940   -5.7210   23.4770 O.2    60  DT60       -0.2654
   1218  C5        21.9670   -4.9510   24.7830 C.ar   60  DT60        0.0534
   1219  C6        21.5530   -3.9870   25.6090 C.ar   60  DT60        0.0824
   1220  C7        21.0770   -6.0960   24.4000 C.3    60  DT60        0.0377
   1221  P         19.5130    1.2920   24.8640 P.3    61  DT61        0.2141
   1222  OP1       18.8510    2.5740   25.1870 O.3    61  DT61       -0.4373
   1223  OP2       18.9650    0.3740   23.8490 O.2    61  DT61       -0.5172
   1224  O5'       21.0060    1.6190   24.4340 O.3    61  DT61       -0.3114
   1225  C5'       21.5960    2.8380   24.8120 C.3    61  DT61        0.1811
   1226  C4'       23.0400    2.7800   24.3810 C.3    61  DT61        0.1746
   1227  O4'       23.5780    1.4780   24.7030 O.3    61  DT61       -0.3327
   1228  C3'       23.2770    2.8250   22.8880 C.3    61  DT61        0.1558
   1229  O3'       23.0890    4.1360   22.4070 O.3    61  DT61       -0.3138
   1230  C2'       24.7320    2.3790   22.8580 C.3    61  DT61        0.0866
   1231  C1'       24.6450    1.2050   23.8150 C.3    61  DT61        0.2106
   1232  N1        24.3830   -0.0260   23.1260 N.ar   61  DT61       -0.2559
   1233  C2        25.3180   -0.6080   22.2910 C.ar   61  DT61        0.3545
   1234  O2        26.3880   -0.0880   22.0270 O.2    61  DT61       -0.2443
   1235  N3        24.9540   -1.8270   21.7710 N.ar   61  DT61       -0.1533
   1236  C4        23.7760   -2.5070   21.9970 C.ar   61  DT61        0.2804
   1237  O4        23.5930   -3.5960   21.4590 O.2    61  DT61       -0.2654
   1238  C5        22.8570   -1.8380   22.8740 C.ar   61  DT61        0.0534
   1239  C6        23.1850   -0.6520   23.3930 C.ar   61  DT61        0.0824
   1240  C7        21.5460   -2.4980   23.1820 C.3    61  DT61        0.0377
   1241  P         22.5690    4.2850   21.0130 P.3    62  DG62        0.2141
   1242  OP1       22.0310    5.6270   21.3380 O.3    62  DG62       -0.4373
   1243  OP2       21.6720    3.1990   20.5600 O.2    62  DG62       -0.5172
   1244  O5'       23.6570    4.3900   19.8460 O.3    62  DG62       -0.3114
   1245  C5'       24.8730    5.0570   20.1390 C.3    62  DG62        0.1811
   1246  C4'       26.0490    4.4720   19.3940 C.3    62  DG62        0.1746
   1247  O4'       26.3860    3.1550   19.9040 O.3    62  DG62       -0.3327
   1248  C3'       25.8660    4.2370   17.9060 C.3    62  DG62        0.1558
   1249  O3'       25.9460    5.4250   17.1400 O.3    62  DG62       -0.3138
   1250  C2'       27.0070    3.2750   17.6230 C.3    62  DG62        0.0865
   1251  C1'       26.9670    2.3880   18.8670 C.3    62  DG62        0.2094
   1252  N9        26.1840    1.1400   18.6480 N.ar   62  DG62       -0.2713
   1253  C8        24.8860    0.9050   19.0340 C.ar   62  DG62        0.1816
   1254  N7        24.4570   -0.2820   18.7000 N.ar   62  DG62       -0.2173
   1255  C5        25.5320   -0.8670   18.0570 C.ar   62  DG62        0.1748
   1256  C6        25.6680   -2.1510   17.4700 C.ar   62  DG62        0.3023
   1257  O6        24.8280   -3.0570   17.4040 O.2    62  DG62       -0.2633
   1258  N1        26.9330   -2.3410   16.9200 N.ar   62  DG62       -0.1709
   1259  C2        27.9420   -1.4080   16.9350 C.ar   62  DG62        0.2606
   1260  N2        29.0940   -1.7730   16.3550 N.pl3  62  DG62       -0.0859
   1261  N3        27.8300   -0.2100   17.4760 N.ar   62  DG62       -0.1918
   1262  C4        26.6100   -0.0040   18.0150 C.ar   62  DG62        0.1722
   1263  P         25.6540    5.2650   15.8800 P.3    63  DG63        0.2141
   1264  OP1       25.9240    6.5690   15.2320 O.2    63  DG63       -0.5172
   1265  OP2       24.2840    4.8690   16.2810 O.3    63  DG63       -0.4373
   1266  O5'       26.1400    4.0760   14.9230 O.3    63  DG63       -0.3114
   1267  C5'       27.3840    4.1830   14.2520 C.3    63  DG63        0.1811
   1268  C4'       27.7450    2.9170   13.5110 C.3    63  DG63        0.1746
   1269  O4'       27.7810    1.7880   14.4210 O.3    63  DG63       -0.3327
   1270  C3'       26.7890    2.4480   12.4260 C.3    63  DG63        0.1558
   1271  O3'       26.8790    3.1820   11.2190 O.3    63  DG63       -0.3138
   1272  C2'       27.1910    0.9910   12.2660 C.3    63  DG63        0.0865
   1273  C1'       27.4430    0.6080   13.7200 C.3    63  DG63        0.2094
   1274  N9        26.2380    0.0350   14.3610 N.ar   63  DG63       -0.2713
   1275  C8        25.3960    0.6070   15.2830 C.ar   63  DG63        0.1816
   1276  N7        24.4150   -0.1760   15.6410 N.ar   63  DG63       -0.2173
   1277  C5        24.6190   -1.3350   14.9160 C.ar   63  DG63        0.1748
   1278  C6        23.8780   -2.5440   14.8790 C.ar   63  DG63        0.3023
   1279  O6        22.8540   -2.8340   15.5110 O.2    63  DG63       -0.2633
   1280  N1        24.4350   -3.4700   14.0010 N.ar   63  DG63       -0.1709
   1281  C2        25.5660   -3.2570   13.2500 C.ar   63  DG63        0.2606
   1282  N2        25.9500   -4.2690   12.4610 N.pl3  63  DG63       -0.0859
   1283  N3        26.2640   -2.1390   13.2730 N.ar   63  DG63       -0.1918
   1284  C4        25.7420   -1.2250   14.1180 C.ar   63  DG63        0.1722
   1285  P         25.5430    3.2840   10.3710 P.3    64  DC64        0.2141
   1286  OP1       25.4630    4.6480    9.8010 O.2    64  DC64       -0.5172
   1287  OP2       24.6380    2.8610   11.4650 O.3    64  DC64       -0.4373
   1288  O5'       25.2710    2.2230    9.2040 O.3    64  DC64       -0.3114
   1289  C5'       26.1400    2.2020    8.0830 C.3    64  DC64        0.1811
   1290  C4'       26.4390    0.7930    7.6410 C.3    64  DC64        0.1746
   1291  O4'       26.6200   -0.0530    8.8060 O.3    64  DC64       -0.3327
   1292  C3'       25.3450    0.0940    6.8520 C.3    64  DC64        0.1558
   1293  O3'       25.3250    0.4670    5.4860 O.3    64  DC64       -0.3138
   1294  C2'       25.6590   -1.3790    7.0870 C.3    64  DC64        0.0866
   1295  C1'       26.1360   -1.3500    8.5380 C.3    64  DC64        0.2106
   1296  N1        25.1190   -1.6340    9.4800 N.ar   64  DC64       -0.2556
   1297  C2        24.5450   -2.9060    9.5860 C.ar   64  DC64        0.3531
   1298  O2        24.9070   -3.7930    8.7940 O.2    64  DC64       -0.2443
   1299  N3        23.6140   -3.1320   10.5430 N.ar   64  DC64       -0.1739
   1300  C4        23.2550   -2.1490   11.3700 C.ar   64  DC64        0.1759
   1301  N4        22.3340   -2.4190   12.2980 N.pl3  64  DC64       -0.1070
   1302  C5        23.8250   -0.8530   11.2790 C.ar   64  DC64        0.0566
   1303  C6        24.7440   -0.6340   10.3330 C.ar   64  DC64        0.0849
   1304  P         24.0350    0.6230    4.7840 P.3    65  DT65        0.2141
   1305  OP1       24.3120    0.8710    3.3590 O.2    65  DT65       -0.5172
   1306  OP2       22.6830    0.9190    5.3070 O.3    65  DT65       -0.4373
   1307  O5'       24.4050   -0.8820    5.1140 O.3    65  DT65       -0.3114
   1308  C5'       24.9280   -1.7340    4.1680 C.3    65  DT65        0.1811
   1309  C4'       24.2520   -3.0460    4.3790 C.3    65  DT65        0.1746
   1310  O4'       24.1390   -3.3280    5.7880 O.3    65  DT65       -0.3327
   1311  C3'       22.8140   -3.0590    3.9600 C.3    65  DT65        0.1558
   1312  O3'       22.7090   -3.0700    2.5420 O.3    65  DT65       -0.3138
   1313  C2'       22.3380   -4.3320    4.6510 C.3    65  DT65        0.0866
   1314  C1'       23.0370   -4.1950    5.9860 C.3    65  DT65        0.2106
   1315  N1        22.1780   -3.6860    6.9490 N.ar   65  DT65       -0.2559
   1316  C2        21.2340   -4.5030    7.5430 C.ar   65  DT65        0.3545
   1317  O2        21.1440   -5.6950    7.3080 O.2    65  DT65       -0.2443
   1318  N3        20.3910   -3.8710    8.4250 N.ar   65  DT65       -0.1533
   1319  C4        20.3980   -2.5350    8.7670 C.ar   65  DT65        0.2804
   1320  O4        19.5780   -2.1130    9.5780 O.2    65  DT65       -0.2654
   1321  C5        21.4070   -1.7530    8.1080 C.ar   65  DT65        0.0534
   1322  C6        22.2390   -2.3420    7.2450 C.ar   65  DT65        0.0824
   1323  C7        21.4960   -0.2870    8.4130 C.3    65  DT65        0.0377
   1324  P         21.4030   -2.5010    1.8200 P.3    66  DC66        0.2141
   1325  OP1       21.7550   -2.4900    0.3680 O.2    66  DC66       -0.5172
   1326  OP2       20.3270   -1.6180    2.3400 O.3    66  DC66       -0.4373
   1327  O5'       21.0240   -3.9780    2.2480 O.3    66  DC66       -0.3114
   1328  C5'       20.5350   -4.8940    1.3090 C.3    66  DC66        0.1811
   1329  C4'       19.5500   -5.8000    1.9690 C.3    66  DC66        0.1746
   1330  O4'       19.7710   -5.7670    3.3960 O.3    66  DC66       -0.3327
   1331  C3'       18.1170   -5.3650    1.9070 C.3    66  DC66        0.1558
   1332  O3'       17.6070   -5.6020    0.6460 O.3    66  DC66       -0.3138
   1333  C2'       17.4900   -6.1710    3.0170 C.3    66  DC66        0.0866
   1334  C1'       18.5540   -6.0120    4.0800 C.3    66  DC66        0.2106
   1335  N1        17.9900   -4.8970    4.8720 N.ar   66  DC66       -0.2556
   1336  C2        16.8860   -4.9730    5.7290 C.ar   66  DC66        0.3531
   1337  O2        16.1650   -5.9850    5.6880 O.2    66  DC66       -0.2443
   1338  N3        16.6360   -3.9450    6.5750 N.ar   66  DC66       -0.1739
   1339  C4        17.4360   -2.8790    6.5840 C.ar   66  DC66        0.1759
   1340  N4        17.1500   -1.8900    7.4350 N.pl3  66  DC66       -0.1070
   1341  C5        18.5600   -2.7820    5.7230 C.ar   66  DC66        0.0566
   1342  C6        18.8030   -3.8000    4.8900 C.ar   66  DC66        0.0849
   1343  P         16.8180   -4.3890   -0.0930 P.3    67  DC67        0.2141
   1344  OP1       16.9080   -4.3170   -1.5780 O.2    67  DC67       -0.5172
   1345  OP2       17.1050   -3.1710    0.7120 O.3    67  DC67       -0.4373
   1346  O5'       15.3750   -4.9170    0.3530 O.3    67  DC67       -0.3114
   1347  C5'       15.0290   -6.2880    0.1810 C.3    67  DC67        0.1811
   1348  C4'       13.9090   -6.6940    1.1180 C.3    67  DC67        0.1746
   1349  O4'       14.3160   -6.5690    2.5060 O.3    67  DC67       -0.3327
   1350  C3'       12.6060   -5.9230    1.0380 C.3    67  DC67        0.1558
   1351  O3'       11.8070   -6.3960   -0.0360 O.3    67  DC67       -0.3138
   1352  C2'       11.9660   -6.1970    2.3970 C.3    67  DC67        0.0866
   1353  C1'       13.1880   -6.2730    3.3120 C.3    67  DC67        0.2106
   1354  N1        13.2840   -4.9220    3.8530 N.ar   67  DC67       -0.2556
   1355  C2        12.5220   -4.4770    4.9390 C.ar   67  DC67        0.3531
   1356  O2        11.5820   -5.1840    5.3410 O.2    67  DC67       -0.2443
   1357  N3        12.8290   -3.2920    5.5190 N.ar   67  DC67       -0.1739
   1358  C4        13.8450   -2.5650    5.0530 C.ar   67  DC67        0.1759
   1359  N4        14.1110   -1.4040    5.6560 N.pl3  67  DC67       -0.1070
   1360  C5        14.6300   -2.9980    3.9530 C.ar   67  DC67        0.0566
   1361  C6        14.3230   -4.1690    3.3840 C.ar   67  DC67        0.0849
   1362  P         10.5530   -5.5000   -0.7140 P.3    68  DC68        0.2141
   1363  OP1        9.8910   -6.4820   -1.6050 O.2    68  DC68       -0.5172
   1364  OP2       10.7730   -4.1030   -1.2040 O.3    68  DC68       -0.4373
   1365  O5'        9.7260   -5.3880    0.6430 O.3    68  DC68       -0.3114
   1366  C5'        8.9360   -6.4740    1.0950 C.3    68  DC68        0.1811
   1367  C4'        7.9230   -5.9870    2.0900 C.3    68  DC68        0.1746
   1368  O4'        8.6030   -5.5540    3.3020 O.3    68  DC68       -0.3327
   1369  C3'        7.1310   -4.7680    1.6650 C.3    68  DC68        0.1558
   1370  O3'        6.0790   -5.0970    0.7670 O.3    68  DC68       -0.3138
   1371  C2'        6.6890   -4.1850    3.0070 C.3    68  DC68        0.0866
   1372  C1'        7.9150   -4.4650    3.8800 C.3    68  DC68        0.2106
   1373  N1         8.8280   -3.3480    3.9740 N.ar   68  DC68       -0.2556
   1374  C2         8.5650   -2.3360    4.9040 C.ar   68  DC68        0.3531
   1375  O2         7.6050   -2.4730    5.6810 O.2    68  DC68       -0.2443
   1376  N3         9.3620   -1.2410    4.9300 N.ar   68  DC68       -0.1739
   1377  C4        10.3820   -1.1380    4.0770 C.ar   68  DC68        0.1759
   1378  N4        11.1400   -0.0400    4.1400 N.pl3  68  DC68       -0.1070
   1379  C5        10.6650   -2.1520    3.1270 C.ar   68  DC68        0.0566
   1380  C6         9.8760   -3.2320    3.1040 C.ar   68  DC68        0.0849
   1381  P          5.3480   -3.8830   -0.1830 P.3    69  DG69        0.2141
   1382  OP1        4.2410   -4.4840   -0.9640 O.2    69  DG69       -0.5172
   1383  OP2        6.3040   -2.9530   -0.8230 O.3    69  DG69       -0.4373
   1384  O5'        4.7510   -3.0260    1.0300 O.3    69  DG69       -0.3114
   1385  C5'        3.6290   -3.5230    1.7430 C.3    69  DG69        0.1811
   1386  C4'        3.1080   -2.5050    2.7200 C.3    69  DG69        0.1746
   1387  O4'        4.0800   -2.3350    3.7790 O.3    69  DG69       -0.3327
   1388  C3'        2.8980   -1.0930    2.1890 C.3    69  DG69        0.1558
   1389  O3'        1.6740   -0.9150    1.4970 O.3    69  DG69       -0.3138
   1390  C2'        2.9520   -0.2780    3.4680 C.3    69  DG69        0.0865
   1391  C1'        4.0650   -0.9970    4.2300 C.3    69  DG69        0.2094
   1392  N9         5.3760   -0.3750    3.9340 N.ar   69  DG69       -0.2713
   1393  C8         6.2980   -0.6920    2.9660 C.ar   69  DG69        0.1816
   1394  N7         7.2260    0.2140    2.8230 N.ar   69  DG69       -0.2173
   1395  C5         6.9020    1.1870    3.7490 C.ar   69  DG69        0.1748
   1396  C6         7.5400    2.4160    4.0590 C.ar   69  DG69        0.3023
   1397  O6         8.5600    2.8990    3.5510 O.2    69  DG69       -0.2633
   1398  N1         6.8770    3.1070    5.0690 N.ar   69  DG69       -0.1709
   1399  C2         5.7390    2.6670    5.7040 C.ar   69  DG69        0.2606
   1400  N2         5.2450    3.4720    6.6550 N.pl3  69  DG69       -0.0859
   1401  N3         5.1350    1.5290    5.4260 N.ar   69  DG69       -0.1918
   1402  C4         5.7610    0.8420    4.4470 C.ar   69  DG69        0.1722
   1403  P          1.4370    0.3710    0.6060 P.3    70  DT70        0.2141
   1404  OP1        0.0900    0.2290   -0.0020 O.3    70  DT70       -0.4373
   1405  OP2        2.6320    0.5330   -0.2710 O.2    70  DT70       -0.5172
   1406  O5'        1.4120    1.5740    1.6480 O.3    70  DT70       -0.3114
   1407  C5'        0.2820    1.7820    2.5140 C.3    70  DT70        0.1811
   1408  C4'        0.3940    3.1270    3.1900 C.3    70  DT70        0.1746
   1409  O4'        1.5950    3.1330    3.9940 O.3    70  DT70       -0.3327
   1410  C3'        0.5260    4.3220    2.2540 C.3    70  DT70        0.1558
   1411  O3'       -0.7700    4.8320    1.9250 O.3    70  DT70       -0.3138
   1412  C2'        1.3170    5.3210    3.0920 C.3    70  DT70        0.0866
   1413  C1'        2.2180    4.3980    3.9190 C.3    70  DT70        0.2106
   1414  N1         3.5660    4.1750    3.2420 N.ar   70  DT70       -0.2559
   1415  C2         4.5290    5.1210    3.5400 C.ar   70  DT70        0.3545
   1416  O2         4.3720    5.9860    4.3830 O.2    70  DT70       -0.2443
   1417  N3         5.6890    5.0180    2.8110 N.ar   70  DT70       -0.1533
   1418  C4         5.9770    4.0860    1.8360 C.ar   70  DT70        0.2804
   1419  O4         7.0660    4.1210    1.2680 O.2    70  DT70       -0.2654
   1420  C5         4.9270    3.1390    1.5840 C.ar   70  DT70        0.0534
   1421  C6         3.7890    3.2160    2.2780 C.ar   70  DT70        0.0824
   1422  C7         5.1440    2.0840    0.5400 C.3    70  DT70        0.0377
   1423  P         -1.0580    5.2850    0.3810 P.3    71  DA71        0.2141
   1424  OP1       -2.5010    5.2860   -0.0040 O.3    71  DA71       -0.4373
   1425  OP2       -0.0630    4.6040   -0.5010 O.2    71  DA71       -0.5172
   1426  O5'       -0.5980    6.7990    0.5940 O.3    71  DA71       -0.3113
   1427  C5'       -1.3150    7.6530    1.4980 C.3    71  DA71        0.1838
   1428  C4'       -0.4790    8.8600    1.8600 C.3    71  DA71        0.2038
   1429  O4'        0.7450    8.4190    2.5130 O.3    71  DA71       -0.3299
   1430  C3'       -0.0120    9.7070    0.6850 C.3    71  DA71        0.2810
   1431  O3'       -1.0100   10.6660    0.3320 O.3    71  DA71       -0.1894
   1432  C2'        1.2500   10.3610    1.2400 C.3    71  DA71        0.1185
   1433  C1'        1.8330    9.2230    2.0830 C.3    71  DA71        0.2122
   1434  N9         2.8180    8.3480    1.4160 N.ar   71  DA71       -0.2714
   1435  C8         2.6110    7.1090    0.8680 C.ar   71  DA71        0.1815
   1436  N7         3.6690    6.6110    0.2730 N.ar   71  DA71       -0.2193
   1437  C5         4.6360    7.5900    0.4410 C.ar   71  DA71        0.1518
   1438  C6         5.9810    7.6700    0.0390 C.ar   71  DA71        0.1919
   1439  N6         6.6070    6.7080   -0.6430 N.pl3  71  DA71       -0.1054
   1440  N1         6.6670    8.7860    0.3660 N.ar   71  DA71       -0.2040
   1441  C2         6.0390    9.7490    1.0500 C.ar   71  DA71        0.2016
   1442  N3         4.7810    9.7880    1.4830 N.ar   71  DA71       -0.2048
   1443  C4         4.1260    8.6660    1.1420 C.ar   71  DA71        0.1691
   1444  P         -1.0510   11.3320   -1.2140 P.3    72  DT72        0.2954
   1445  OP1       -0.4340   10.1520   -0.5500 O.3    72  DT72       -0.1894
   1446  OP2       -2.1780   12.0440   -0.5500 O.3    72  DT72       -0.1680
   1447  O5'        0.0780   12.4090   -1.5380 O.3    72  DT72       -0.3089
   1448  C5'        0.9140   12.8990   -0.5010 C.3    72  DT72        0.1810
   1449  C4'        2.1520   13.5500   -1.0690 C.3    72  DT72        0.1753
   1450  O4'        1.8340   14.8980   -1.5200 O.3    72  DT72       -0.3510
   1451  C3'        3.2250   13.7510   -0.0120 C.3    72  DT72        0.1839
   1452  O3'        4.0130   12.5800    0.1460 O.3    72  DT72       -0.2204
   1453  C2'        3.9880   14.9650   -0.5210 C.3    72  DT72        0.0676
   1454  C1'        2.8500   15.8020   -1.1080 C.3    72  DT72        0.1450
   1455  N1         4.2440   11.0910   -2.0470 N.2    72  DT72       -0.1608
   1456  C2         5.4170   10.7500   -2.6930 C.1    72  DT72        0.2395
   1457  O2         6.3700   11.5040   -2.7830 O.2    72  DT72       -0.2041
   1458  N3         5.4370    9.4870   -3.2340 N.am   72  DT72       -0.0881
   1459  C4         4.4230    8.5530   -3.1960 C.2    72  DT72        0.2768
   1460  O4         4.5890    7.4580   -3.7280 O.2    72  DT72       -0.2676
   1461  C5         3.2370    8.9820   -2.5090 C.2    72  DT72        0.0541
   1462  C6         3.1920   10.2050   -1.9730 C.2    72  DT72        0.1126
   1463  C7         2.0770    8.0360   -2.4140 C.3    72  DT72        0.0376
@<TRIPOS>BOND
     1   516   515    2
     2   519   520    1
     3   519   518    1
     4   538   537    2
     5   503   515    1
     6   503   502    1
     7   515   518    1
     8   515   517    1
     9   520   521    1
    10   520   522    1
    11   523   537    1
    12   523   522    1
    13   500   499    1
    14   500   502    1
    15   500   501    1
    16   537   539    1
    17   537   540    1
    18   499   498    1
    19   502   504    1
    20   521   525    1
    21   522   524    1
    22   504   505    1
    23   541   540    1
    24   541   542    1
    25   501   505    1
    26   496   495    2
    27   524   525    1
    28   498   495    1
    29   505   506    1
    30   525   526    1
    31   484   495    1
    32   484   483    1
    33   542   543    1
    34   542   544    1
    35   495   497    1
    36   224   223    1
    37   224   228    1
    38   223   222    1
    39   223   225    1
    40   222   221    1
    41    40    39    2
    42   543   547    1
    43   526   527   ar
    44   526   536   ar
    45   228   227    1
    46   228   229    1
    47   485   483    1
    48   485   486    1
    49   527   528   ar
    50   506   513   ar
    51   506   507   ar
    52   545   544    1
    53   545   557    1
    54   483   481    1
    55   508   507    2
    56   558   557    2
    57   227   225    1
    58   544   546    1
    59   226   225    1
    60   226   237    1
    61    59    58    2
    62   208   209    1
    63   208   206    1
    64   513   512   ar
    65   481   480    1
    66   481   482    1
    67   507   509   ar
    68   221   218    1
    69   212   211    2
    70   241   242    1
    71   241   240    1
    72   557   559    1
    73   557   560    1
    74    39    41    1
    75    39    27    1
    76    39    42    1
    77   207   218    1
    78   207   206    1
    79   547   546    1
    80   547   548    1
    81   219   218    2
    82   209   205    1
    83   209   210    1
    84   536   535   ar
    85   536   529   ar
    86   489   488    2
    87   229   236   ar
    88   229   230   ar
    89   242   243    1
    90   242   244    1
    91   486   482    1
    92   486   487    1
    93   528   529   ar
    94   243   247    1
    95   231   230    2
    96   555   548   ar
    97   555   554   ar
    98   218   220    1
    99   204   206    1
   100   204   205    1
   101   204   203    1
   102    20    19    2
   103   238   237    2
   104   535   533   ar
   105   556   554    1
   106    27    26    1
   107   480   479    1
   108   237   240    1
   109   237   239    1
   110    43    42    1
   111    43    44    1
   112   560   561    1
   113    58    47    1
   114    58    60    1
   115    58    61    1
   116   236   235   ar
   117   230   232   ar
   118   548   549   ar
   119   211   210   ar
   120   211   213   ar
   121   512   514    1
   122   512   510   ar
   123   529   530   ar
   124    47    46    1
   125   509   510   ar
   126   554   552   ar
   127   488   487   ar
   128   488   490   ar
   129   210   217   ar
   130   487   494   ar
   131   247   246    1
   132   247   248    1
   133    23    22    1
   134    23    24    1
   135   196   197   ar
   136   196   195   ar
   137   203   202    1
   138   561   562    1
   139   245   244    1
   140   245   259    1
   141   244   246    1
   142   510   511    2
   143    26    24    1
   144    26    28    1
   145    44    46    1
   146    44    45    1
   147   533   534    1
   148   533   532   ar
   149   479   476    1
   150    19    22    1
   151    19    21    1
   152    19     6    1
   153   197   198   ar
   154   235   233   ar
   155    61    62    1
   156   213   214   ar
   157    46    48    1
   158   232   233   ar
   159    24    25    1
   160   549   550    2
   161   549   551   ar
   162   195   193   ar
   163   490   491   ar
   164    62    63    1
   165   494   493   ar
   166   530   532   ar
   167   530   531    2
   168   248   255   ar
   169   248   249   ar
   170   552   551   ar
   171   552   553    2
   172   217   216   ar
   173   233   234    1
   174   477   476    2
   175   255   254   ar
   176     6     5    1
   177   563   562    1
   178   563   567    1
   179   562   564    1
   180   576   574    1
   181   202   199    1
   182   257   259    1
   183   257   258    1
   184   257   260    1
   185    28    29    1
   186   187   188    1
   187   187   185    1
   188   476   464    1
   189   476   478    1
   190   250   249    2
   191    45    49    1
   192    79    77    2
   193    78    77    1
   194   249   251   ar
   195   261   260    1
   196   261   262    1
   197   214   216   ar
   198   214   215    1
   199   198   189   ar
   200   198   192   ar
   201   469   468    2
   202   491   493   ar
   203   491   492    1
   204   465   463    1
   205   465   466    1
   206   575   574   ar
   207   575   568   ar
   208   254   256    1
   209   254   252   ar
   210    48    49    1
   211   188   189    1
   212   188   184    1
   213   464   463    1
   214    25    29    1
   215   193   192   ar
   216   193   194    1
   217   574   572   ar
   218   234   215    1
   219    77    66    1
   220    77    80    1
   221    63    65    1
   222    63    64    1
   223   567   568    1
   224   567   566    1
   225   200   199    2
   226   186   185    1
   227   186   199    1
   228   251   252   ar
   229   189   190   ar
   230     5     3    1
   231     5     7    1
   232    29    30    1
   233    49    50    1
   234    66    65    1
   235   564   565    1
   236   564   566    1
   237    57    56   ar
   238    57    50   ar
   239   192   191   ar
   240   252   253    2
   241   463   461    1
   242   185   183    1
   243   568   569   ar
   244   262   263    1
   245   262   264    1
   246   199   201    1
   247   466   467    1
   248   466   462    1
   249   468   467   ar
   250   468   470   ar
   251    65    67    1
   252   184   183    1
   253     3     2    1
   254     3     4    1
   255     2     1    1
   256   565   577    1
   257     7     8    1
   258    56    54   ar
   259    64    68    1
   260   263   267    1
   261    50    51   ar
   262    76    75   ar
   263    76    69   ar
   264    75    73   ar
   265   183   182    1
   266   579   577    2
   267   572   573    2
   268   572   571   ar
   269    37    30   ar
   270    37    36   ar
   271   461   462    1
   272   461   460    1
   273   467   474   ar
   274    30    31   ar
   275   470   471   ar
   276   578   577    1
   277    80    81    1
   278   190   191   ar
   279   577   580    1
   280   569   571   ar
   281   569   570    2
   282   265   264    1
   283   265   279    1
   284   264   266    1
   285    38    36    1
   286   172   171    2
   287   280   279    2
   288    36    34   ar
   289    54    53   ar
   290    54    55    1
   291    51    52    2
   292    51    53   ar
   293     4     8    1
   294    68    69    1
   295    68    67    1
   296    69    70   ar
   297   173   171   ar
   298   173   174   ar
   299    73    74    1
   300    73    72   ar
   301     8     9    1
   302    81    82    1
   303   281   279    1
   304   267   266    1
   305   267   268    1
   306   175   174    1
   307    31    32    2
   308    31    33   ar
   309   460   459    1
   310   182   181    1
   311   269   268   ar
   312   269   270   ar
   313   474   473   ar
   314   279   282    1
   315   171   170   ar
   316   471   472    2
   317   471   473   ar
   318   101    99    2
   319   268   278   ar
   320   174   176   ar
   321   118   116    1
   322   580   581    1
   323   459   456    1
   324    34    33   ar
   325    34    35    2
   326     9    18   ar
   327     9    10   ar
   328   473   475    1
   329   181   178    1
   330   154   153    1
   331    70    72   ar
   332    70    71    2
   333   270   271   ar
   334    17    18   ar
   335    17    16   ar
   336    90    89   ar
   337    90    91   ar
   338   590   589   ar
   339   590   591   ar
   340    89    88   ar
   341   155   153   ar
   342   155   156   ar
   343    18    12   ar
   344   589   588   ar
   345    82    83    1
   346    82    84    1
   347   100    99    1
   348   581   582    1
   349    10    11   ar
   350    99    85    1
   351    99   102    1
   352   115   114    2
   353   457   456    2
   354   593   592    2
   355   168   169    1
   356   168   166    1
   357   170   169    1
   358   170   177   ar
   359   153   152   ar
   360    16    15   ar
   361   278   271   ar
   362   278   277   ar
   363    83    87    1
   364   702   703   ar
   365   702   701   ar
   366   282   283    1
   367    84    85    1
   368    84    86    1
   369   714   715    1
   370   714   712    1
   371   176   177   ar
   372   718   717    2
   373   715   711    1
   374   715   716    1
   375   456   458    1
   376   456   445    1
   377   156   157   ar
   378   169   165    1
   379   271   272   ar
   380   591   592   ar
   381   591   598   ar
   382   116   114   ar
   383   116   117   ar
   384   681   680   ar
   385   681   682   ar
   386   450   449    2
   387   135   134    1
   388   711   710    1
   389    93    92    2
   390    12    11   ar
   391    12    13   ar
   392   592   594   ar
   393   703   704   ar
   394   583   582    1
   395   583   587    1
   396    91    92   ar
   397    91    98   ar
   398   680   678   ar
   399   114   113   ar
   400   701   699   ar
   401   283   284    1
   402    88    87    1
   403    88    98   ar
   404   710   712    1
   405   710   709    1
   406   178   167    1
   407   178   179    2
   408   178   180    1
   409   588   598   ar
   410   588   587    1
   411   277   275   ar
   412    15    13   ar
   413   582   584    1
   414   713   712    1
   415   713   724    1
   416   102   103    1
   417   682   683   ar
   418   445   444    1
   419    92    94   ar
   420    87    86    1
   421   730   729    1
   422   730   734    1
   423   166   167    1
   424   166   164    1
   425   717   716   ar
   426   717   719   ar
   427   449   451   ar
   428   449   448   ar
   429   451   452   ar
   430    13    14    1
   431   598   597   ar
   432   152   158   ar
   433   152   151   ar
   434   729   728    1
   435   729   731    1
   436   117   110   ar
   437   716   723   ar
   438   657   656    2
   439   725   724    2
   440    98    97   ar
   441   728   727    1
   442   587   586    1
   443   157   158   ar
   444   615   614    1
   445   660   659    1
   446   658   656   ar
   447   658   659   ar
   448   272   273    2
   449   272   274   ar
   450   601   599    2
   451   165   164    1
   452   734   733    1
   453   734   735    1
   454   134   136   ar
   455   134   133   ar
   456   594   595   ar
   457   709   708    1
   458   584   585    1
   459   584   586    1
   460   678   679    1
   461   678   677   ar
   462   446   447    1
   463   446   444    1
   464   704   698   ar
   465   704   695   ar
   466   285   284    1
   467   285   289    1
   468   447   448    1
   469   447   443    1
   470   296   297   ar
   471   296   294   ar
   472   699   700    1
   473   699   698   ar
   474   297   290   ar
   475   284   286    1
   476   113   111   ar
   477   158   149   ar
   478   275   274   ar
   479   275   276    1
   480   636   635    1
   481   724   727    1
   482   724   726    1
   483   136   137   ar
   484   453   452    1
   485   151   150   ar
   486   656   655   ar
   487   452   454   ar
   488   444   442    1
   489   121   119    2
   490   448   455   ar
   491   164   163    1
   492   719   720   ar
   493   683   677   ar
   494   683   674   ar
   495   694   693    1
   496   694   695    1
   497   694   690    1
   498   733   731    1
   499   659   661   ar
   500   737   736    2
   501   103   104    1
   502   693   691    1
   503   597   595   ar
   504   732   731    1
   505   732   743    1
   506   723   722   ar
   507   698   697   ar
   508    94    95   ar
   509   595   596    1
   510   585   599    1
   511   133   131   ar
   512   695   696   ar
   513   677   676   ar
   514   110   111   ar
   515   110   109    1
   516   735   736   ar
   517   735   742   ar
   518   612   613   ar
   519   612   611   ar
   520    97    95   ar
   521   614   613   ar
   522   614   616   ar
   523   443   442    1
   524   708   705    1
   525   736   738   ar
   526   317   315    1
   527   295   294    1
   528   294   293   ar
   529   290   289    1
   530   290   291   ar
   531   599   600    1
   532   599   602    1
   533   111   112    2
   534   455   454   ar
   535   289   288    1
   536   442   441    1
   537   286   287    1
   538   286   288    1
   539   150   149   ar
   540   149   148    1
   541   674   673    1
   542   674   675   ar
   543   690   689    1
   544   720   722   ar
   545   720   721    1
   546   106   104    1
   547   106   107    1
   548   106   108    1
   549    95    96    1
   550   673   672    1
   551   673   669    1
   552   105   104    1
   553   105   109    1
   554   137   130   ar
   555   613   619   ar
   556   314   313    2
   557   635   637   ar
   558   635   634   ar
   559   742   741   ar
   560   655   662   ar
   561   655   654   ar
   562   661   662   ar
   563   744   743    2
   564   119   120    1
   565   119   107    1
   566   119   122    1
   567   161   159    1
   568   672   670    1
   569   163   162    1
   570   743   746    1
   571   743   745    1
   572   616   617   ar
   573   162   146    1
   574   691   692    1
   575   691   689    1
   576   109   108    1
   577   696   697   ar
   578   611   610   ar
   579   747   746    1
   580   747   748    1
   581   287   298    1
   582   131   130   ar
   583   131   132    2
   584   692   705    1
   585   738   739   ar
   586   676   675   ar
   587   633   634   ar
   588   633   632   ar
   589   689   688    1
   590   749   748    1
   591   749   753    1
   592   637   638   ar
   593   705   706    2
   594   705   707    1
   595   662   652   ar
   596   602   603    1
   597   293   291   ar
   598   291   292    2
   599   147   148    1
   600   147   145    1
   601   748   750    1
   602   140   138    2
   603   300   298    2
   604   634   640   ar
   605   130   129    1
   606   122   123    1
   607   315   313   ar
   608   315   316   ar
   609   741   739   ar
   610   313   312   ar
   611   148   144    1
   612   669   668    1
   613   654   653   ar
   614   159   160    2
   615   739   740    1
   616   441   440    1
   617   619   610   ar
   618   619   618   ar
   619   298   299    1
   620   298   301    1
   621   334   333    1
   622   145   146    1
   623   145   143    1
   624   440   437    1
   625   617   618   ar
   626   610   609    1
   627   753   754    1
   628   753   752    1
   629   431   430    2
   630   670   668    1
   631   670   671    1
   632   632   631   ar
   633   432   430   ar
   634   432   433   ar
   635   638   639   ar
   636   652   653   ar
   637   652   651    1
   638   603   604    1
   639   668   667    1
   640   316   309   ar
   641   688   687    1
   642   755   754   ar
   643   755   756   ar
   644   312   310   ar
   645   434   433    1
   646   640   631   ar
   647   640   639   ar
   648   144   143    1
   649   750   752    1
   650   750   751    1
   651   138   141    1
   652   138   127    1
   653   138   139    1
   654   671   684    1
   655   123   124    1
   656   129   128    1
   657   129   125    1
   658   126   128    1
   659   126   124    1
   660   126   127    1
   661   430   429   ar
   662   754   763   ar
   663   301   302    1
   664   622   620    2
   665   751   764    1
   666   605   609    1
   667   605   604    1
   668   125   124    1
   669   433   435   ar
   670   687   684    1
   671   143   142    1
   672   141   142    1
   673   333   335   ar
   674   333   332   ar
   675   756   757   ar
   676   609   608    1
   677   631   630    1
   678   438   437    2
   679   437   439    1
   680   437   426    1
   681   604   606    1
   682   606   608    1
   683   606   607    1
   684   651   650    1
   685   651   647    1
   686   427   425    1
   687   427   428    1
   688   763   757   ar
   689   763   762   ar
   690   309   310   ar
   691   309   308    1
   692   335   336   ar
   693   765   764    2
   694   684   686    2
   695   684   685    1
   696   310   311    2
   697   766   764    1
   698   764   767    1
   699   667   666    1
   700   302   303    1
   701   757   758   ar
   702   621   620    1
   703   650   648    1
   704   429   428    1
   705   429   436   ar
   706   666   663    1
   707   620   607    1
   708   620   623    1
   709   426   425    1
   710   332   330   ar
   711   762   761   ar
   712   435   436   ar
   713   304   308    1
   714   304   303    1
   715   425   423    1
   716   428   424    1
   717   630   626    1
   718   630   629    1
   719   648   649    1
   720   648   646    1
   721   758   759    1
   722   758   760   ar
   723   647   646    1
   724   308   307    1
   725   626   625    1
   726   761   760   ar
   727   303   305    1
   728   320   318    2
   729   336   329   ar
   730   643   641    2
   731   767   768    1
   732   624   623    1
   733   624   625    1
   734   665   663    2
   735   330   329   ar
   736   330   331    2
   737   305   307    1
   738   305   306    1
   739   663   649    1
   740   663   664    1
   741   768   769    1
   742   627   629    1
   743   627   625    1
   744   627   628    1
   745   646   645    1
   746   423   424    1
   747   423   422    1
   748   414   413    2
   749   329   328    1
   750   770   769    1
   751   770   774    1
   752   412   413   ar
   753   412   410   ar
   754   641   644    1
   755   641   628    1
   756   641   642    1
   757   645   644    1
   758   781   782   ar
   759   781   779   ar
   760   318   306    1
   761   318   321    1
   762   318   319    1
   763   782   775   ar
   764   411   410    2
   765   413   415   ar
   766   769   771    1
   767   780   779    1
   768   779   778   ar
   769   422   421    1
   770   410   409   ar
   771   321   322    1
   772   775   774    1
   773   775   776   ar
   774   774   773    1
   775   339   337    2
   776   778   776   ar
   777  1460  1459    2
   778   328   324    1
   779   328   327    1
   780   776   777    2
   781   420   418    2
   782   324   323    1
   783   415   417    1
   784   415   416   ar
   785   771   773    1
   786   771   772    1
   787  1458  1459   am
   788  1458  1456   am
   789  1459  1461    1
   790   421   418    1
   791   409   416   ar
   792   409   408    1
   793   394   393    2
   794   327   325    1
   795   322   323    1
   796   325   323    1
   797   325   326    1
   798  1457  1456    2
   799  1456  1455    2
   800   407   408    1
   801   407   405    1
   802   373   372    1
   803   418   419    1
   804   418   406    1
   805  1461  1463    1
   806  1461  1462    2
   807   337   338    1
   808   337   326    1
   809   337   340    1
   810   772   786    1
   811   408   404    1
   812  1455  1462    1
   813   393   392   ar
   814   393   395   ar
   815   359   357    2
   816   405   406    1
   817   405   403    1
   818   341   340    1
   819   341   342    1
   820  1363  1362    2
   821  1344  1343    2
   822   397   395    1
   823  1447  1444    1
   824  1447  1448    1
   825  1450  1454    1
   826  1450  1449    1
   827   392   390   ar
   828   372   371   ar
   829   372   374   ar
   830   783   784    2
   831   783   785    1
   832   370   371   ar
   833   370   369   ar
   834  1444  1446    1
   835  1364  1362    1
   836   395   396   ar
   837  1454  1453    1
   838   786   787    1
   839  1449  1448    1
   840  1449  1451    1
   841   802   800    1
   842   404   403    1
   843  1382  1381    2
   844   371   377   ar
   845  1383  1381    1
   846   374   375   ar
   847   800   801   ar
   848   800   798   ar
   849  1362  1351    1
   850  1362  1365    1
   851   799   798    2
   852  1439  1438    1
   853   801   794   ar
   854   400   398    2
   855   789   793    1
   856   789   788    1
   857   798   797   ar
   858  1445  1431    1
   859  1445  1430    1
   860  1453  1451    1
   861  1425  1423    2
   862   403   402    1
   863   357   358    2
   864   357   360    1
   865   390   391    2
   866   390   389   ar
   867   369   368   ar
   868   342   344    1
   869   342   343    1
   870   794   793    1
   871   794   795   ar
   872   797   795   ar
   873  1405  1403    2
   874   793   792    1
   875  1381  1370    1
   876  1381  1384    1
   877   795   796    2
   878  1343  1346    1
   879  1343  1332    1
   880  1343  1345    1
   881  1351  1350    1
   882   345   344    1
   883   396   389   ar
   884  1451  1452    1
   885  1424  1423    1
   886  1404  1403    1
   887   380   378    2
   888   401   398    1
   889   401   402    1
   890  1438  1440   ar
   891  1438  1437   ar
   892   787   788    1
   893  1347  1346    1
   894  1347  1348    1
   895  1436  1437   ar
   896  1436  1435   ar
   897  1431  1430    1
   898   377   368   ar
   899   377   376   ar
   900   788   790    1
   901   389   388    1
   902  1440  1441   ar
   903  1325  1324    2
   904  1423  1426    1
   905  1423  1411    1
   906   375   376   ar
   907  1437  1443   ar
   908   344   346    1
   909   360   361    1
   910   343   347    1
   911  1422  1420    1
   912   398   399    1
   913   398   386    1
   914  1426  1427    1
   915  1403  1389    1
   916  1403  1406    1
   917  1365  1366    1
   918  1332  1331    1
   919   368   367    1
   920  1430  1432    1
   921  1430  1428    1
   922  1370  1369    1
   923  1435  1434   ar
   924  1384  1385    1
   925  1350  1348    1
   926  1350  1352    1
   927  1441  1442   ar
   928   792   790    1
   929  1366  1367    1
   930  1348  1349    1
   931  1443  1434   ar
   932  1443  1442   ar
   933  1432  1433    1
   934   387   385    1
   935   387   388    1
   936  1419  1418    2
   937  1328  1329    1
   938  1328  1327    1
   939  1434  1433    1
   940   385   386    1
   941   385   383    1
   942   378   381    1
   943   378   379    1
   944   378   365    1
   945  1389  1388    1
   946  1427  1428    1
   947   388   384    1
   948  1420  1418   ar
   949  1420  1421   ar
   950   790   791    1
   951   381   382    1
   952  1406  1407    1
   953  1369  1367    1
   954  1369  1371    1
   955   364   366    1
   956   364   362    1
   957   364   365    1
   958  1385  1386    1
   959  1324  1327    1
   960  1324  1326    1
   961  1324  1312    1
   962  1418  1417   ar
   963  1428  1429    1
   964   347   346    1
   965   347   348    1
   966   361   362    1
   967   367   363    1
   968   367   366    1
   969  1331  1329    1
   970  1331  1333    1
   971  1411  1410    1
   972   363   362    1
   973  1329  1330    1
   974  1433  1429    1
   975  1367  1368    1
   976   819   818    2
   977   822   820    1
   978  1388  1386    1
   979  1388  1390    1
   980  1410  1412    1
   981  1410  1408    1
   982  1421  1414   ar
   983   348   355   ar
   984   348   349   ar
   985   384   383    1
   986  1352  1353    1
   987   355   354   ar
   988  1349  1353    1
   989  1407  1408    1
   990  1312  1311    1
   991   383   382    1
   992   818   820   ar
   993   818   817   ar
   994   791   803    1
   995  1386  1387    1
   996   820   821   ar
   997  1417  1415   ar
   998  1394  1393   ar
   999  1394  1395   ar
  1000  1393  1392   ar
  1001  1371  1372    1
  1002  1333  1334    1
  1003  1412  1413    1
  1004  1380  1379   ar
  1005  1380  1373   ar
  1006  1379  1377   ar
  1007  1408  1409    1
  1008   817   815   ar
  1009  1414  1415   ar
  1010  1414  1413    1
  1011   349   350    2
  1012   349   351   ar
  1013   354   356    1
  1014   354   352   ar
  1015  1368  1372    1
  1016  1353  1354    1
  1017   821   814   ar
  1018  1305  1304    2
  1019  1361  1354   ar
  1020  1361  1360   ar
  1021  1330  1334    1
  1022  1390  1391    1
  1023  1415  1416    2
  1024  1397  1396    2
  1025   805   803    2
  1026  1395  1396   ar
  1027  1395  1402   ar
  1028  1387  1391    1
  1029   815   814   ar
  1030   815   816    2
  1031  1354  1355   ar
  1032   814   813    1
  1033  1372  1373    1
  1034  1413  1409    1
  1035  1392  1391    1
  1036  1392  1402   ar
  1037  1360  1358   ar
  1038  1311  1309    1
  1039  1311  1313    1
  1040  1373  1374   ar
  1041   803   806    1
  1042   803   804    1
  1043  1396  1398   ar
  1044  1377  1378    1
  1045  1377  1376   ar
  1046  1334  1335    1
  1047   351   352   ar
  1048  1308  1309    1
  1049  1308  1307    1
  1050   352   353    2
  1051   809   813    1
  1052   809   808    1
  1053  1309  1310    1
  1054   813   812    1
  1055  1402  1401   ar
  1056  1313  1314    1
  1057   806   807    1
  1058   839   838    1
  1059  1304  1307    1
  1060  1304  1306    1
  1061  1304  1293    1
  1062  1335  1342   ar
  1063  1335  1336   ar
  1064  1342  1341   ar
  1065  1374  1376   ar
  1066  1374  1375    2
  1067  1355  1356    2
  1068  1355  1357   ar
  1069  1358  1357   ar
  1070  1358  1359    1
  1071  1398  1399   ar
  1072   807   808    1
  1073  1401  1399   ar
  1074   808   810    1
  1075  1293  1292    1
  1076   838   837   ar
  1077   838   840   ar
  1078  1337  1336    2
  1079  1399  1400    1
  1080  1341  1339   ar
  1081  1336  1338   ar
  1082  1310  1314    1
  1083   812   810    1
  1084   837   835   ar
  1085  1314  1315    1
  1086   840   841   ar
  1087   810   811    1
  1088   880   879    1
  1089  1338  1339   ar
  1090  1339  1340    1
  1091   902   901    1
  1092  1292  1294    1
  1093  1292  1290    1
  1094   835   836    2
  1095   835   834   ar
  1096  1315  1322   ar
  1097  1315  1316   ar
  1098  1294  1295    1
  1099   858   857    1
  1100   841   834   ar
  1101  1322  1321   ar
  1102   878   879   ar
  1103   878   876   ar
  1104  1317  1316    2
  1105   879   881   ar
  1106  1316  1318   ar
  1107   834   833    1
  1108  1290  1289    1
  1109  1290  1291    1
  1110   811   823    1
  1111   856   857   ar
  1112   856   854   ar
  1113   901   900   ar
  1114   901   903   ar
  1115   877   876    2
  1116   857   859   ar
  1117   825   823    2
  1118   923   924   ar
  1119   923   922   ar
  1120  1289  1288    1
  1121   876   875   ar
  1122  1321  1323    1
  1123  1321  1319   ar
  1124   881   882   ar
  1125   900   898   ar
  1126   833   829    1
  1127   833   832    1
  1128  1318  1319   ar
  1129   924   925   ar
  1130   922   920   ar
  1131   903   904   ar
  1132   855   854    2
  1133  1295  1291    1
  1134  1295  1296    1
  1135   829   828    1
  1136   823   826    1
  1137   823   824    1
  1138   854   853   ar
  1139  1319  1320    2
  1140  1298  1297    2
  1141   944   945   ar
  1142   944   943   ar
  1143   859   860   ar
  1144   882   875   ar
  1145   882   872   ar
  1146   875   874   ar
  1147   945   946   ar
  1148  1288  1285    1
  1149   826   827    1
  1150   898   899    2
  1151   898   897   ar
  1152   925   919   ar
  1153   925   916   ar
  1154  1296  1297   ar
  1155  1296  1303   ar
  1156   920   921    1
  1157   920   919   ar
  1158   904   897   ar
  1159   904   894   ar
  1160  1297  1299   ar
  1161   943   941   ar
  1162   853   860   ar
  1163   853   852    1
  1164   832   830    1
  1165   915   916    1
  1166   915   911    1
  1167   915   914    1
  1168  1286  1285    2
  1169   897   896   ar
  1170   919   918   ar
  1171   828   827    1
  1172   828   830    1
  1173   874   873   ar
  1174   872   871    1
  1175   872   873   ar
  1176   916   917   ar
  1177   946   937   ar
  1178   946   940   ar
  1179   936   932    1
  1180   936   937    1
  1181   936   935    1
  1182   932   931    1
  1183  1303  1302   ar
  1184   911   910    1
  1185  1285  1271    1
  1186  1285  1287    1
  1187   914   912    1
  1188   893   894    1
  1189   893   892    1
  1190   893   889    1
  1191   894   895   ar
  1192   871   867    1
  1193   871   870    1
  1194  1299  1300   ar
  1195   852   848    1
  1196   852   851    1
  1197   937   938   ar
  1198   830   831    1
  1199   941   940   ar
  1200   941   942    1
  1201   935   933    1
  1202   940   939   ar
  1203   918   917   ar
  1204   931   930    1
  1205   931   933    1
  1206   892   890    1
  1207   957   953    1
  1208   957   956    1
  1209   957   958    1
  1210   896   895   ar
  1211   953   952    1
  1212   867   866    1
  1213   889   888    1
  1214  1271  1270    1
  1215   848   847    1
  1216   910   912    1
  1217   910   909    1
  1218  1302  1300   ar
  1219  1300  1301    1
  1220   956   954    1
  1221   870   868    1
  1222   912   913    1
  1223   851   849    1
  1224   938   939   ar
  1225   930   929    1
  1226   933   934    1
  1227   966   965   ar
  1228   966   967   ar
  1229   952   954    1
  1230   952   951    1
  1231   831   842    1
  1232   958   967   ar
  1233   958   959   ar
  1234   913   926    1
  1235   972   973    1
  1236   972   971    1
  1237   934   947    1
  1238  1272  1270    1
  1239  1272  1273    1
  1240   974   973    1
  1241   974   978    1
  1242   888   890    1
  1243   888   887    1
  1244   973   975    1
  1245   965   964   ar
  1246   909   908    1
  1247   967   961   ar
  1248   950   951    1
  1249   950   947    1
  1250  1270  1268    1
  1251  1282  1281    1
  1252   954   955    1
  1253   844   842    2
  1254   890   891    1
  1255   955   968    1
  1256   866   868    1
  1257   866   865    1
  1258   929   926    1
  1259   847   849    1
  1260   847   846    1
  1261   849   850    1
  1262   868   869    1
  1263   959   960   ar
  1264   845   842    1
  1265   845   846    1
  1266   842   843    1
  1267   964   962   ar
  1268   978   977    1
  1269   978   979    1
  1270   908   905    1
  1271  1281  1283   ar
  1272  1281  1280   ar
  1273   961   960   ar
  1274   961   962   ar
  1275  1283  1284   ar
  1276   891   905    1
  1277   947   948    2
  1278   947   949    1
  1279   926   927    2
  1280   926   928    1
  1281   864   865    1
  1282   864   861    1
  1283   969   968    2
  1284   887   886    1
  1285   971   968    1
  1286  1268  1267    1
  1287  1268  1269    1
  1288   976   975    1
  1289   976   988    1
  1290   975   977    1
  1291   962   963    1
  1292  1273  1274    1
  1293  1273  1269    1
  1294   968   970    1
  1295   886   883    1
  1296   869   883    1
  1297  1280  1278   ar
  1298   850   861    1
  1299  1284  1274   ar
  1300  1284  1277   ar
  1301   905   907    2
  1302   905   906    1
  1303  1267  1266    1
  1304   979   986   ar
  1305   979   980   ar
  1306  1274  1275   ar
  1307   863   861    2
  1308   986   985   ar
  1309   861   862    1
  1310   981   980    2
  1311  1278  1277   ar
  1312  1278  1279    2
  1313  1277  1276   ar
  1314  1266  1263    1
  1315   980   982   ar
  1316   989   988    2
  1317   883   885    2
  1318   883   884    1
  1319   988   991    1
  1320   988   990    1
  1321  1264  1263    2
  1322   992   991    1
  1323   992   993    1
  1324  1275  1276   ar
  1325   985   987    1
  1326   985   983   ar
  1327   994   993    1
  1328   994   998    1
  1329  1263  1265    1
  1330  1263  1249    1
  1331   993   995    1
  1332   982   983   ar
  1333   983   984    2
  1334  1260  1259    1
  1335   998   999    1
  1336   998   997    1
  1337  1258  1259   ar
  1338  1258  1256   ar
  1339  1259  1261   ar
  1340  1249  1248    1
  1341  1000   999   ar
  1342  1000  1001   ar
  1343  1257  1256    2
  1344   995   997    1
  1345   995   996    1
  1346  1256  1255   ar
  1347  1261  1262   ar
  1348   999  1008   ar
  1349  1250  1248    1
  1350  1250  1251    1
  1351  1248  1246    1
  1352   996  1009    1
  1353  1262  1255   ar
  1354  1262  1252   ar
  1355  1001  1002   ar
  1356  1255  1254   ar
  1357  1008  1002   ar
  1358  1008  1007   ar
  1359  1252  1251    1
  1360  1252  1253   ar
  1361  1254  1253   ar
  1362  1002  1003   ar
  1363  1010  1009    2
  1364  1251  1247    1
  1365  1009  1011    1
  1366  1009  1012    1
  1367  1007  1006   ar
  1368  1246  1247    1
  1369  1246  1245    1
  1370  1003  1004    1
  1371  1003  1005   ar
  1372  1006  1005   ar
  1373  1244  1245    1
  1374  1244  1241    1
  1375  1012  1013    1
  1376  1013  1014    1
  1377  1243  1241    2
  1378  1015  1014    1
  1379  1015  1019    1
  1380  1241  1242    1
  1381  1241  1229    1
  1382  1014  1016    1
  1383  1021  1022   ar
  1384  1021  1020   ar
  1385  1022  1023   ar
  1386  1237  1236    2
  1387  1235  1236   ar
  1388  1235  1233   ar
  1389  1019  1020    1
  1390  1019  1018    1
  1391  1020  1029   ar
  1392  1236  1238   ar
  1393  1234  1233    2
  1394  1023  1029   ar
  1395  1023  1024   ar
  1396  1233  1232   ar
  1397  1229  1228    1
  1398  1029  1028   ar
  1399  1025  1024    1
  1400  1016  1018    1
  1401  1016  1017    1
  1402  1024  1026   ar
  1403  1230  1228    1
  1404  1230  1231    1
  1405  1238  1240    1
  1406  1238  1239   ar
  1407  1228  1226    1
  1408  1232  1239   ar
  1409  1232  1231    1
  1410  1028  1027   ar
  1411  1017  1030    1
  1412  1217  1216    2
  1413  1026  1027   ar
  1414  1161  1159    1
  1415  1231  1227    1
  1416  1223  1221    2
  1417  1216  1215   ar
  1418  1216  1218   ar
  1419  1032  1030    2
  1420  1226  1227    1
  1421  1226  1225    1
  1422  1220  1218    1
  1423  1224  1225    1
  1424  1224  1221    1
  1425  1215  1213   ar
  1426  1030  1031    1
  1427  1030  1033    1
  1428  1046  1045    2
  1429  1218  1219   ar
  1430  1181  1179    2
  1431  1043  1042   ar
  1432  1043  1044   ar
  1433  1160  1159    1
  1434  1160  1145    1
  1435  1221  1222    1
  1436  1221  1209    1
  1437  1159  1162    1
  1438  1195  1194    2
  1439  1042  1041   ar
  1440  1178  1176    1
  1441  1045  1044   ar
  1442  1045  1047   ar
  1443  1044  1051   ar
  1444  1203  1201    2
  1445  1213  1214    2
  1446  1213  1212   ar
  1447  1162  1163    1
  1448  1219  1212   ar
  1449  1145  1144    1
  1450  1194  1196   ar
  1451  1194  1193   ar
  1452  1033  1034    1
  1453  1041  1051   ar
  1454  1041  1040    1
  1455  1212  1211    1
  1456  1047  1048   ar
  1457  1051  1050   ar
  1458  1179  1180    1
  1459  1179  1182    1
  1460  1179  1167    1
  1461  1192  1193   ar
  1462  1192  1191   ar
  1463  1036  1040    1
  1464  1036  1035    1
  1465  1209  1208    1
  1466  1202  1201    1
  1467  1208  1210    1
  1468  1208  1206    1
  1469  1175  1174    2
  1470  1196  1197   ar
  1471  1156  1155    1
  1472  1193  1200   ar
  1473  1176  1174   ar
  1474  1176  1177   ar
  1475  1201  1204    1
  1476  1201  1187    1
  1477  1163  1164    1
  1478  1182  1183    1
  1479  1040  1039    1
  1480  1048  1050   ar
  1481  1048  1049    1
  1482  1205  1206    1
  1483  1205  1204    1
  1484  1210  1211    1
  1485  1142  1144    1
  1486  1142  1143    1
  1487  1142  1141    1
  1488  1144  1146    1
  1489  1174  1173   ar
  1490  1034  1035    1
  1491  1191  1190   ar
  1492  1147  1146    1
  1493  1147  1143    1
  1494  1147  1148    1
  1495  1157  1155    1
  1496  1157  1158    2
  1497  1211  1207    1
  1498  1134  1133    1
  1499  1177  1170   ar
  1500  1197  1198    1
  1501  1197  1199   ar
  1502  1206  1207    1
  1503  1200  1190   ar
  1504  1200  1199   ar
  1505  1155  1154    2
  1506  1035  1037    1
  1507  1068  1067    1
  1508  1167  1166    1
  1509  1166  1164    1
  1510  1166  1168    1
  1511  1190  1189    1
  1512  1186  1187    1
  1513  1186  1188    1
  1514  1186  1184    1
  1515  1164  1165    1
  1516  1141  1140    1
  1517  1183  1184    1
  1518  1173  1171   ar
  1519  1039  1037    1
  1520  1158  1148    1
  1521  1158  1151    1
  1522  1188  1189    1
  1523  1148  1149    1
  1524  1170  1171   ar
  1525  1170  1169    1
  1526  1140  1137    1
  1527  1067  1069   ar
  1528  1067  1066   ar
  1529  1165  1169    1
  1530  1133  1132    2
  1531  1133  1135    1
  1532  1037  1038    1
  1533  1184  1185    1
  1534  1154  1152    1
  1535  1065  1066   ar
  1536  1065  1064   ar
  1537  1189  1185    1
  1538  1168  1169    1
  1539  1069  1070   ar
  1540  1171  1172    2
  1541  1132  1130    1
  1542  1066  1072   ar
  1543  1135  1136    2
  1544  1089  1088    2
  1545  1064  1063   ar
  1546  1151  1152    1
  1547  1151  1150    1
  1548  1149  1150    2
  1549  1070  1071   ar
  1550  1038  1052    1
  1551  1152  1153    2
  1552  1072  1063   ar
  1553  1072  1071   ar
  1554  1137  1139    2
  1555  1137  1138    1
  1556  1137  1123    1
  1557  1090  1088   ar
  1558  1090  1091   ar
  1559  1088  1087   ar
  1560  1130  1131    2
  1561  1130  1129    1
  1562  1054  1052    2
  1563  1063  1062    1
  1564  1136  1129    1
  1565  1136  1126    1
  1566  1092  1091    1
  1567  1091  1093   ar
  1568  1124  1122    1
  1569  1124  1125    1
  1570  1052  1055    1
  1571  1052  1053    1
  1572  1129  1128    1
  1573  1058  1062    1
  1574  1058  1057    1
  1575  1123  1122    1
  1576  1108  1107    2
  1577  1087  1086   ar
  1578  1087  1094   ar
  1579  1055  1056    1
  1580  1109  1107   ar
  1581  1109  1110   ar
  1582  1062  1061    1
  1583  1111  1110    2
  1584  1126  1125    1
  1585  1126  1127    1
  1586  1086  1085   ar
  1587  1122  1120    1
  1588  1107  1106   ar
  1589  1093  1094   ar
  1590  1056  1057    1
  1591  1110  1112   ar
  1592  1125  1121    1
  1593  1094  1084   ar
  1594  1128  1127    2
  1595  1057  1059    1
  1596  1085  1084   ar
  1597  1061  1059    1
  1598  1084  1083    1
  1599  1120  1121    1
  1600  1120  1119    1
  1601  1059  1060    1
  1602  1106  1105    1
  1603  1106  1113   ar
  1604  1112  1113   ar
  1605  1112  1114    1
  1606  1105  1104    1
  1607  1105  1101    1
  1608  1083  1079    1
  1609  1083  1082    1
  1610  1119  1118    1
  1611  1104  1102    1
  1612  1060  1073    1
  1613  1079  1078    1
  1614  1075  1073    2
  1615  1101  1100    1
  1616  1082  1080    1
  1617  1076  1073    1
  1618  1076  1077    1
  1619  1073  1074    1
  1620  1118  1115    1
  1621  1102  1100    1
  1622  1102  1103    1
  1623  1078  1080    1
  1624  1078  1077    1
  1625  1100  1099    1
  1626  1080  1081    1
  1627  1115  1103    1
  1628  1115  1117    2
  1629  1115  1116    1
  1630  1098  1099    1
  1631  1098  1095    1
  1632  1081  1095    1
  1633  1097  1095    2
  1634  1095  1096    1
