@<TRIPOS>MOLECULE
dna.pdb
 1463 1637 0 0 0
SMALL
GASTEIGER

@<TRIPOS>ATOM
      1  O5'      -14.4010    1.1930    0.4310 O.3     1  DA1        -0.2176
      2  C5'      -13.3400    1.6790    1.2410 C.3     1  DA1         0.2140
      3  C4'      -13.8300    2.7420    2.1860 C.3     1  DA1         0.1776
      4  O4'      -14.3040    3.8800    1.4310 O.3     1  DA1        -0.3326
      5  C3'      -14.9880    2.3650    3.0900 C.3     1  DA1         0.1559
      6  O3'      -14.4820    1.6040    4.1990 O.3     1  DA1        -0.3138
      7  C2'      -15.5960    3.7350    3.4340 C.3     1  DA1         0.0865
      8  C1'      -15.2940    4.5560    2.1730 C.3     1  DA1         0.2094
      9  N9       -15.8450    5.1610    1.0470 N.ar    1  DA1        -0.2714
     10  C8       -16.3260    4.3670    0.0390 C.ar    1  DA1         0.1815
     11  N7       -17.0900    5.0050   -0.8170 N.ar    1  DA1        -0.2193
     12  C5       -17.1110    6.3050   -0.3380 C.ar    1  DA1         0.1518
     13  C6       -17.7450    7.4720   -0.7990 C.ar    1  DA1         0.1919
     14  N6       -18.5090    7.5160   -1.8930 N.pl3   1  DA1        -0.1054
     15  N1       -17.5640    8.6060   -0.0880 N.ar    1  DA1        -0.2040
     16  C2       -16.7970    8.5610    1.0070 C.ar    1  DA1         0.2016
     17  N3       -16.1490    7.5270    1.5390 N.ar    1  DA1        -0.2048
     18  C4       -16.3510    6.4160    0.8100 C.ar    1  DA1         0.1691
     19  P        -15.3450    0.0690    4.7700 P.3     2  DT2         0.2141
     20  OP1      -16.6890    0.1920    5.3940 O.2     2  DT2        -0.5172
     21  OP2      -14.1340    0.0640    5.6330 O.3     2  DT2        -0.4373
     22  O5'      -15.2610   -1.1800    3.7710 O.3     2  DT2        -0.3114
     23  C5'      -16.3640   -1.5400    2.9270 C.3     2  DT2         0.1811
     24  C4'      -16.2230   -2.9740    2.4520 C.3     2  DT2         0.1746
     25  O4'      -15.2090   -3.0330    1.4110 O.3     2  DT2        -0.3327
     26  C3'      -15.7820   -4.0030    3.4940 C.3     2  DT2         0.1558
     27  O3'      -16.8430   -4.5130    4.3190 O.3     2  DT2        -0.3138
     28  C2'      -15.1040   -5.0710    2.6380 C.3     2  DT2         0.0866
     29  C1'      -14.4520   -4.2270    1.5420 C.3     2  DT2         0.2106
     30  N1       -13.0060   -3.8250    1.8720 N.ar    2  DT2        -0.2559
     31  C2       -12.0670   -4.7690    1.5030 C.ar    2  DT2         0.3545
     32  O2       -12.3470   -5.7750    0.8760 O.2     2  DT2        -0.2443
     33  N3       -10.7790   -4.4930    1.8970 N.ar    2  DT2        -0.1533
     34  C4       -10.3470   -3.3920    2.6070 C.ar    2  DT2         0.2804
     35  O4        -9.1560   -3.2820    2.8860 O.2     2  DT2        -0.2654
     36  C5       -11.3810   -2.4590    2.9540 C.ar    2  DT2         0.0534
     37  C6       -12.6410   -2.7030    2.5840 C.ar    2  DT2         0.0824
     38  C7       -11.0110   -1.2290    3.7280 C.3     2  DT2         0.0377
     39  P        -16.4980   -5.2390    5.7960 P.3     3  DC3         0.2141
     40  OP1      -17.7310   -5.4620    6.5890 O.3     3  DC3        -0.4373
     41  OP2      -15.3910   -4.4250    6.3720 O.2     3  DC3        -0.5172
     42  O5'      -15.8760   -6.6400    5.3730 O.3     3  DC3        -0.3114
     43  C5'      -16.4130   -7.3710    4.2750 C.3     3  DC3         0.1811
     44  C4'      -15.4800   -8.4900    3.8990 C.3     3  DC3         0.1746
     45  O4'      -14.2770   -7.9330    3.3080 O.3     3  DC3        -0.3327
     46  C3'      -14.9620   -9.2930    5.0790 C.3     3  DC3         0.1558
     47  O3'      -15.8970  -10.2550    5.5440 O.3     3  DC3        -0.3138
     48  C2'      -13.6760   -9.8860    4.5280 C.3     3  DC3         0.0866
     49  C1'      -13.1540   -8.7150    3.6930 C.3     3  DC3         0.2106
     50  N1       -12.2590   -7.8600    4.4720 N.ar    3  DC3        -0.2556
     51  C2       -10.9310   -8.2400    4.6990 C.ar    3  DC3         0.3531
     52  O2       -10.5490   -9.3500    4.2890 O.2     3  DC3        -0.2443
     53  N3       -10.1050   -7.3920    5.3570 N.ar    3  DC3        -0.1739
     54  C4       -10.5600   -6.2120    5.7790 C.ar    3  DC3         0.1759
     55  N4        -9.7100   -5.4090    6.4230 N.pl3   3  DC3        -0.1070
     56  C5       -11.9020   -5.8080    5.5590 C.ar    3  DC3         0.0566
     57  C6       -12.7140   -6.6480    4.9090 C.ar    3  DC3         0.0849
     58  P        -16.0470  -10.4490    6.9400 P.3     4  DC4         0.2141
     59  OP1      -17.2330  -11.1050    7.5340 O.2     4  DC4        -0.5172
     60  OP2      -15.4600   -9.2610    7.5990 O.3     4  DC4        -0.4373
     61  O5'      -14.8760  -11.5120    6.7650 O.3     4  DC4        -0.3114
     62  C5'      -15.0800  -12.7240    6.0210 C.3     4  DC4         0.1811
     63  C4'      -13.7920  -13.5030    5.9500 C.3     4  DC4         0.1746
     64  O4'      -12.8090  -12.7610    5.1800 O.3     4  DC4        -0.3327
     65  C3'      -13.1320  -13.7470    7.2980 C.3     4  DC4         0.1558
     66  O3'      -13.7120  -14.9010    7.8980 O.3     4  DC4        -0.3138
     67  C2'      -11.6660  -13.9270    6.9220 C.3     4  DC4         0.0866
     68  C1'      -11.5250  -12.9460    5.7500 C.3     4  DC4         0.2106
     69  N1       -10.9790  -11.6340    6.0460 N.ar    4  DC4        -0.2556
     70  C2        -9.5860  -11.5020    6.0280 C.ar    4  DC4         0.3531
     71  O2        -8.9020  -12.4410    5.5860 O.2     4  DC4        -0.2443
     72  N3        -9.0260  -10.3590    6.4920 N.ar    4  DC4        -0.1739
     73  C4        -9.8000   -9.3780    6.9580 C.ar    4  DC4         0.1759
     74  N4        -9.2030   -8.2710    7.4050 N.pl3   4  DC4        -0.1070
     75  C5       -11.2130   -9.4920    6.9850 C.ar    4  DC4         0.0566
     76  C6       -11.7620  -10.6220    6.5260 C.ar    4  DC4         0.0849
     77  P        -13.6420  -15.1900    9.4310 P.3     5  DG5         0.2141
     78  OP1      -14.4300  -16.4350    9.6100 O.2     5  DG5        -0.5172
     79  OP2      -14.0800  -13.9440   10.1160 O.3     5  DG5        -0.4373
     80  O5'      -12.1220  -15.4620    9.8420 O.3     5  DG5        -0.3114
     81  C5'      -11.1480  -14.4210    9.7760 C.3     5  DG5         0.1811
     82  C4'       -9.7610  -15.0030    9.6370 C.3     5  DG5         0.1746
     83  O4'       -9.0270  -14.1780    8.6930 O.3     5  DG5        -0.3327
     84  C3'       -8.9250  -14.9820   10.9060 C.3     5  DG5         0.1558
     85  O3'       -8.7060  -16.0900   11.7640 O.3     5  DG5        -0.3138
     86  C2'       -7.9990  -13.7750   10.8420 C.3     5  DG5         0.0865
     87  C1'       -8.0420  -13.3970    9.3630 C.3     5  DG5         0.2094
     88  N9        -8.5370  -11.8790    9.2460 N.ar    5  DG5        -0.2713
     89  C8        -9.7190  -11.2120    9.4550 C.ar    5  DG5         0.1816
     90  N7        -9.5540   -9.9490    9.7430 N.ar    5  DG5        -0.2173
     91  C5        -8.1840   -9.7690    9.7220 C.ar    5  DG5         0.1748
     92  C6        -7.4010   -8.6100    9.9590 C.ar    5  DG5         0.3023
     93  O6        -7.7880   -7.4690   10.2440 O.2     5  DG5        -0.2633
     94  N1        -6.0390   -8.8670    9.8360 N.ar    5  DG5        -0.1709
     95  C2        -5.4970  -10.0910    9.5240 C.ar    5  DG5         0.2606
     96  N2        -4.1600  -10.1430    9.4500 N.pl3   5  DG5        -0.0859
     97  N3        -6.2100  -11.1770    9.3020 N.ar    5  DG5        -0.1918
     98  C4        -7.5360  -10.9510    9.4160 C.ar    5  DG5         0.1722
     99  P         -8.4830  -15.8270   13.3340 P.3     6  DT6         0.2141
    100  OP1       -8.8250  -17.1120   13.9960 O.3     6  DT6        -0.4373
    101  OP2       -9.3430  -14.6330   13.5510 O.2     6  DT6        -0.5172
    102  O5'       -6.9880  -15.4210   13.7030 O.3     6  DT6        -0.3114
    103  C5'       -5.9010  -16.2350   13.2790 C.3     6  DT6         0.1811
    104  C4'       -4.6420  -15.4140   13.1120 C.3     6  DT6         0.1746
    105  O4'       -4.8230  -14.4100   12.0740 O.3     6  DT6        -0.3327
    106  C3'       -4.1860  -14.5990   14.3070 C.3     6  DT6         0.1558
    107  O3'       -3.5140  -15.4100   15.2600 O.3     6  DT6        -0.3138
    108  C2'       -3.2330  -13.6120   13.6450 C.3     6  DT6         0.0866
    109  C1'       -3.9710  -13.3060   12.3390 C.3     6  DT6         0.2106
    110  N1        -4.8150  -12.1280   12.4410 N.ar    6  DT6        -0.2559
    111  C2        -4.2670  -10.8790   12.2180 C.ar    6  DT6         0.3545
    112  O2        -3.0830  -10.7050   11.9890 O.2     6  DT6        -0.2443
    113  N3        -5.1580   -9.8350   12.2750 N.ar    6  DT6        -0.1533
    114  C4        -6.5120   -9.9120   12.5270 C.ar    6  DT6         0.2804
    115  O4        -7.1830   -8.8840   12.5450 O.2     6  DT6        -0.2654
    116  C5        -7.0050  -11.2420   12.7490 C.ar    6  DT6         0.0534
    117  C6        -6.1610  -12.2760   12.6990 C.ar    6  DT6         0.0824
    118  C7        -8.4660  -11.4310   13.0320 C.3     6  DT6         0.0377
    119  P         -3.2650  -14.8480   16.9070 P.3     7  DC7         0.2141
    120  OP1       -2.9390  -16.0440   17.7150 O.3     7  DC7        -0.4373
    121  OP2       -4.5140  -14.1010   17.1790 O.2     7  DC7        -0.5172
    122  O5'       -2.1080  -13.7400   17.0370 O.3     7  DC7        -0.3114
    123  C5'       -0.7700  -13.9720   16.6060 C.3     7  DC7         0.1811
    124  C4'        0.0360  -12.6960   16.5820 C.3     7  DC7         0.1746
    125  O4'       -0.4130  -11.8460   15.4970 O.3     7  DC7        -0.3327
    126  C3'       -0.1030  -11.8180   17.8130 C.3     7  DC7         0.1558
    127  O3'        0.7260  -12.2410   18.8800 O.3     7  DC7        -0.3138
    128  C2'        0.2120  -10.4180   17.2920 C.3     7  DC7         0.0866
    129  C1'       -0.3700  -10.4840   15.8790 C.3     7  DC7         0.2106
    130  N1        -1.8530   -9.9440   15.7950 N.ar    7  DC7        -0.2556
    131  C2        -1.9410   -8.5590   15.9800 C.ar    7  DC7         0.3531
    132  O2        -0.8930   -7.9080   16.1260 O.2     7  DC7        -0.2443
    133  N3        -3.1620   -7.9720   15.9950 N.ar    7  DC7        -0.1739
    134  C4        -4.2600   -8.7120   15.8350 C.ar    7  DC7         0.1759
    135  N4        -5.4410   -8.0900   15.8570 N.pl3   7  DC7        -0.1070
    136  C5        -4.1920  -10.1160   15.6460 C.ar    7  DC7         0.0566
    137  C6        -2.9850  -10.6920   15.6320 C.ar    7  DC7         0.0849
    138  P          0.5230  -11.5570   20.4530 P.3     8  DA8         0.2141
    139  OP1        1.0890  -11.2290   21.7900 O.3     8  DA8        -0.4373
    140  OP2       -0.7870  -12.2490   20.3530 O.2     8  DA8        -0.5172
    141  O5'        0.4300  -10.2290   19.5710 O.3     8  DA8        -0.3114
    142  C5'        1.6010   -9.4060   19.3300 C.3     8  DA8         0.1811
    143  C4'        1.3190   -7.9740   19.7300 C.3     8  DA8         0.1746
    144  O4'        0.3700   -7.3860   18.8170 O.3     8  DA8        -0.3327
    145  C3'        0.7210   -7.8430   21.1200 C.3     8  DA8         0.1558
    146  O3'        1.7760   -7.5780   22.0250 O.3     8  DA8        -0.3138
    147  C2'       -0.2040   -6.6430   21.0160 C.3     8  DA8         0.0865
    148  C1'       -0.6070   -6.6690   19.5380 C.3     8  DA8         0.2094
    149  N9        -1.8110   -7.2840   19.1320 N.ar    8  DA8        -0.2714
    150  C8        -2.2480   -8.5790   19.0220 C.ar    8  DA8         0.1815
    151  N7        -3.5540   -8.6990   19.0300 N.ar    8  DA8        -0.2193
    152  C5        -4.0060   -7.3950   19.1540 C.ar    8  DA8         0.1518
    153  C6        -5.2980   -6.8440   19.2220 C.ar    8  DA8         0.1919
    154  N6        -6.4160   -7.5720   19.1710 N.pl3   8  DA8        -0.1054
    155  N1        -5.4020   -5.5030   19.3460 N.ar    8  DA8        -0.2040
    156  C2        -4.2810   -4.7740   19.3960 C.ar    8  DA8         0.2016
    157  N3        -3.0130   -5.1770   19.3410 N.ar    8  DA8        -0.2048
    158  C4        -2.9440   -6.5130   19.2200 C.ar    8  DA8         0.1691
    159  P          1.4350   -7.3100   23.7030 P.3     9  DC9         0.2141
    160  OP1        2.7740   -7.2370   24.3330 O.3     9  DC9        -0.4373
    161  OP2        0.5150   -8.4430   23.9620 O.2     9  DC9        -0.5172
    162  O5'        0.6020   -6.0000   24.1140 O.3     9  DC9        -0.3114
    163  C5'        0.9040   -4.8030   23.3970 C.3     9  DC9         0.1811
    164  C4'        0.0080   -3.6250   23.7230 C.3     9  DC9         0.1746
    165  O4'       -1.0310   -3.5040   22.7120 O.3     9  DC9        -0.3327
    166  C3'       -0.6820   -3.6560   25.0850 C.3     9  DC9         0.1558
    167  O3'       -0.4390   -2.4680   25.8320 O.3     9  DC9        -0.3138
    168  C2'       -2.1710   -3.7690   24.7760 C.3     9  DC9         0.0866
    169  C1'       -2.3110   -3.4260   23.3000 C.3     9  DC9         0.2106
    170  N1        -3.0120   -4.4690   22.7250 N.ar    9  DC9        -0.2556
    171  C2        -4.3720   -4.1530   22.8240 C.ar    9  DC9         0.3531
    172  O2        -4.7160   -2.9600   22.7500 O.2     9  DC9        -0.2443
    173  N3        -5.2710   -5.1510   22.9990 N.ar    9  DC9        -0.1739
    174  C4        -4.8560   -6.4160   23.0740 C.ar    9  DC9         0.1759
    175  N4        -5.7770   -7.3670   23.2460 N.pl3   9  DC9        -0.1070
    176  C5        -3.4820   -6.7570   22.9760 C.ar    9  DC9         0.0566
    177  C6        -2.5990   -5.7680   22.8030 C.ar    9  DC9         0.0849
    178  P         -0.3110   -2.6400   27.2190 P.3    10  DA10        0.2141
    179  OP1        0.6710   -1.8250   27.9660 O.3    10  DA10       -0.4373
    180  OP2       -0.3740   -4.1040   27.4250 O.2    10  DA10       -0.5172
    181  O5'       -1.7880   -2.1280   27.5640 O.3    10  DA10       -0.3114
    182  C5'       -2.1860   -0.7820   27.3460 C.3    10  DA10        0.1811
    183  C4'       -3.5990   -0.5700   27.8240 C.3    10  DA10        0.1746
    184  O4'       -4.5280   -1.1650   26.8810 O.3    10  DA10       -0.3327
    185  C3'       -3.9320   -1.2450   29.1450 C.3    10  DA10        0.1558
    186  O3'       -3.4910   -0.5080   30.2740 O.3    10  DA10       -0.3138
    187  C2'       -5.4430   -1.4340   29.0520 C.3    10  DA10        0.0865
    188  C1'       -5.5960   -1.7830   27.5720 C.3    10  DA10        0.2094
    189  N9        -5.4950   -3.2260   27.3410 N.ar   10  DA10       -0.2714
    190  C8        -4.3630   -3.9460   27.0610 C.ar   10  DA10        0.1815
    191  N7        -4.5740   -5.2360   26.9380 N.ar   10  DA10       -0.2193
    192  C5        -5.9360   -5.3710   27.1530 C.ar   10  DA10        0.1518
    193  C6        -6.7860   -6.4920   27.1590 C.ar   10  DA10        0.1919
    194  N6        -6.3660   -7.7390   26.9320 N.pl3  10  DA10       -0.1054
    195  N1        -8.0960   -6.2830   27.4090 N.ar   10  DA10       -0.2040
    196  C2        -8.5150   -5.0330   27.6340 C.ar   10  DA10        0.2016
    197  N3        -7.8140   -3.9010   27.6540 N.ar   10  DA10       -0.2048
    198  C4        -6.5170   -4.1430   27.4040 C.ar   10  DA10        0.1691
    199  P         -3.2490   -1.2740   31.7250 P.3    11  DC11        0.2141
    200  OP1       -2.8040   -0.1360   32.5640 O.3    11  DC11       -0.4373
    201  OP2       -2.3430   -2.4280   31.5230 O.2    11  DC11       -0.5172
    202  O5'       -4.6320   -1.8450   32.2970 O.3    11  DC11       -0.3114
    203  C5'       -5.7230   -0.9750   32.5910 C.3    11  DC11        0.1811
    204  C4'       -7.0080   -1.7720   32.7030 C.3    11  DC11        0.1746
    205  O4'       -7.2450   -2.5590   31.5070 O.3    11  DC11       -0.3327
    206  C3'       -7.0280   -2.8570   33.7640 C.3    11  DC11        0.1558
    207  O3'       -7.0870   -2.3470   35.0720 O.3    11  DC11       -0.3138
    208  C2'       -8.3080   -3.5680   33.3630 C.3    11  DC11        0.0866
    209  C1'       -8.0750   -3.6560   31.8570 C.3    11  DC11        0.2106
    210  N1        -7.4190   -4.9120   31.5080 N.ar   11  DC11       -0.2556
    211  C2        -8.1810   -6.0470   31.2110 C.ar   11  DC11        0.3531
    212  O2        -9.4080   -6.0130   31.4100 O.2    11  DC11       -0.2443
    213  N3        -7.5620   -7.1470   30.7200 N.ar   11  DC11       -0.1739
    214  C4        -6.2430   -7.1390   30.5230 C.ar   11  DC11        0.1759
    215  N4        -5.6770   -8.2460   30.0370 N.pl3  11  DC11       -0.1070
    216  C5        -5.4530   -5.9990   30.8170 C.ar   11  DC11        0.0566
    217  C6        -6.0680   -4.9150   31.3030 C.ar   11  DC11        0.0849
    218  P         -6.0720   -2.9010   36.1200 P.3    12  DC12        0.2141
    219  OP1       -5.9800   -2.0830   37.3610 O.3    12  DC12       -0.4373
    220  OP2       -4.9100   -3.7410   35.7100 O.2    12  DC12       -0.5172
    221  O5'       -7.3550   -3.8500   36.2250 O.3    12  DC12       -0.3114
    222  C5'       -8.5450   -3.3870   36.8440 C.3    12  DC12        0.1811
    223  C4'       -9.5840   -4.4820   36.9030 C.3    12  DC12        0.1746
    224  O4'       -9.9840   -4.8240   35.5480 O.3    12  DC12       -0.3327
    225  C3'       -9.1610   -5.8140   37.5210 C.3    12  DC12        0.1558
    226  O3'       -9.2670   -5.8400   38.9440 O.3    12  DC12       -0.3138
    227  C2'      -10.1600   -6.7710   36.8970 C.3    12  DC12        0.0866
    228  C1'      -10.2650   -6.2160   35.4720 C.3    12  DC12        0.2106
    229  N1        -9.2260   -6.8820   34.6040 N.ar   12  DC12       -0.2556
    230  C2        -9.5670   -8.1860   34.2270 C.ar   12  DC12        0.3531
    231  O2       -10.7000   -8.6130   34.5070 O.2    12  DC12       -0.2443
    232  N3        -8.6540   -8.9430   33.5720 N.ar   12  DC12       -0.1739
    233  C4        -7.4500   -8.4430   33.2940 C.ar   12  DC12        0.1759
    234  N4        -6.5830   -9.2250   32.6460 N.pl3  12  DC12       -0.1070
    235  C5        -7.0850   -7.1240   33.6670 C.ar   12  DC12        0.0566
    236  C6        -7.9890   -6.3800   34.3140 C.ar   12  DC12        0.0849
    237  P         -8.5720   -7.1310   39.8020 P.3    13  DT13        0.2141
    238  OP1       -8.8760   -7.1600   41.2580 O.3    13  DT13       -0.4373
    239  OP2       -7.1560   -7.1130   39.3520 O.2    13  DT13       -0.5172
    240  O5'       -9.3000   -8.3700   39.1260 O.3    13  DT13       -0.3114
    241  C5'      -10.7060   -8.5770   39.3070 C.3    13  DT13        0.1811
    242  C4'      -11.0550   -9.9850   38.9390 C.3    13  DT13        0.1746
    243  O4'      -10.9220  -10.1470   37.5050 O.3    13  DT13       -0.3327
    244  C3'      -10.0850  -10.9940   39.5140 C.3    13  DT13        0.1558
    245  O3'      -10.4190  -11.3190   40.8470 O.3    13  DT13       -0.3138
    246  C2'      -10.2040  -12.1570   38.5420 C.3    13  DT13        0.0866
    247  C1'      -10.3230  -11.4040   37.2170 C.3    13  DT13        0.2106
    248  N1        -9.0490  -11.2290   36.5810 N.ar   13  DT13       -0.2559
    249  C2        -8.6180  -12.1820   35.6770 C.ar   13  DT13        0.3545
    250  O2        -9.2880  -13.1500   35.3630 O.2    13  DT13       -0.2443
    251  N3        -7.3680  -11.9610   35.1520 N.ar   13  DT13       -0.1533
    252  C4        -6.5240  -10.9070   35.4340 C.ar   13  DT13        0.2804
    253  O4        -5.4290  -10.8440   34.8810 O.2    13  DT13       -0.2654
    254  C5        -7.0420   -9.9610   36.3820 C.ar   13  DT13        0.0534
    255  C6        -8.2550  -10.1510   36.9080 C.ar   13  DT13        0.0824
    256  C7        -6.1980   -8.7790   36.7550 C.3    13  DT13        0.0377
    257  P         -9.4190  -12.1040   41.6950 P.3    14  DG14        0.2141
    258  OP1       -9.9790  -12.2370   43.0630 O.3    14  DG14       -0.4373
    259  OP2       -8.3360  -11.1290   41.4390 O.2    14  DG14       -0.5172
    260  O5'       -8.8130  -13.4980   41.1880 O.3    14  DG14       -0.3114
    261  C5'       -9.0600  -14.6810   41.9390 C.3    14  DG14        0.1811
    262  C4'       -8.4050  -15.9140   41.3550 C.3    14  DG14        0.1746
    263  O4'       -8.5940  -15.9680   39.9180 O.3    14  DG14       -0.3327
    264  C3'       -6.9050  -16.0650   41.5740 C.3    14  DG14        0.1558
    265  O3'       -6.6460  -16.6710   42.8290 O.3    14  DG14       -0.3138
    266  C2'       -6.4640  -16.9250   40.3970 C.3    14  DG14        0.0865
    267  C1'       -7.4730  -16.5570   39.3040 C.3    14  DG14        0.2094
    268  N9        -6.9840  -15.5130   38.3470 N.ar   14  DG14       -0.2713
    269  C8        -7.0640  -14.1420   38.3470 C.ar   14  DG14        0.1816
    270  N7        -6.1950  -13.5740   37.5560 N.ar   14  DG14       -0.2173
    271  C5        -5.5000  -14.6310   36.9970 C.ar   14  DG14        0.1748
    272  C6        -4.4330  -14.6420   36.0620 C.ar   14  DG14        0.3023
    273  O6        -3.8740  -13.6770   35.5250 O.2    14  DG14       -0.2633
    274  N1        -4.0170  -15.9360   35.7620 N.ar   14  DG14       -0.1709
    275  C2        -4.5630  -17.0790   36.2960 C.ar   14  DG14        0.2606
    276  N2        -4.0290  -18.2370   35.8850 N.pl3  14  DG14       -0.0859
    277  N3        -5.5540  -17.0840   37.1660 N.ar   14  DG14       -0.1918
    278  C4        -5.9730  -15.8380   37.4730 C.ar   14  DG14        0.1722
    279  P         -4.9210  -16.6780   43.9120 P.3    15  DC15        0.2141
    280  OP1       -4.5270  -17.0570   45.2870 O.3    15  DC15       -0.4373
    281  OP2       -4.9520  -15.2450   43.5260 O.2    15  DC15       -0.5172
    282  O5'       -3.9790  -17.4570   42.9010 O.3    15  DC15       -0.3114
    283  C5'       -3.6290  -18.7960   43.1730 C.3    15  DC15        0.1811
    284  C4'       -2.5170  -19.1140   42.2100 C.3    15  DC15        0.1746
    285  O4'       -2.9700  -18.7590   40.8880 O.3    15  DC15       -0.3327
    286  C3'       -1.3270  -18.2040   42.3930 C.3    15  DC15        0.1558
    287  O3'       -0.5540  -18.7200   43.4550 O.3    15  DC15       -0.3138
    288  C2'       -0.6580  -18.2780   41.0200 C.3    15  DC15        0.0866
    289  C1'       -1.8730  -18.3410   40.1050 C.3    15  DC15        0.2106
    290  N1        -2.1810  -17.1380   39.5290 N.ar   15  DC15       -0.2556
    291  C2        -1.3890  -16.6710   38.4740 C.ar   15  DC15        0.3531
    292  O2        -0.5470  -17.4360   37.9740 O.2    15  DC15       -0.2443
    293  N3        -1.5610  -15.4020   38.0320 N.ar   15  DC15       -0.1739
    294  C4        -2.4760  -14.6160   38.6000 C.ar   15  DC15        0.1759
    295  N4        -2.6110  -13.3730   38.1300 N.pl3  15  DC15       -0.1070
    296  C5        -3.2890  -15.0710   39.6700 C.ar   15  DC15        0.0566
    297  C6        -3.1150  -16.3240   40.1040 C.ar   15  DC15        0.0849
    298  P          0.2390  -17.7400   44.3220 P.3    16  DT16        0.2141
    299  OP1        0.9880  -18.4480   45.3810 O.3    16  DT16       -0.4373
    300  OP2       -0.4180  -16.4440   44.5880 O.2    16  DT16       -0.5172
    301  O5'        1.2820  -17.3840   43.1630 O.3    16  DT16       -0.3114
    302  C5'        2.2270  -18.3420   42.7070 C.3    16  DT16        0.1811
    303  C4'        2.9650  -17.8710   41.4760 C.3    16  DT16        0.1746
    304  O4'        2.0550  -17.4550   40.4190 O.3    16  DT16       -0.3327
    305  C3'        3.8180  -16.6370   41.6690 C.3    16  DT16        0.1558
    306  O3'        4.9960  -16.8910   42.4010 O.3    16  DT16       -0.3138
    307  C2'        4.0560  -16.2080   40.2330 C.3    16  DT16        0.0866
    308  C1'        2.6560  -16.4210   39.6600 C.3    16  DT16        0.2106
    309  N1         1.8400  -15.1200   39.9220 N.ar   16  DT16       -0.2559
    310  C2         1.9710  -14.0270   39.0870 C.ar   16  DT16        0.3545
    311  O2         2.8350  -13.9440   38.2310 O.2    16  DT16       -0.2443
    312  N3         1.0510  -13.0270   39.2900 N.ar   16  DT16       -0.1533
    313  C4         0.0350  -13.0100   40.2230 C.ar   16  DT16        0.2804
    314  O4        -0.7140  -12.0390   40.2840 O.2    16  DT16       -0.2654
    315  C5        -0.0350  -14.1800   41.0530 C.ar   16  DT16        0.0534
    316  C6         0.8480  -15.1670   40.8770 C.ar   16  DT16        0.0824
    317  C7        -1.1060  -14.2570   42.1000 C.3    16  DT16        0.0377
    318  P          5.0930  -16.0260   43.6480 P.3    17  DC17        0.2141
    319  OP1        5.4830  -16.7840   44.8600 O.3    17  DC17       -0.4373
    320  OP2        4.6110  -14.6310   43.7590 O.2    17  DC17       -0.5172
    321  O5'        6.3380  -15.9390   42.6410 O.3    17  DC17       -0.3114
    322  C5'        7.1890  -14.8010   42.5970 C.3    17  DC17        0.1811
    323  C4'        7.4020  -14.3370   41.1760 C.3    17  DC17        0.1746
    324  O4'        6.1220  -14.3110   40.4890 O.3    17  DC17       -0.3327
    325  C3'        7.9330  -12.9210   41.0020 C.3    17  DC17        0.1558
    326  O3'        9.3350  -12.7940   41.1710 O.3    17  DC17       -0.3138
    327  C2'        7.4400  -12.5720   39.6030 C.3    17  DC17        0.0866
    328  C1'        6.0380  -13.1710   39.6600 C.3    17  DC17        0.2106
    329  N1         5.0270  -12.1750   40.2840 N.ar   17  DC17       -0.2556
    330  C2         4.6700  -10.9590   39.6890 C.ar   17  DC17        0.3531
    331  O2         5.3440  -10.5410   38.7320 O.2    17  DC17       -0.2443
    332  N3         3.6050  -10.2760   40.1720 N.ar   17  DC17       -0.1739
    333  C4         2.9110  -10.7630   41.2020 C.ar   17  DC17        0.1759
    334  N4         1.8700  -10.0540   41.6440 N.pl3  17  DC17       -0.1070
    335  C5         3.2560  -11.9930   41.8190 C.ar   17  DC17        0.0566
    336  C6         4.3090  -12.6640   41.3380 C.ar   17  DC17        0.0849
    337  P          9.9280  -11.1940   41.6370 P.3    18  DT18        0.2141
    338  OP1       10.5480  -11.6750   40.3830 O.2    18  DT18       -0.5172
    339  OP2       10.7150  -11.2260   42.8890 O.3    18  DT18       -0.4373
    340  O5'        9.5460   -9.6450   41.4540 O.3    18  DT18       -0.3114
    341  C5'       10.2080   -8.7760   40.5280 C.3    18  DT18        0.1812
    342  C4'        9.4580   -8.7060   39.2180 C.3    18  DT18        0.1775
    343  O4'        8.1870   -9.3430   39.4980 O.3    18  DT18       -0.3326
    344  C3'        9.1390   -7.3040   38.6720 C.3    18  DT18        0.1864
    345  O3'        9.7730   -6.9390   37.4420 O.3    18  DT18       -0.2133
    346  C2'        7.6300   -7.2870   38.4430 C.3    18  DT18        0.0895
    347  C1'        7.0960   -8.5360   39.1140 C.3    18  DT18        0.2107
    348  N1         6.5020   -7.5980   40.6530 N.ar   18  DT18       -0.2559
    349  C2         5.2740   -6.9820   40.5090 C.ar   18  DT18        0.3545
    350  O2         4.7890   -6.7110   39.4250 O.2    18  DT18       -0.2443
    351  N3         4.6290   -6.6890   41.6870 N.ar   18  DT18       -0.1533
    352  C4         5.0800   -6.9470   42.9650 C.ar   18  DT18        0.2804
    353  O4         4.3860   -6.6260   43.9270 O.2    18  DT18       -0.2654
    354  C5         6.3630   -7.5880   43.0310 C.ar   18  DT18        0.0534
    355  C6         7.0110   -7.8830   41.9010 C.ar   18  DT18        0.0824
    356  C7         6.9400   -7.9100   44.3780 C.3    18  DT18        0.0377
    357  P          9.9950   -5.3670   37.2780 P.3    19  DA19        0.3939
    358  OP1        9.4590   -6.4560   36.4320 O.3    19  DA19       -0.1496
    359  OP2       11.3710   -4.8670   37.0750 O.3    19  DA19       -0.1425
    360  O5'        9.0680   -4.0840   37.0280 O.3    19  DA19       -0.2926
    361  C5'        7.6480   -4.1840   37.1130 C.3    19  DA19        0.1828
    362  C4'        6.9320   -3.8630   35.8190 C.3    19  DA19        0.1747
    363  O4'        7.1980   -2.4820   35.4460 O.3    19  DA19       -0.3327
    364  C3'        7.3070   -4.7150   34.6030 C.3    19  DA19        0.1558
    365  O3'        6.1680   -4.8700   33.7530 O.3    19  DA19       -0.3138
    366  C2'        8.3220   -3.8250   33.8910 C.3    19  DA19        0.0865
    367  C1'        7.7000   -2.4500   34.1230 C.3    19  DA19        0.2094
    368  N9         8.8690   -1.5550   34.1260 N.ar   19  DA19       -0.2714
    369  C8        10.0370   -1.7020   34.8270 C.ar   19  DA19        0.1815
    370  N7        10.9810   -0.8670   34.4640 N.ar   19  DA19       -0.2193
    371  C5        10.3930   -0.1210   33.4550 C.ar   19  DA19        0.1518
    372  C6        10.8710    0.9330   32.6560 C.ar   19  DA19        0.1919
    373  N6        12.1040    1.4360   32.7570 N.pl3  19  DA19       -0.1054
    374  N1        10.0290    1.4570   31.7400 N.ar   19  DA19       -0.2040
    375  C2         8.7940    0.9520   31.6400 C.ar   19  DA19        0.2016
    376  N3         8.2300   -0.0340   32.3340 N.ar   19  DA19       -0.2048
    377  C4         9.0930   -0.5340   33.2350 C.ar   19  DA19        0.1691
    378  P          4.9160   -6.2290   33.7270 P.3    20  DT20        0.2141
    379  OP1        4.4800   -5.6180   32.4480 O.2    20  DT20       -0.5172
    380  OP2        3.9330   -6.4340   34.8160 O.3    20  DT20       -0.4373
    381  O5'        5.5370   -7.6930   33.5030 O.3    20  DT20       -0.3114
    382  C5'        6.9100   -7.8950   33.1920 C.3    20  DT20        0.1811
    383  C4'        7.3560   -9.3220   33.4350 C.3    20  DT20        0.1746
    384  O4'        7.4160   -9.6010   34.8590 O.3    20  DT20       -0.3327
    385  C3'        6.4600  -10.4240   32.8930 C.3    20  DT20        0.1558
    386  O3'        6.6490  -10.6660   31.5130 O.3    20  DT20       -0.3138
    387  C2'        6.8670  -11.6160   33.7450 C.3    20  DT20        0.0866
    388  C1'        7.1100  -10.9590   35.1000 C.3    20  DT20        0.2106
    389  N1         5.8840  -10.9520   35.8480 N.ar   20  DT20       -0.2559
    390  C2         5.5290  -12.0620   36.5910 C.ar   20  DT20        0.3545
    391  O2         6.2000  -13.0790   36.6280 O.2    20  DT20       -0.2443
    392  N3         4.3540  -11.9410   37.2920 N.ar   20  DT20       -0.1533
    393  C4         3.5170  -10.8450   37.3250 C.ar   20  DT20        0.2804
    394  O4         2.4940  -10.8850   38.0040 O.2    20  DT20       -0.2654
    395  C5         3.9530   -9.7330   36.5280 C.ar   20  DT20        0.0534
    396  C6         5.0920   -9.8250   35.8360 C.ar   20  DT20        0.0824
    397  C7         3.1090   -8.4930   36.4980 C.3    20  DT20        0.0377
    398  P          5.4790  -11.2800   30.6210 P.3    21  DT21        0.2141
    399  OP1        5.8380  -11.4370   29.1960 O.2    21  DT21       -0.5172
    400  OP2        4.1390  -10.8000   31.0160 O.3    21  DT21       -0.4373
    401  O5'        5.7570  -12.6630   31.3340 O.3    21  DT21       -0.3114
    402  C5'        6.2800  -13.7160   30.5950 C.3    21  DT21        0.1811
    403  C4'        5.7930  -14.9780   31.2580 C.3    21  DT21        0.1746
    404  O4'        5.7820  -14.8590   32.7000 O.3    21  DT21       -0.3327
    405  C3'        4.3560  -15.2890   30.9660 C.3    21  DT21        0.1558
    406  O3'        4.3540  -15.7190   29.6510 O.3    21  DT21       -0.3138
    407  C2'        4.3290  -16.4510   31.9270 C.3    21  DT21        0.0866
    408  C1'        4.9090  -15.8440   33.1970 C.3    21  DT21        0.2106
    409  N1         3.8150  -15.1300   33.9680 N.ar   21  DT21       -0.2559
    410  C2         2.9980  -15.7890   34.8660 C.ar   21  DT21        0.3545
    411  O2         3.0680  -16.9880   35.0730 O.2    21  DT21       -0.2443
    412  N3         2.0880  -14.9920   35.5180 N.ar   21  DT21       -0.1533
    413  C4         1.9180  -13.6320   35.3650 C.ar   21  DT21        0.2804
    414  O4         1.0580  -13.0520   36.0230 O.2    21  DT21       -0.2654
    415  C5         2.8030  -13.0200   34.4140 C.ar   21  DT21        0.0534
    416  C6         3.6970  -13.7720   33.7660 C.ar   21  DT21        0.0824
    417  C7         2.6960  -11.5430   34.1760 C.3    21  DT21        0.0377
    418  P          3.1320  -15.6990   28.8410 P.3    22  DC22        0.2141
    419  OP1        3.5450  -16.1760   27.5000 O.2    22  DC22       -0.5172
    420  OP2        2.5440  -14.3930   29.0720 O.3    22  DC22       -0.4373
    421  O5'        2.1670  -16.8050   29.4820 O.3    22  DC22       -0.3114
    422  C5'        2.5990  -18.1520   29.6690 C.3    22  DC22        0.1811
    423  C4'        1.5370  -18.8790   30.4670 C.3    22  DC22        0.1746
    424  O4'        1.5470  -18.4240   31.8310 O.3    22  DC22       -0.3327
    425  C3'        0.1220  -18.4910   30.0570 C.3    22  DC22        0.1558
    426  O3'       -0.3030  -19.2240   28.9130 O.3    22  DC22       -0.3138
    427  C2'       -0.6480  -18.9680   31.2570 C.3    22  DC22        0.0866
    428  C1'        0.2450  -18.4910   32.3690 C.3    22  DC22        0.2106
    429  N1        -0.0670  -17.1810   32.8950 N.ar   22  DC22       -0.2556
    430  C2        -1.0810  -17.1100   33.8580 C.ar   22  DC22        0.3531
    431  O2        -1.5090  -18.1660   34.3530 O.2    22  DC22       -0.2443
    432  N3        -1.5640  -15.8970   34.2190 N.ar   22  DC22       -0.1739
    433  C4        -1.0750  -14.7900   33.6590 C.ar   22  DC22        0.1759
    434  N4        -1.5820  -13.6180   34.0460 N.pl3  22  DC22       -0.1070
    435  C5        -0.0480  -14.8410   32.6820 C.ar   22  DC22        0.0566
    436  C6         0.4270  -16.0400   32.3280 C.ar   22  DC22        0.0849
    437  P         -1.4920  -18.5740   27.7970 P.3    23  DC23        0.2141
    438  OP1       -1.5400  -19.3830   26.5620 O.2    23  DC23       -0.5172
    439  OP2       -1.5550  -17.0960   27.7340 O.3    23  DC23       -0.4373
    440  O5'       -2.6750  -19.0220   28.7540 O.3    23  DC23       -0.3114
    441  C5'       -3.0730  -20.3600   28.7840 C.3    23  DC23        0.1811
    442  C4'       -4.1800  -20.4380   29.7970 C.3    23  DC23        0.1746
    443  O4'       -3.6950  -19.9400   31.0700 O.3    23  DC23       -0.3327
    444  C3'       -5.3380  -19.5160   29.4810 C.3    23  DC23        0.1558
    445  O3'       -6.1290  -20.1160   28.5010 O.3    23  DC23       -0.3138
    446  C2'       -6.0140  -19.5530   30.8370 C.3    23  DC23        0.0866
    447  C1'       -4.7960  -19.3460   31.7300 C.3    23  DC23        0.2106
    448  N1        -4.5620  -17.9060   31.9760 N.ar   23  DC23       -0.2556
    449  C2        -5.3190  -17.1730   32.8970 C.ar   23  DC23        0.3531
    450  O2        -6.2590  -17.7380   33.4830 O.2    23  DC23       -0.2443
    451  N3        -5.0070  -15.8740   33.1220 N.ar   23  DC23       -0.1739
    452  C4        -3.9900  -15.3100   32.4700 C.ar   23  DC23        0.1759
    453  N4        -3.7200  -14.0270   32.7240 N.pl3  23  DC23       -0.1070
    454  C5        -3.2110  -16.0350   31.5330 C.ar   23  DC23        0.0566
    455  C6        -3.5220  -17.3180   31.3130 C.ar   23  DC23        0.0849
    456  P         -6.7390  -19.3600   27.5480 P.3    24  DT24        0.2141
    457  OP1       -7.0730  -19.9740   26.2440 O.2    24  DT24       -0.5172
    458  OP2       -5.7720  -18.2400   27.6580 O.3    24  DT24       -0.4373
    459  O5'       -8.0790  -18.7720   28.1920 O.3    24  DT24       -0.3114
    460  C5'       -9.1100  -19.6720   28.5550 C.3    24  DT24        0.1811
    461  C4'      -10.0250  -19.0860   29.6010 C.3    24  DT24        0.1746
    462  O4'       -9.2760  -18.7270   30.7940 O.3    24  DT24       -0.3327
    463  C3'      -10.7230  -17.7860   29.2460 C.3    24  DT24        0.1558
    464  O3'      -11.7740  -17.9340   28.3070 O.3    24  DT24       -0.3138
    465  C2'      -11.1760  -17.3350   30.6260 C.3    24  DT24        0.0866
    466  C1'       -9.9160  -17.6410   31.4330 C.3    24  DT24        0.2106
    467  N1        -8.9750  -16.4500   31.4330 N.ar   24  DT24       -0.2559
    468  C2        -9.2590  -15.3790   32.2590 C.ar   24  DT24        0.3545
    469  O2       -10.2980  -15.2820   32.8880 O.2    24  DT24       -0.2443
    470  N3        -8.2780  -14.4190   32.3230 N.ar   24  DT24       -0.1533
    471  C4        -7.0690  -14.4220   31.6590 C.ar   24  DT24        0.2804
    472  O4        -6.2890  -13.4870   31.8180 O.2    24  DT24       -0.2654
    473  C5        -6.8490  -15.5670   30.8200 C.ar   24  DT24        0.0534
    474  C6        -7.7860  -16.5150   30.7400 C.ar   24  DT24        0.0824
    475  C7        -5.5630  -15.6630   30.0540 C.3    24  DT24        0.0377
    476  P        -11.8370  -16.9350   27.0780 P.3    25  DC25        0.2141
    477  OP1      -12.8100  -16.7930   25.9750 O.2    25  DC25       -0.5172
    478  OP2      -10.4220  -16.6210   26.8000 O.3    25  DC25       -0.4373
    479  O5'      -12.3470  -16.0580   28.3020 O.3    25  DC25       -0.3114
    480  C5'      -13.7190  -16.0480   28.6280 C.3    25  DC25        0.1811
    481  C4'      -14.0870  -14.7580   29.3440 C.3    25  DC25        0.1746
    482  O4'      -13.0680  -14.4000   30.3070 O.3    25  DC25       -0.3327
    483  C3'      -14.1540  -13.5180   28.4720 C.3    25  DC25        0.1558
    484  O3'      -15.3710  -13.4340   27.7720 O.3    25  DC25       -0.3138
    485  C2'      -14.1340  -12.4550   29.5420 C.3    25  DC25        0.0866
    486  C1'      -13.0490  -12.9960   30.4490 C.3    25  DC25        0.2106
    487  N1       -11.6260  -12.6200   30.2030 N.ar   25  DC25       -0.2556
    488  C2       -11.2410  -11.3520   30.6550 C.ar   25  DC25        0.3531
    489  O2       -12.0470  -10.6860   31.3260 O.2    25  DC25       -0.2443
    490  N3       -10.0050  -10.8900   30.3480 N.ar   25  DC25       -0.1739
    491  C4        -9.1740  -11.6400   29.6240 C.ar   25  DC25        0.1759
    492  N4        -7.9660  -11.1440   29.3450 N.pl3  25  DC25       -0.1070
    493  C5        -9.5450  -12.9270   29.1560 C.ar   25  DC25        0.0566
    494  C6       -10.7660  -13.3790   29.4620 C.ar   25  DC25        0.0849
    495  P        -15.0730  -13.2600   27.0080 P.3    26  DT26        0.2141
    496  OP1      -16.3280  -13.9330   26.5600 O.3    26  DT26       -0.4373
    497  OP2      -13.8140  -13.5030   26.2720 O.2    26  DT26       -0.5172
    498  O5'      -15.2410  -11.6860   27.1250 O.3    26  DT26       -0.3114
    499  C5'      -16.0840  -11.1410   28.1340 C.3    26  DT26        0.1811
    500  C4'      -15.6180   -9.7720   28.5430 C.3    26  DT26        0.1746
    501  O4'      -14.3420   -9.8370   29.2370 O.3    26  DT26       -0.3327
    502  C3'      -15.3230   -8.8050   27.4210 C.3    26  DT26        0.1558
    503  O3'      -16.4650   -8.3280   26.7500 O.3    26  DT26       -0.3138
    504  C2'      -14.5200   -7.7430   28.1440 C.3    26  DT26        0.0866
    505  C1'      -13.6630   -8.6020   29.0680 C.3    26  DT26        0.2106
    506  N1       -12.3630   -8.8850   28.3740 N.ar   26  DT26       -0.2559
    507  C2       -11.3900   -7.9040   28.3590 C.ar   26  DT26        0.3545
    508  O2       -11.5780   -6.7760   28.7800 O.2    26  DT26       -0.2443
    509  N3       -10.1820   -8.2910   27.8310 N.ar   26  DT26       -0.1533
    510  C4        -9.8570   -9.5330   27.3260 C.ar   26  DT26        0.2804
    511  O4        -8.7270   -9.7300   26.8860 O.2    26  DT26       -0.2654
    512  C5       -10.9200  -10.4970   27.3750 C.ar   26  DT26        0.0534
    513  C6       -12.1050  -10.1470   27.8840 C.ar   26  DT26        0.0824
    514  C7       -10.6650  -11.8780   26.8490 C.3    26  DT26        0.0377
    515  P        -16.4270   -8.4350   25.2310 P.3    27  DG27        0.2141
    516  OP1      -17.8690   -8.5560   24.9210 O.3    27  DG27       -0.4373
    517  OP2      -15.4330   -9.2780   24.5380 O.2    27  DG27       -0.5172
    518  O5'      -15.9830   -6.9200   24.9550 O.3    27  DG27       -0.3114
    519  C5'      -16.6360   -5.8360   25.5910 C.3    27  DG27        0.1811
    520  C4'      -15.6720   -4.6790   25.7490 C.3    27  DG27        0.1746
    521  O4'      -14.4840   -5.1210   26.4610 O.3    27  DG27       -0.3327
    522  C3'      -15.1280   -4.1110   24.4520 C.3    27  DG27        0.1558
    523  O3'      -16.0730   -3.2620   23.7720 O.3    27  DG27       -0.3138
    524  C2'      -13.9090   -3.3690   24.9830 C.3    27  DG27        0.0865
    525  C1'      -13.3760   -4.3480   26.0270 C.3    27  DG27        0.2094
    526  N9       -12.3650   -5.1500   25.3760 N.ar   27  DG27       -0.2713
    527  C8       -12.4920   -6.4800   25.0570 C.ar   27  DG27        0.1816
    528  N7       -11.3980   -7.0010   24.5720 N.ar   27  DG27       -0.2173
    529  C5       -10.4920   -5.9570   24.5710 C.ar   27  DG27        0.1748
    530  C6        -9.1360   -5.9110   24.1550 C.ar   27  DG27        0.3023
    531  O6        -8.4470   -6.8270   23.6890 O.2    27  DG27       -0.2633
    532  N1        -8.5820   -4.6450   24.3240 N.ar   27  DG27       -0.1709
    533  C2        -9.2520   -3.5570   24.8310 C.ar   27  DG27        0.2606
    534  N2        -8.5490   -2.4200   24.9190 N.pl3  27  DG27       -0.0859
    535  N3       -10.5110   -3.5840   25.2200 N.ar   27  DG27       -0.1918
    536  C4       -11.0700   -4.8030   25.0640 C.ar   27  DG27        0.1722
    537  P        -16.0240   -3.1190   22.2070 P.3    28  DT28        0.2141
    538  OP1      -17.2650   -2.6630   21.5450 O.2    28  DT28       -0.5172
    539  OP2      -15.6150   -4.5370   22.1180 O.3    28  DT28       -0.4373
    540  O5'      -14.7640   -2.3230   21.6230 O.3    28  DT28       -0.3114
    541  C5'      -14.7090   -0.9040   21.6630 C.3    28  DT28        0.1811
    542  C4'      -13.2860   -0.4030   21.6920 C.3    28  DT28        0.1746
    543  O4'      -12.4470   -1.3350   22.4230 O.3    28  DT28       -0.3327
    544  C3'      -12.5920   -0.2720   20.3450 C.3    28  DT28        0.1558
    545  O3'      -12.9440    0.9230   19.6720 O.3    28  DT28       -0.3138
    546  C2'      -11.1150   -0.3470   20.7130 C.3    28  DT28        0.0866
    547  C1'      -11.1400   -1.3280   21.8860 C.3    28  DT28        0.2106
    548  N1       -10.7850   -2.6970   21.3860 N.ar   28  DT28       -0.2576
    549  C2        -9.4850   -2.9980   21.0240 C.ar   28  DT28        0.3272
    550  O2        -8.6100   -2.1560   20.9310 O.3    28  DT28       -0.3523
    551  N3        -9.2460   -4.3270   20.7720 N.ar   28  DT28       -0.1552
    552  C4       -10.1540   -5.3620   20.8440 C.ar   28  DT28        0.2804
    553  O4        -9.7890   -6.5070   20.5880 O.2    28  DT28       -0.2654
    554  C5       -11.4820   -4.9690   21.2250 C.ar   28  DT28        0.0534
    555  C6       -11.7420   -3.6830   21.4760 C.ar   28  DT28        0.0824
    556  C7       -12.5430   -6.0240   21.3310 C.3    28  DT28        0.0377
    557  P        -12.9040    1.0360   17.9640 P.3    29  DT29        0.2141
    558  OP1      -13.3230    2.4230   17.6530 O.3    29  DT29       -0.4373
    559  OP2      -12.9790   -0.0240   16.9380 O.2    29  DT29       -0.5172
    560  O5'      -11.3640    1.0270   18.3830 O.3    29  DT29       -0.3114
    561  C5'      -10.9270    1.9890   19.3280 C.3    29  DT29        0.1811
    562  C4'       -9.4500    1.8560   19.5780 C.3    29  DT29        0.1745
    563  O4'       -9.1960    0.6700   20.3710 O.3    29  DT29       -0.3335
    564  C3'       -8.6150    1.6610   18.3260 C.3    29  DT29        0.1556
    565  O3'       -8.3490    2.8930   17.6800 O.3    29  DT29       -0.3139
    566  C2'       -7.3800    0.9330   18.8490 C.3    29  DT29        0.0853
    567  C1'       -7.9760    0.0860   19.9720 C.3    29  DT29        0.2186
    568  N1        -8.1790   -1.2980   19.5700 N.am   29  DT29       -0.1369
    569  C2        -7.0500   -2.0950   19.5410 C.2    29  DT29        0.3508
    570  O2        -5.9780   -1.7450   20.0000 O.2    29  DT29       -0.2485
    571  N3        -7.2220   -3.3240   18.9510 N.am   29  DT29       -0.1224
    572  C4        -8.3830   -3.8240   18.3990 C.2    29  DT29        0.2699
    573  O4        -8.3820   -4.9490   17.9050 O.2    29  DT29       -0.2682
    574  C5        -9.5100   -2.9370   18.4670 C.2    29  DT29        0.0501
    575  C6        -9.3710   -1.7360   19.0360 C.2    29  DT29        0.0910
    576  C7       -10.8200   -3.3900   17.8930 C.3    29  DT29        0.0373
    577  P         -7.5030    2.9590   16.1390 P.3    30  DG30        0.2141
    578  OP1       -8.0120    4.2380   15.5910 O.3    30  DG30       -0.4373
    579  OP2       -7.6000    1.7150   15.3430 O.2    30  DG30       -0.5172
    580  O5'       -5.9500    3.0860   16.4990 O.3    30  DG30       -0.3114
    581  C5'       -5.0250    2.7090   15.4970 C.3    30  DG30        0.1811
    582  C4'       -3.8520    1.9450   16.0470 C.3    30  DG30        0.1746
    583  O4'       -4.2610    1.0400   17.1050 O.3    30  DG30       -0.3327
    584  C3'       -3.2010    1.0050   15.0520 C.3    30  DG30        0.1558
    585  O3'       -2.4520    1.6550   14.0460 O.3    30  DG30       -0.3138
    586  C2'       -2.4180    0.0820   15.9690 C.3    30  DG30        0.0865
    587  C1'       -3.4910   -0.1470   17.0290 C.3    30  DG30        0.2094
    588  N9        -4.4470   -1.3430   16.5120 N.ar   30  DG30       -0.2713
    589  C8        -5.8070   -1.2350   16.3520 C.ar   30  DG30        0.1816
    590  N7        -6.4000   -2.3860   16.1850 N.ar   30  DG30       -0.2173
    591  C5        -5.3740   -3.3110   16.2390 C.ar   30  DG30        0.1748
    592  C6        -5.3980   -4.7250   16.1200 C.ar   30  DG30        0.3023
    593  O6        -6.3750   -5.4610   15.9370 O.2    30  DG30       -0.2633
    594  N1        -4.1260   -5.2780   16.2330 N.ar   30  DG30       -0.1709
    595  C2        -2.9720   -4.5590   16.4370 C.ar   30  DG30        0.2606
    596  N2        -1.8400   -5.2700   16.5220 N.pl3  30  DG30       -0.0859
    597  N3        -2.9340   -3.2460   16.5490 N.ar   30  DG30       -0.1918
    598  C4        -4.1580   -2.6860   16.4410 C.ar   30  DG30        0.1722
    599  P         -2.9730    1.5920   12.5610 P.3    31  DA31        0.2141
    600  OP1       -2.6870    2.3330   11.3130 O.2    31  DA31       -0.5172
    601  OP2       -4.2740    0.9310   12.8210 O.3    31  DA31       -0.4373
    602  O5'       -1.9170    0.3990   12.6290 O.3    31  DA31       -0.3114
    603  C5'       -0.5690    0.5990   12.2270 C.3    31  DA31        0.1811
    604  C4'        0.0800   -0.7460   12.0830 C.3    31  DA31        0.1746
    605  O4'       -0.4680   -1.5940   13.1210 O.3    31  DA31       -0.3327
    606  C3'       -0.2250   -1.4490   10.7710 C.3    31  DA31        0.1558
    607  O3'        0.7980   -1.1990    9.8220 O.3    31  DA31       -0.3138
    608  C2'       -0.3520   -2.9220   11.1410 C.3    31  DA31        0.0865
    609  C1'       -0.7160   -2.8850   12.6300 C.3    31  DA31        0.2094
    610  N9        -1.9050   -3.2660   12.9340 N.ar   31  DA31       -0.2714
    611  C8        -2.9640   -2.4170   13.1220 C.ar   31  DA31        0.1815
    612  N7        -4.1290   -3.0210   13.1370 N.ar   31  DA31       -0.2193
    613  C5        -3.8130   -4.3570   12.9460 C.ar   31  DA31        0.1518
    614  C6        -4.6070   -5.5140   12.8640 C.ar   31  DA31        0.1919
    615  N6        -5.9380   -5.5060   12.9710 N.pl3  31  DA31       -0.1054
    616  N1        -3.9790   -6.6920   12.6670 N.ar   31  DA31       -0.2040
    617  C2        -2.6450   -6.6990   12.5610 C.ar   31  DA31        0.2016
    618  N3        -1.7920   -5.6790   12.6220 N.ar   31  DA31       -0.2048
    619  C4        -2.4470   -4.5230   12.8180 C.ar   31  DA31        0.1691
    620  P          0.4930   -0.7670    8.6590 P.3    32  DA32        0.2141
    621  OP1        1.6870   -0.1100    8.0630 O.2    32  DA32       -0.5172
    622  OP2       -0.8640   -0.3040    8.2580 O.3    32  DA32       -0.4373
    623  O5'        0.6030   -2.3370    8.3910 O.3    32  DA32       -0.3114
    624  C5'        1.8570   -2.9380    8.0420 C.3    32  DA32        0.1811
    625  C4'        1.8280   -4.4510    8.2280 C.3    32  DA32        0.1746
    626  O4'        1.1720   -4.7730    9.4880 O.3    32  DA32       -0.3327
    627  C3'        1.0880   -5.3230    7.2160 C.3    32  DA32        0.1558
    628  O3'        1.8260   -5.6310    6.0380 O.3    32  DA32       -0.3138
    629  C2'        0.8460   -6.6000    8.0080 C.3    32  DA32        0.0865
    630  C1'        0.5630   -6.0520    9.4010 C.3    32  DA32        0.2094
    631  N9        -0.8590   -5.9130    9.5750 N.ar   32  DA32       -0.2714
    632  C8        -1.5850   -4.7570    9.4500 C.ar   32  DA32        0.1815
    633  N7        -2.8470   -4.8850    9.7860 N.ar   32  DA32       -0.2193
    634  C5        -2.9570   -6.2160   10.1560 C.ar   32  DA32        0.1518
    635  C6        -4.0430   -6.9830   10.6150 C.ar   32  DA32        0.1919
    636  N6        -5.2730   -6.4950   10.7860 N.pl3  32  DA32       -0.1054
    637  N1        -3.8160   -8.2840   10.8950 N.ar   32  DA32       -0.2040
    638  C2        -2.5820   -8.7730   10.7240 C.ar   32  DA32        0.2016
    639  N3        -1.4840   -8.1520   10.3010 N.ar   32  DA32       -0.2048
    640  C4        -1.7420   -6.8620   10.0300 C.ar   32  DA32        0.1691
    641  P          1.0710   -5.9910    4.8360 P.3    33  DG33        0.2141
    642  OP1        1.6450   -6.4510    3.5550 O.2    33  DG33       -0.5172
    643  OP2       -0.1210   -5.1150    4.8490 O.3    33  DG33       -0.4373
    644  O5'        0.6310   -7.2770    5.6790 O.3    33  DG33       -0.3114
    645  C5'        1.4430   -8.4420    5.6710 C.3    33  DG33        0.1811
    646  C4'        0.5930   -9.6830    5.6330 C.3    33  DG33        0.1746
    647  O4'       -0.3250   -9.6550    6.7560 O.3    33  DG33       -0.3327
    648  C3'       -0.3030   -9.8190    4.4150 C.3    33  DG33        0.1558
    649  O3'        0.3590  -10.4040    3.3090 O.3    33  DG33       -0.3138
    650  C2'       -1.4500  -10.6680    4.9400 C.3    33  DG33        0.0865
    651  C1'       -1.5920  -10.1380    6.3650 C.3    33  DG33        0.2094
    652  N9        -2.5200   -9.1260    6.4410 N.ar   33  DG33       -0.2713
    653  C8        -2.3460   -7.7690    6.3150 C.ar   33  DG33        0.1816
    654  N7        -3.4660   -7.1200    6.1450 N.ar   33  DG33       -0.2173
    655  C5        -4.4380   -8.1030    6.1620 C.ar   33  DG33        0.1748
    656  C6        -5.8470   -8.0110    6.0240 C.ar   33  DG33        0.3023
    657  O6        -6.5350   -6.9960    5.8540 O.2    33  DG33       -0.2633
    658  N1        -6.4610   -9.2580    6.1000 N.ar   33  DG33       -0.1709
    659  C2        -5.7990  -10.4480    6.2870 C.ar   33  DG33        0.2606
    660  N2        -6.5620  -11.5480    6.3350 N.pl3  33  DG33       -0.0859
    661  N3        -4.4910  -10.5500    6.4160 N.ar   33  DG33       -0.1918
    662  C4        -3.8740   -9.3510    6.3440 C.ar   33  DG33        0.1722
    663  P         -0.0900   -9.9630    1.5710 P.3    34  DA34        0.2141
    664  OP1        0.8060   -9.9360    0.3890 O.2    34  DA34       -0.5172
    665  OP2       -1.0880   -8.8900    1.7620 O.3    34  DA34       -0.4373
    666  O5'       -0.9260  -11.3090    1.4750 O.3    34  DA34       -0.3114
    667  C5'       -1.9900  -11.4020    0.5480 C.3    34  DA34        0.1811
    668  C4'       -3.1130  -12.2380    1.1040 C.3    34  DA34        0.1746
    669  O4'       -3.4920  -11.7830    2.4250 O.3    34  DA34       -0.3327
    670  C3'       -4.3770  -12.1020    0.2840 C.3    34  DA34        0.1558
    671  O3'       -4.2920  -12.9400   -0.8470 O.3    34  DA34       -0.3138
    672  C2'       -5.4740  -12.4630    1.2760 C.3    34  DA34        0.0865
    673  C1'       -4.8970  -11.9020    2.5760 C.3    34  DA34        0.2094
    674  N9        -5.3660  -10.5490    2.8050 N.ar   34  DA34       -0.2714
    675  C8        -4.5560   -9.4680    3.0350 C.ar   34  DA34        0.1815
    676  N7        -5.2120   -8.3550    3.2630 N.ar   34  DA34       -0.2193
    677  C5        -6.5430   -8.7300    3.1760 C.ar   34  DA34        0.1518
    678  C6        -7.7410   -8.0080    3.3190 C.ar   34  DA34        0.1919
    679  N6        -7.7880   -6.7020    3.5930 N.pl3  34  DA34       -0.1054
    680  N1        -8.9010   -8.6820    3.1700 N.ar   34  DA34       -0.2040
    681  C2        -8.8520   -9.9910    2.8960 C.ar   34  DA34        0.2016
    682  N3        -7.7900  -10.7780    2.7400 N.ar   34  DA34       -0.2048
    683  C4        -6.6540  -10.0780    2.8930 C.ar   34  DA34        0.1691
    684  P         -4.0130  -12.3750   -2.3510 P.3    35  DA35        0.2141
    685  OP1       -3.7290  -13.3080   -3.4710 O.2    35  DA35       -0.5172
    686  OP2       -3.4470  -11.0000   -2.3710 O.3    35  DA35       -0.4373
    687  O5'       -5.5920  -12.2810   -2.1850 O.3    35  DA35       -0.3114
    688  C5'       -6.3900  -13.4600   -2.1460 C.3    35  DA35        0.1811
    689  C4'       -7.8540  -13.1000   -2.1350 C.3    35  DA35        0.1746
    690  O4'       -8.2140  -12.5070   -0.8600 O.3    35  DA35       -0.3327
    691  C3'       -8.2490  -12.0550   -3.1610 C.3    35  DA35        0.1558
    692  O3'       -8.4860  -12.6620   -4.4190 O.3    35  DA35       -0.3138
    693  C2'       -9.5160  -11.4770   -2.5490 C.3    35  DA35        0.0865
    694  C1'       -9.1420  -11.4550   -1.0680 C.3    35  DA35        0.2094
    695  N9        -8.4960  -10.2110   -0.6550 N.ar   35  DA35       -0.2714
    696  C8        -7.1490   -9.9600   -0.6290 C.ar   35  DA35        0.1815
    697  N7        -6.8420   -8.7690   -0.1720 N.ar   35  DA35       -0.2193
    698  C5        -8.0710   -8.1990    0.1200 C.ar   35  DA35        0.1518
    699  C6        -8.4310   -6.9430    0.6390 C.ar   35  DA35        0.1919
    700  N6        -7.5470   -5.9980    0.9680 N.pl3  35  DA35       -0.1054
    701  N1        -9.7460   -6.6890    0.8090 N.ar   35  DA35       -0.2040
    702  C2       -10.6310   -7.6370    0.4800 C.ar   35  DA35        0.2016
    703  N3       -10.4140   -8.8540   -0.0140 N.ar   35  DA35       -0.2048
    704  C4        -9.0990   -9.0750   -0.1730 C.ar   35  DA35        0.1691
    705  P         -8.2010  -11.7620   -5.8390 P.3    36  DC36        0.2141
    706  OP1       -7.8580  -12.3100   -7.1750 O.2    36  DC36       -0.5172
    707  OP2       -7.1190  -11.3770   -4.9130 O.3    36  DC36       -0.4373
    708  O5'       -9.1340  -10.4780   -6.0230 O.3    36  DC36       -0.3114
    709  C5'      -10.3600  -10.5340   -6.7610 C.3    36  DC36        0.1811
    710  C4'      -11.3670   -9.5630   -6.1780 C.3    36  DC36        0.1746
    711  O4'      -11.1860   -9.5190   -4.7370 O.3    36  DC36       -0.3327
    712  C3'      -11.2860   -8.0980   -6.5780 C.3    36  DC36        0.1558
    713  O3'      -11.9280   -7.8450   -7.8240 O.3    36  DC36       -0.3138
    714  C2'      -12.0550   -7.4350   -5.4470 C.3    36  DC36        0.0866
    715  C1'      -11.5640   -8.2440   -4.2480 C.3    36  DC36        0.2106
    716  N1       -10.3120   -7.6130   -3.6020 N.ar   36  DC36       -0.2556
    717  C2       -10.4840   -6.4760   -2.8030 C.ar   36  DC36        0.3531
    718  O2       -11.6300   -6.0190   -2.6520 O.2    36  DC36       -0.2443
    719  N3        -9.4010   -5.9100   -2.2200 N.ar   36  DC36       -0.1739
    720  C4        -8.1900   -6.4340   -2.4100 C.ar   36  DC36        0.1759
    721  N4        -7.1520   -5.8420   -1.8160 N.pl3  36  DC36       -0.1070
    722  C5        -7.9940   -7.5850   -3.2160 C.ar   36  DC36        0.0566
    723  C6        -9.0670   -8.1420   -3.7900 C.ar   36  DC36        0.0849
    724  P        -11.6910   -6.4280   -8.5990 P.3    37  DC37        0.2141
    725  OP1      -12.5790   -6.5880   -9.7720 O.2    37  DC37       -0.5172
    726  OP2      -10.2430   -6.1720   -8.7640 O.3    37  DC37       -0.4373
    727  O5'      -12.2140   -5.1990   -7.7190 O.3    37  DC37       -0.3114
    728  C5'      -13.6100   -5.0760   -7.4890 C.3    37  DC37        0.1811
    729  C4'      -13.9430   -3.9470   -6.5440 C.3    37  DC37        0.1746
    730  O4'      -13.3980   -4.2240   -5.2260 O.3    37  DC37       -0.3327
    731  C3'      -13.3690   -2.5800   -6.8840 C.3    37  DC37        0.1558
    732  O3'      -14.0790   -1.9010   -7.9020 O.3    37  DC37       -0.3138
    733  C2'      -13.4280   -1.8780   -5.5370 C.3    37  DC37        0.0866
    734  C1'      -13.0010   -3.0150   -4.6120 C.3    37  DC37        0.2106
    735  N1       -11.5130   -3.0680   -4.3830 N.ar   37  DC37       -0.2556
    736  C2       -10.9630   -2.3610   -3.3080 C.ar   37  DC37        0.3531
    737  O2       -11.6690   -1.5280   -2.7160 O.2    37  DC37       -0.2443
    738  N3        -9.6800   -2.6040   -2.9460 N.ar   37  DC37       -0.1739
    739  C4        -8.9590   -3.5070   -3.6120 C.ar   37  DC37        0.1759
    740  N4        -7.6990   -3.7120   -3.2200 N.pl3  37  DC37       -0.1070
    741  C5        -9.4980   -4.2340   -4.7040 C.ar   37  DC37        0.0566
    742  C6       -10.7650   -3.9910   -5.0580 C.ar   37  DC37        0.0849
    743  P        -13.2180   -1.2580   -9.0720 P.3    38  DA38        0.2141
    744  OP1      -14.0100   -0.4390  -10.0220 O.2    38  DA38       -0.5172
    745  OP2      -11.9130   -1.8250   -9.5070 O.3    38  DA38       -0.4373
    746  O5'      -12.9190   -0.4140   -7.7520 O.3    38  DA38       -0.3114
    747  C5'      -13.8620    0.5240   -7.2410 C.3    38  DA38        0.1811
    748  C4'      -13.1710    1.4810   -6.3080 C.3    38  DA38        0.1746
    749  O4'      -12.6960    0.7420   -5.1600 O.3    38  DA38       -0.3327
    750  C3'      -11.9220    2.1470   -6.8670 C.3    38  DA38        0.1558
    751  O3'      -12.2240    3.3360   -7.5760 O.3    38  DA38       -0.3138
    752  C2'      -11.1280    2.4700   -5.6150 C.3    38  DA38        0.0865
    753  C1'      -11.4510    1.2610   -4.7360 C.3    38  DA38        0.2094
    754  N9       -10.3940    0.2000   -4.8930 N.ar   38  DA38       -0.2714
    755  C8       -10.4100   -0.9620   -5.6190 C.ar   38  DA38        0.1815
    756  N7        -9.2800   -1.6270   -5.5780 N.ar   38  DA38       -0.2193
    757  C5        -8.4660   -0.8490   -4.7710 C.ar   38  DA38        0.1518
    758  C6        -7.1380   -1.0050   -4.3360 C.ar   38  DA38        0.1919
    759  N6        -6.3680   -2.0440   -4.6690 N.pl3  38  DA38       -0.1054
    760  N1        -6.6240   -0.0450   -3.5380 N.ar   38  DA38       -0.2040
    761  C2        -7.3960    0.9950   -3.2050 C.ar   38  DA38        0.2016
    762  N3        -8.6560    1.2520   -3.5490 N.ar   38  DA38       -0.2048
    763  C4        -9.1380    0.2800   -4.3430 C.ar   38  DA38        0.1691
    764  P        -11.2830    3.7510   -8.9690 P.3    39  DC39        0.2141
    765  OP1      -11.9850    4.4270  -10.0940 O.2    39  DC39       -0.5172
    766  OP2      -10.5160    2.4940   -9.2180 O.3    39  DC39       -0.4373
    767  O5'      -10.2880    4.7650   -8.2660 O.3    39  DC39       -0.3114
    768  C5'      -10.7820    5.6930   -7.3240 C.3    39  DC39        0.1812
    769  C4'       -9.8150    5.8200   -6.1860 C.3    39  DC39        0.1775
    770  O4'       -9.6270    4.5140   -5.5770 O.3    39  DC39       -0.3326
    771  C3'       -8.3970    6.2230   -6.5620 C.3    39  DC39        0.1859
    772  O3'       -8.2260    7.6080   -6.8280 O.3    39  DC39       -0.2202
    773  C2'       -7.5950    5.7490   -5.3590 C.3    39  DC39        0.0895
    774  C1'       -8.3510    4.4820   -4.9550 C.3    39  DC39        0.2107
    775  N1        -7.6460    3.3410   -5.4290 N.ar   39  DC39       -0.2556
    776  C2        -6.5540    2.8050   -4.7370 C.ar   39  DC39        0.3531
    777  O2        -6.1610    3.3770   -3.7060 O.2    39  DC39       -0.2443
    778  N3        -5.9590    1.6840   -5.2100 N.ar   39  DC39       -0.1739
    779  C4        -6.4160    1.1050   -6.3220 C.ar   39  DC39        0.1759
    780  N4        -5.7980    0.0020   -6.7500 N.pl3  39  DC39       -0.1070
    781  C5        -7.5210    1.6320   -7.0370 C.ar   39  DC39        0.0566
    782  C6        -8.1050    2.7400   -6.5670 C.ar   39  DC39        0.0849
    783  P         -7.5090    8.0110   -8.1970 P.3    40  DT40        0.4149
    784  OP1       -7.6970    9.4320   -8.5620 O.2    40  DT40       -0.2668
    785  OP2       -6.7740    7.1060   -9.1080 O.3    40  DT40       -0.1481
    786  O5'       -6.8430    7.9230   -6.7440 O.3    40  DT40       -0.2177
    787  C5'       -6.2230    9.0430   -6.1350 C.3    40  DT40        0.2140
    788  C4'       -4.9150    8.6090   -5.5010 C.3    40  DT40        0.1776
    789  O4'       -5.0150    7.2510   -5.0000 O.3    40  DT40       -0.3326
    790  C3'       -3.7530    8.5330   -6.4730 C.3    40  DT40        0.1559
    791  O3'       -3.2210    9.8210   -6.6690 O.3    40  DT40       -0.3138
    792  C2'       -2.7850    7.6320   -5.7160 C.3    40  DT40        0.0866
    793  C1'       -3.7310    6.6460   -5.0310 C.3    40  DT40        0.2106
    794  N1        -3.8230    5.3830   -5.7360 N.ar   40  DT40       -0.2559
    795  C2        -2.8790    4.3950   -5.5340 C.ar   40  DT40        0.3545
    796  O2        -2.0170    4.4650   -4.6760 O.2    40  DT40       -0.2443
    797  N3        -2.9800    3.3140   -6.3760 N.ar   40  DT40       -0.1533
    798  C4        -3.9090    3.1270   -7.3780 C.ar   40  DT40        0.2804
    799  O4        -3.8730    2.1010   -8.0530 O.2    40  DT40       -0.2654
    800  C5        -4.8540    4.1970   -7.5260 C.ar   40  DT40        0.0534
    801  C6        -4.7790    5.2600   -6.7210 C.ar   40  DT40        0.0824
    802  C7        -5.9050    4.0870   -8.5900 C.3    40  DT40        0.0377
    803  P         -2.3010   10.0190   -7.8590 P.3    41  DT41        0.2141
    804  OP1       -2.2290   11.4880   -8.0520 O.3    41  DT41       -0.4373
    805  OP2       -3.1730    9.1910   -8.7250 O.2    41  DT41       -0.5172
    806  O5'       -0.8130    9.4410   -7.9190 O.3    41  DT41       -0.3114
    807  C5'        0.2190   10.1150   -7.2250 C.3    41  DT41        0.1811
    808  C4'        1.3330    9.1430   -6.9000 C.3    41  DT41        0.1746
    809  O4'        0.7600    7.9260   -6.3620 O.3    41  DT41       -0.3327
    810  C3'        2.1430    8.6450   -8.0840 C.3    41  DT41        0.1558
    811  O3'        3.1510    9.5610   -8.4360 O.3    41  DT41       -0.3138
    812  C2'        2.7650    7.4100   -7.4590 C.3    41  DT41        0.0866
    813  C1'        1.5600    6.8260   -6.7380 C.3    41  DT41        0.2106
    814  N1         0.7590    5.9520   -7.6740 N.ar   41  DT41       -0.2559
    815  C2         1.1620    4.6580   -7.9430 C.ar   41  DT41        0.3545
    816  O2         2.2320    4.2060   -7.5780 O.2    41  DT41       -0.2443
    817  N3         0.2620    3.9070   -8.6600 N.ar   41  DT41       -0.1533
    818  C4        -0.9720    4.3120   -9.1240 C.ar   41  DT41        0.2804
    819  O4        -1.6700    3.5210   -9.7550 O.2    41  DT41       -0.2654
    820  C5        -1.3170    5.6680   -8.8050 C.ar   41  DT41        0.0534
    821  C6        -0.4610    6.4210   -8.1090 C.ar   41  DT41        0.0824
    822  C7        -2.6400    6.2030   -9.2670 C.3    41  DT41        0.0377
    823  P          3.3510    9.7700   -9.8450 P.3    42  DC42        0.2141
    824  OP1        4.2200   10.9500   -9.6500 O.3    42  DC42       -0.4373
    825  OP2        2.2540    9.8100  -10.8370 O.2    42  DC42       -0.5172
    826  O5'        4.2250    8.5090  -10.2120 O.3    42  DC42       -0.3114
    827  C5'        5.5620    8.5430   -9.8600 C.3    42  DC42        0.1811
    828  C4'        6.1200    7.1790  -10.1340 C.3    42  DC42        0.1746
    829  O4'        5.1780    6.1680   -9.7250 O.3    42  DC42       -0.3327
    830  C3'        6.2940    6.8440  -11.5960 C.3    42  DC42        0.1558
    831  O3'        7.4340    7.4750  -12.0660 O.3    42  DC42       -0.3138
    832  C2'        6.4740    5.3470  -11.4910 C.3    42  DC42        0.0866
    833  C1'        5.3140    5.0440  -10.5600 C.3    42  DC42        0.2106
    834  N1         4.0380    4.8580  -11.2590 N.ar   42  DC42       -0.2556
    835  C2         3.6680    3.6100  -11.7760 C.ar   42  DC42        0.3531
    836  O2         4.4790    2.6710  -11.7100 O.2    42  DC42       -0.2443
    837  N3         2.4410    3.4640  -12.3310 N.ar   42  DC42       -0.1739
    838  C4         1.6030    4.5000  -12.3810 C.ar   42  DC42        0.1759
    839  N4         0.4050    4.3090  -12.9370 N.pl3  42  DC42       -0.1070
    840  C5         1.9590    5.7720  -11.8630 C.ar   42  DC42        0.0566
    841  C6         3.1720    5.9130  -11.3160 C.ar   42  DC42        0.0849
    842  P          7.6320    7.6560  -13.6750 P.3    43  DC43        0.2141
    843  OP1        8.6020    8.7690  -13.7740 O.3    43  DC43       -0.4373
    844  OP2        6.6370    7.4220  -14.7460 O.2    43  DC43       -0.5172
    845  O5'        8.4130    6.2660  -13.5530 O.3    43  DC43       -0.3114
    846  C5'        9.0210    5.7020  -14.7010 C.3    43  DC43        0.1811
    847  C4'        9.1500    4.2110  -14.5510 C.3    43  DC43        0.1746
    848  O4'        8.0270    3.6980  -13.7880 O.3    43  DC43       -0.3327
    849  C3'        9.1080    3.4300  -15.8500 C.3    43  DC43        0.1558
    850  O3'       10.3550    3.4150  -16.5190 O.3    43  DC43       -0.3138
    851  C2'        8.6190    2.0630  -15.3920 C.3    43  DC43        0.0866
    852  C1'        7.6000    2.4650  -14.3280 C.3    43  DC43        0.2106
    853  N1         6.1500    2.6990  -14.9710 N.ar   43  DC43       -0.2556
    854  C2         5.4570    1.5740  -15.4310 C.ar   43  DC43        0.3531
    855  O2         6.0570    0.4870  -15.4950 O.2    43  DC43       -0.2443
    856  N3         4.1580    1.7020  -15.7920 N.ar   43  DC43       -0.1739
    857  C4         3.5560    2.8890  -15.7080 C.ar   43  DC43        0.1759
    858  N4         2.2740    2.9660  -16.0760 N.pl3  43  DC43       -0.1070
    859  C5         4.2410    4.0410  -15.2450 C.ar   43  DC43        0.0566
    860  C6         5.5230    3.9100  -14.8890 C.ar   43  DC43        0.0849
    861  P         10.2660    3.8940  -17.6170 P.3    44  DG44        0.2141
    862  OP1       11.7190    3.7460  -17.8820 O.3    44  DG44       -0.4373
    863  OP2        9.5840    5.1620  -17.9570 O.2    44  DG44       -0.5172
    864  O5'        9.4790    2.7040  -18.3300 O.3    44  DG44       -0.3114
    865  C5'       10.0050    1.3640  -18.3120 C.3    44  DG44        0.1811
    866  C4'        8.9940    0.3840  -18.8630 C.3    44  DG44        0.1746
    867  O4'        7.7990    0.3860  -18.0410 O.3    44  DG44       -0.3327
    868  C3'        8.4280    0.6940  -20.2380 C.3    44  DG44        0.1558
    869  O3'        9.3470    0.3740  -21.2810 O.3    44  DG44       -0.3138
    870  C2'        7.1930   -0.2040  -20.2650 C.3    44  DG44        0.0865
    871  C1'        6.7120   -0.1040  -18.8140 C.3    44  DG44        0.2094
    872  N9         5.7330    0.6060  -18.6600 N.ar   44  DG44       -0.2713
    873  C8         5.7570    1.8700  -18.1220 C.ar   44  DG44        0.1816
    874  N7         4.6290    2.5110  -18.2600 N.ar   44  DG44       -0.2173
    875  C5         3.8080    1.6210  -18.9270 C.ar   44  DG44        0.1748
    876  C6         2.4620    1.7510  -19.3580 C.ar   44  DG44        0.3023
    877  O6         1.7060    2.7210  -19.2260 O.2    44  DG44       -0.2633
    878  N1         2.0090    0.6020  -20.0010 N.ar   44  DG44       -0.1709
    879  C2         2.7580   -0.5320  -20.2030 C.ar   44  DG44        0.2606
    880  N2         2.1470   -1.5380  -20.8420 N.pl3  44  DG44       -0.0859
    881  N3         4.0090   -0.6670  -19.8080 N.ar   44  DG44       -0.1918
    882  C4         4.4710    0.4360  -19.1830 C.ar   44  DG44        0.1722
    883  P          9.7140    1.4120  -22.0180 P.3    45  DG45        0.2141
    884  OP1       10.9450    0.9240  -22.6640 O.2    45  DG45       -0.5172
    885  OP2        9.5230    2.8580  -21.7640 O.3    45  DG45       -0.4373
    886  O5'        8.4330    0.9240  -22.8470 O.3    45  DG45       -0.3114
    887  C5'        8.5970   -0.1200  -23.7800 C.3    45  DG45        0.1811
    888  C4'        7.2860   -0.6170  -24.3830 C.3    45  DG45        0.1746
    889  O4'        6.2120   -0.6470  -23.4000 O.3    45  DG45       -0.3327
    890  C3'        6.7370    0.2660  -25.4950 C.3    45  DG45        0.1558
    891  O3'        7.4350    0.0670  -26.7130 O.3    45  DG45       -0.3138
    892  C2'        5.3010   -0.2230  -25.5440 C.3    45  DG45        0.0865
    893  C1'        4.9880   -0.3430  -24.0550 C.3    45  DG45        0.2094
    894  N9         4.4280    0.9320  -23.5140 N.ar   45  DG45       -0.2713
    895  C8         5.0190    1.7950  -22.6230 C.ar   45  DG45        0.1816
    896  N7         4.2610    2.8100  -22.3080 N.ar   45  DG45       -0.2173
    897  C5         3.0990    2.6070  -23.0290 C.ar   45  DG45        0.1748
    898  C6         1.9100    3.3780  -23.0990 C.ar   45  DG45        0.3023
    899  O6         1.6460    4.4330  -22.5100 O.2    45  DG45       -0.2633
    900  N1         0.9730    2.8110  -23.9590 N.ar   45  DG45       -0.1709
    901  C2         1.1580    1.6460  -24.6630 C.ar   45  DG45        0.2606
    902  N2         0.1390    1.2570  -25.4410 N.pl3  45  DG45       -0.0859
    903  N3         2.2570    0.9200  -24.6090 N.ar   45  DG45       -0.1918
    904  C4         3.1820    1.4510  -23.7810 C.ar   45  DG45        0.1722
    905  P          7.4360    1.2450  -27.7370 P.3    46  DA46        0.2141
    906  OP1        8.5600    1.1220  -28.7040 O.2    46  DA46       -0.5172
    907  OP2        7.3400    2.4520  -26.8670 O.3    46  DA46       -0.4373
    908  O5'        6.0720    1.1240  -28.5470 O.3    46  DA46       -0.3114
    909  C5'        5.7950   -0.0320  -29.3610 C.3    46  DA46        0.1811
    910  C4'        4.3890    0.0420  -29.8990 C.3    46  DA46        0.1746
    911  O4'        3.4310   -0.1470  -28.8160 O.3    46  DA46       -0.3327
    912  C3'        4.0290    1.3980  -30.4840 C.3    46  DA46        0.1558
    913  O3'        4.4940    1.5450  -31.8220 O.3    46  DA46       -0.3138
    914  C2'        2.5130    1.3970  -30.3590 C.3    46  DA46        0.0865
    915  C1'        2.3470    0.7620  -28.9760 C.3    46  DA46        0.2094
    916  N9         2.6820    1.9060  -27.8080 N.ar   46  DA46       -0.2714
    917  C8         3.8710    2.1270  -27.1620 C.ar   46  DA46        0.1815
    918  N7         3.8090    3.0640  -26.2470 N.ar   46  DA46       -0.2193
    919  C5         2.4900    3.4890  -26.2950 C.ar   46  DA46        0.1518
    920  C6         1.7840    4.4650  -25.5720 C.ar   46  DA46        0.1919
    921  N6         2.3330    5.2200  -24.6170 N.pl3  46  DA46       -0.1054
    922  N1         0.4780    4.6410  -25.8660 N.ar   46  DA46       -0.2040
    923  C2        -0.0720    3.8830  -26.8220 C.ar   46  DA46        0.2016
    924  N3         0.4880    2.9350  -27.5700 N.ar   46  DA46       -0.2048
    925  C4         1.7850    2.7850  -27.2530 C.ar   46  DA46        0.1691
    926  P          5.3620    2.6970  -32.1230 P.3    47  DA47        0.2141
    927  OP1        5.9620    2.2170  -33.3920 O.2    47  DA47       -0.5172
    928  OP2        5.7670    3.9900  -31.5200 O.3    47  DA47       -0.4373
    929  O5'        3.7650    2.7750  -32.2230 O.3    47  DA47       -0.3114
    930  C5'        3.0710    3.4680  -33.2430 C.3    47  DA47        0.1811
    931  C4'        1.6730    3.7820  -32.7950 C.3    47  DA47        0.1746
    932  O4'        1.5530    3.5690  -31.3670 O.3    47  DA47       -0.3327
    933  C3'        1.2970    5.2370  -32.9590 C.3    47  DA47        0.1558
    934  O3'        0.9300    5.5640  -34.2790 O.3    47  DA47       -0.3138
    935  C2'        0.1920    5.4310  -31.9360 C.3    47  DA47        0.0865
    936  C1'        0.7180    4.5620  -30.8010 C.3    47  DA47        0.2094
    937  N9         1.6090    5.2920  -29.8000 N.ar   47  DA47       -0.2714
    938  C8         2.9680    5.1950  -29.6530 C.ar   47  DA47        0.1815
    939  N7         3.4520    5.9440  -28.6910 N.ar   47  DA47       -0.2193
    940  C5         2.3340    6.5780  -28.1710 C.ar   47  DA47        0.1518
    941  C6         2.1730    7.5060  -27.1270 C.ar   47  DA47        0.1919
    942  N6         3.1830    7.9720  -26.3890 N.pl3  47  DA47       -0.1054
    943  N1         0.9220    7.9420  -26.8640 N.ar   47  DA47       -0.2040
    944  C2        -0.0900    7.4730  -27.6030 C.ar   47  DA47        0.2016
    945  N3        -0.0640    6.6010  -28.6080 N.ar   47  DA47       -0.2048
    946  C4         1.1930    6.1880  -28.8450 C.ar   47  DA47        0.1691
    947  P          1.8590    6.7340  -34.7540 P.3    48  DA48        0.2141
    948  OP1        1.6960    6.4630  -36.2010 O.2    48  DA48       -0.5172
    949  OP2        3.2020    6.6170  -34.1450 O.3    48  DA48       -0.4373
    950  O5'        1.2890    8.1990  -34.4570 O.3    48  DA48       -0.3114
    951  C5'       -0.0530    8.5230  -34.8120 C.3    48  DA48        0.1811
    952  C4'       -0.7680    9.2390  -33.6810 C.3    48  DA48        0.1746
    953  O4'       -0.5810    8.5480  -32.4160 O.3    48  DA48       -0.3327
    954  C3'       -0.2420   10.6290  -33.3600 C.3    48  DA48        0.1558
    955  O3'       -0.5770   11.5830  -34.3580 O.3    48  DA48       -0.3138
    956  C2'       -0.8790   10.8530  -31.9890 C.3    48  DA48        0.0865
    957  C1'       -0.5490    9.5010  -31.3590 C.3    48  DA48        0.2103
    958  N9         0.7810    9.5210  -30.7990 N.ar   48  DA48       -0.2596
    959  C8         1.7320    8.6500  -31.2640 C.ar   48  DA48        0.1822
    960  N7         2.7870    8.5550  -30.4900 N.ar   48  DA48       -0.2203
    961  C5         2.5110    9.4240  -29.4450 C.ar   48  DA48        0.1674
    962  C6         3.2350    9.7780  -28.2930 C.3    48  DA48        0.3152
    963  N6         4.4340    9.2760  -27.9910 N.3    48  DA48       -0.0808
    964  N1         2.6760   10.6750  -27.4540 N.2    48  DA48       -0.0726
    965  C2         1.4730   11.1760  -27.7570 C.2    48  DA48        0.4327
    966  N3         0.6960   10.9210  -28.8070 N.pl3  48  DA48       -0.0177
    967  C4         1.2800   10.0270  -29.6230 C.ar   48  DA48        0.2336
    968  P          0.4570   12.3480  -34.9210 P.3    49  DT49        0.2141
    969  OP1        0.5550   12.7130  -36.3510 O.2    49  DT49       -0.5172
    970  OP2        1.4510   11.4320  -34.3210 O.3    49  DT49       -0.4373
    971  O5'        0.5500   13.6600  -34.0100 O.3    49  DT49       -0.3114
    972  C5'       -0.3580   14.7390  -34.1840 C.3    49  DT49        0.1811
    973  C4'       -0.5400   15.5230  -32.9070 C.3    49  DT49        0.1746
    974  O4'       -0.4380   14.6370  -31.7630 O.3    49  DT49       -0.3327
    975  C3'        0.4980   16.5980  -32.6250 C.3    49  DT49        0.1558
    976  O3'        0.2400   17.7960  -33.3350 O.3    49  DT49       -0.3138
    977  C2'        0.4160   16.7620  -31.1110 C.3    49  DT49        0.0866
    978  C1'        0.1130   15.3330  -30.6630 C.3    49  DT49        0.2106
    979  N1         1.4070   14.6200  -30.3920 N.ar   49  DT49       -0.2559
    980  C2         2.2090   14.9530  -29.3170 C.ar   49  DT49        0.3545
    981  O2         1.9970   15.9170  -28.6040 O.2    49  DT49       -0.2443
    982  N3         3.2750   14.1120  -29.1050 N.ar   49  DT49       -0.1533
    983  C4         3.6130   12.9980  -29.8450 C.ar   49  DT49        0.2804
    984  O4         4.6020   12.3400  -29.5310 O.2    49  DT49       -0.2654
    985  C5         2.7330   12.7190  -30.9440 C.ar   49  DT49        0.0534
    986  C6         1.6880   13.5200  -31.1730 C.ar   49  DT49        0.0824
    987  C7         3.0170   11.5270  -31.8090 C.3    49  DT49        0.0377
    988  P          1.4050   18.8380  -33.6400 P.3    50  DA50        0.2141
    989  OP1        0.6890   19.9020  -34.3630 O.2    50  DA50       -0.5172
    990  OP2        2.5890   18.2010  -34.2450 O.3    50  DA50       -0.4373
    991  O5'        1.8230   19.4280  -32.2380 O.3    50  DA50       -0.3114
    992  C5'        1.4100   20.7290  -31.9410 C.3    50  DA50        0.1811
    993  C4'        1.9690   21.1410  -30.6070 C.3    50  DA50        0.1746
    994  O4'        2.1070   19.9850  -29.7390 O.3    50  DA50       -0.3327
    995  C3'        3.3750   21.6890  -30.6890 C.3    50  DA50        0.1558
    996  O3'        3.3350   23.0120  -31.1370 O.3    50  DA50       -0.3138
    997  C2'        3.7890   21.5710  -29.2280 C.3    50  DA50        0.0865
    998  C1'        3.2230   20.1940  -28.8870 C.3    50  DA50        0.2094
    999  N9         4.1960   19.1100  -29.1500 N.ar   50  DA50       -0.2714
   1000  C8         4.1240   18.2190  -30.1880 C.ar   50  DA50        0.1815
   1001  N7         4.9650   17.2170  -30.0850 N.ar   50  DA50       -0.2193
   1002  C5         5.6360   17.4680  -28.8990 C.ar   50  DA50        0.1518
   1003  C6         6.6570   16.7750  -28.2240 C.ar   50  DA50        0.1919
   1004  N6         7.1980   15.6390  -28.6700 N.pl3  50  DA50       -0.1054
   1005  N1         7.1050   17.2950  -27.0620 N.ar   50  DA50       -0.2040
   1006  C2         6.5610   18.4330  -26.6150 C.ar   50  DA50        0.2016
   1007  N3         5.5980   19.1740  -27.1590 N.ar   50  DA50       -0.2048
   1008  C4         5.1740   18.6310  -28.3120 C.ar   50  DA50        0.1691
   1009  P          4.4760   23.5300  -32.1740 P.3    51  DA51        0.2141
   1010  OP1        3.9360   24.8250  -32.5710 O.3    51  DA51       -0.4373
   1011  OP2        4.9340   22.5070  -33.1550 O.2    51  DA51       -0.5172
   1012  O5'        5.6350   23.6340  -31.0880 O.3    51  DA51       -0.3114
   1013  C5'        5.6940   24.8220  -30.3740 C.3    51  DA51        0.1811
   1014  C4'        6.3540   24.5010  -29.0610 C.3    51  DA51        0.1746
   1015  O4'        6.0270   23.1490  -28.8280 O.3    51  DA51       -0.3327
   1016  C3'        7.8510   24.4310  -29.0320 C.3    51  DA51        0.1558
   1017  O3'        8.4850   25.7110  -28.8760 O.3    51  DA51       -0.3138
   1018  C2'        7.9570   23.5980  -27.7920 C.3    51  DA51        0.0865
   1019  C1'        7.0560   22.5020  -28.1160 C.3    51  DA51        0.2094
   1020  N9         7.6370   21.3780  -28.6580 N.ar   51  DA51       -0.2714
   1021  C8         7.2050   20.8730  -29.8570 C.ar   51  DA51        0.1815
   1022  N7         7.7880   19.7470  -30.1970 N.ar   51  DA51       -0.2193
   1023  C5         8.6610   19.4960  -29.1510 C.ar   51  DA51        0.1518
   1024  C6         9.5710   18.4520  -28.9080 C.ar   51  DA51        0.1919
   1025  N6         9.7560   17.4240  -29.7390 N.pl3  51  DA51       -0.1054
   1026  N1        10.2930   18.5030  -27.7680 N.ar   51  DA51       -0.2040
   1027  C2        10.1070   19.5330  -26.9350 C.ar   51  DA51        0.2016
   1028  N3         9.2820   20.5710  -27.0530 N.ar   51  DA51       -0.2048
   1029  C4         8.5810   20.4920  -28.1960 C.ar   51  DA51        0.1691
   1030  P          9.2160   26.1030  -30.2820 P.3    52  DG52        0.2141
   1031  OP1        9.2200   27.5900  -30.2040 O.3    52  DG52       -0.4373
   1032  OP2        9.2650   25.4120  -31.6060 O.2    52  DG52       -0.5172
   1033  O5'       10.4150   25.6630  -29.3780 O.3    52  DG52       -0.3114
   1034  C5'       10.5980   26.4840  -28.3280 C.3    52  DG52        0.1811
   1035  C4'       11.7040   25.8430  -27.5650 C.3    52  DG52        0.1746
   1036  O4'       11.3100   24.4860  -27.2230 O.3    52  DG52       -0.3327
   1037  C3'       12.9900   25.6520  -28.3530 C.3    52  DG52        0.1558
   1038  O3'       13.7680   26.8070  -28.4280 O.3    52  DG52       -0.3138
   1039  C2'       13.6550   24.5970  -27.4820 C.3    52  DG52        0.0865
   1040  C1'       12.4760   23.6790  -27.2230 C.3    52  DG52        0.2093
   1041  N9        12.3910   22.6330  -28.3760 N.ar   52  DG52       -0.2728
   1042  C8        11.4110   22.6280  -29.3400 C.ar   52  DG52        0.1814
   1043  N7        11.4290   21.5580  -30.0870 N.ar   52  DG52       -0.2177
   1044  C5        12.4790   20.8090  -29.5900 C.ar   52  DG52        0.1711
   1045  C6        12.9870   19.5480  -29.9950 C.2    52  DG52        0.2985
   1046  O6        12.5870   18.8200  -30.9110 O.2    52  DG52       -0.2655
   1047  N1        14.0700   19.1490  -29.2170 N.am   52  DG52       -0.1054
   1048  C2        14.5990   19.8750  -28.1760 C.1    52  DG52        0.1294
   1049  N2        15.6430   19.3250  -27.5420 N.2    52  DG52       -0.0697
   1050  N3        14.1380   21.0480  -27.7890 N.pl3  52  DG52       -0.1270
   1051  C4        13.0870   21.4560  -28.5310 C.ar   52  DG52        0.1688
   1052  P         14.4190   27.3290  -29.7980 P.3    53  DA53        0.2141
   1053  OP1       14.6110   28.7940  -29.7030 O.3    53  DA53       -0.4373
   1054  OP2       14.4070   26.6600  -31.1200 O.2    53  DA53       -0.5172
   1055  O5'       15.5800   26.5870  -28.9850 O.3    53  DA53       -0.3114
   1056  C5'       16.8560   26.4290  -29.5860 C.3    53  DA53        0.1811
   1057  C4'       17.6080   25.2300  -29.0630 C.3    53  DA53        0.1746
   1058  O4'       16.7160   24.1060  -28.8500 O.3    53  DA53       -0.3327
   1059  C3'       18.6500   24.6910  -30.0210 C.3    53  DA53        0.1558
   1060  O3'       19.8470   25.4420  -29.9840 O.3    53  DA53       -0.3138
   1061  C2'       18.7930   23.2290  -29.6150 C.3    53  DA53        0.0865
   1062  C1'       17.3580   22.8980  -29.2070 C.3    53  DA53        0.2094
   1063  N9        16.7070   22.2900  -30.5530 N.ar   53  DA53       -0.2714
   1064  C8        15.5780   22.7480  -31.1800 C.ar   53  DA53        0.1815
   1065  N7        15.0550   21.8880  -32.0220 N.ar   53  DA53       -0.2193
   1066  C5        15.8980   20.7910  -31.9430 C.ar   53  DA53        0.1518
   1067  C6        15.8900   19.5430  -32.5900 C.ar   53  DA53        0.1919
   1068  N6        14.9650   19.1790  -33.4820 N.pl3  53  DA53       -0.1054
   1069  N1        16.8760   18.6730  -32.2870 N.ar   53  DA53       -0.2040
   1070  C2        17.8020   19.0390  -31.3920 C.ar   53  DA53        0.2016
   1071  N3        17.9150   20.1810  -30.7180 N.ar   53  DA53       -0.2048
   1072  C4        16.9210   21.0240  -31.0430 C.ar   53  DA53        0.1691
   1073  P         20.2780   26.1490  -31.3300 P.3    54  DG54        0.2141
   1074  OP1       21.4190   27.0090  -30.9170 O.3    54  DG54       -0.4373
   1075  OP2       19.3470   26.6270  -32.3780 O.2    54  DG54       -0.5172
   1076  O5'       20.8470   24.7280  -31.7750 O.3    54  DG54       -0.3114
   1077  C5'       21.7670   24.0130  -30.9250 C.3    54  DG54        0.1811
   1078  C4'       22.1440   22.6810  -31.5360 C.3    54  DG54        0.1746
   1079  O4'       21.0660   21.7250  -31.3740 O.3    54  DG54       -0.3327
   1080  C3'       22.4580   22.6790  -33.0220 C.3    54  DG54        0.1558
   1081  O3'       23.7930   23.1000  -33.2940 O.3    54  DG54       -0.3138
   1082  C2'       22.2120   21.2240  -33.4070 C.3    54  DG54        0.0865
   1083  C1'       21.0440   20.8450  -32.4880 C.3    54  DG54        0.2094
   1084  N9        19.7090   20.9530  -33.1810 N.ar   54  DG54       -0.2713
   1085  C8        18.8360   22.0100  -33.2570 C.ar   54  DG54        0.1816
   1086  N7        17.7890   21.7620  -33.9970 N.ar   54  DG54       -0.2173
   1087  C5        17.9790   20.4640  -34.4340 C.ar   54  DG54        0.1748
   1088  C6        17.1770   19.6450  -35.2700 C.ar   54  DG54        0.3023
   1089  O6        16.0970   19.9240  -35.8070 O.2    54  DG54       -0.2633
   1090  N1        17.7420   18.3880  -35.4640 N.ar   54  DG54       -0.1709
   1091  C2        18.9330   17.9710  -34.9200 C.ar   54  DG54        0.2606
   1092  N2        19.3140   16.7220  -35.2200 N.pl3  54  DG54       -0.0859
   1093  N3        19.6890   18.7200  -34.1420 N.ar   54  DG54       -0.1918
   1094  C4        19.1600   19.9460  -33.9400 C.ar   54  DG54        0.1722
   1095  P         24.2110   23.5830  -34.8160 P.3    55  DT55        0.2141
   1096  OP1       25.6660   23.8860  -34.7400 O.3    55  DT55       -0.4373
   1097  OP2       23.2570   24.6650  -35.1710 O.2    55  DT55       -0.5172
   1098  O5'       24.0020   22.3540  -35.8150 O.3    55  DT55       -0.3114
   1099  C5'       24.9480   21.2610  -35.8460 C.3    55  DT55        0.1811
   1100  C4'       24.3090   19.9890  -36.3720 C.3    55  DT55        0.1746
   1101  O4'       23.0600   19.7390  -35.6730 O.3    55  DT55       -0.3327
   1102  C3'       23.9550   19.9200  -37.8500 C.3    55  DT55        0.1558
   1103  O3'       25.0790   19.4990  -38.6100 O.3    55  DT55       -0.3138
   1104  C2'       22.8750   18.8480  -37.8760 C.3    55  DT55        0.0866
   1105  C1'       22.1570   19.0740  -36.5410 C.3    55  DT55        0.2106
   1106  N1        20.9600   19.8580  -36.7880 N.ar   55  DT55       -0.2559
   1107  C2        19.8380   19.2010  -37.2570 C.ar   55  DT55        0.3545
   1108  O2        19.8210   18.0080  -37.5030 O.2    55  DT55       -0.2443
   1109  N3        18.7300   19.9950  -37.4310 N.ar   55  DT55       -0.1533
   1110  C4        18.6340   21.3490  -37.1890 C.ar   55  DT55        0.2804
   1111  O4        17.5690   21.9260  -37.3930 O.2    55  DT55       -0.2654
   1112  C5        19.8410   21.9590  -36.7050 C.ar   55  DT55        0.0534
   1113  C6        20.9320   21.2100  -36.5260 C.ar   55  DT55        0.0824
   1114  C7        19.8380   23.4300  -36.4120 C.3    55  DT55        0.0377
   1115  P         24.9340   19.4480  -40.0220 P.3    56  DG56        0.2141
   1116  OP1       25.8540   20.5960  -40.2180 O.3    56  DG56       -0.4373
   1117  OP2       23.4780   19.6190  -40.2360 O.2    56  DG56       -0.5172
   1118  O5'       25.4790   18.2730  -40.9450 O.3    56  DG56       -0.3114
   1119  C5'       24.7160   17.7530  -42.0280 C.3    56  DG56        0.1811
   1120  C4'       24.6420   16.2540  -41.9160 C.3    56  DG56        0.1746
   1121  O4'       25.9710   15.7560  -41.6060 O.3    56  DG56       -0.3327
   1122  C3'       23.7490   15.7730  -40.7840 C.3    56  DG56        0.1558
   1123  O3'       22.4330   15.5680  -41.3010 O.3    56  DG56       -0.3138
   1124  C2'       24.4070   14.4660  -40.3560 C.3    56  DG56        0.0865
   1125  C1'       25.8880   14.7570  -40.6120 C.3    56  DG56        0.2094
   1126  N9        26.6230   15.0010  -39.5990 N.ar   56  DG56       -0.2713
   1127  C8        27.1220   16.2210  -39.2120 C.ar   56  DG56        0.1816
   1128  N7        27.5130   16.2460  -37.9670 N.ar   56  DG56       -0.2173
   1129  C5        27.2600   14.9680  -37.5020 C.ar   56  DG56        0.1748
   1130  C6        27.4730   14.3920  -36.2240 C.ar   56  DG56        0.3023
   1131  O6        27.9480   14.9250  -35.2130 O.2    56  DG56       -0.2633
   1132  N1        27.0720   13.0600  -36.1800 N.ar   56  DG56       -0.1709
   1133  C2        26.5340   12.3670  -37.2380 C.ar   56  DG56        0.2606
   1134  N2        26.2090   11.0890  -37.0040 N.pl3  56  DG56       -0.0859
   1135  N3        26.3290   12.8890  -38.4310 N.ar   56  DG56       -0.1918
   1136  C4        26.7100   14.1830  -38.4970 C.ar   56  DG56        0.1722
   1137  P         21.0700   15.8630  -40.3730 P.3    57  DG57        0.2141
   1138  OP1       19.9840   16.0280  -41.3650 O.2    57  DG57       -0.5172
   1139  OP2       21.3330   16.9120  -39.3610 O.3    57  DG57       -0.4373
   1140  O5'       20.8040   14.5380  -39.5200 O.3    57  DG57       -0.3114
   1141  C5'       20.9840   13.3100  -40.2080 C.3    57  DG57        0.1811
   1142  C4'       21.2430   12.1570  -39.2730 C.3    57  DG57        0.1746
   1143  O4'       22.4840   12.3460  -38.5400 O.3    57  DG57       -0.3327
   1144  C3'       20.2050   11.9220  -38.1900 C.3    57  DG57        0.1558
   1145  O3'       19.0370   11.2870  -38.6920 O.3    57  DG57       -0.3138
   1146  C2'       20.9960   11.0890  -37.1890 C.3    57  DG57        0.0865
   1147  C1'       22.3890   11.7170  -37.2800 C.3    57  DG57        0.2094
   1148  N9        22.4740   12.9120  -36.2170 N.ar   57  DG57       -0.2713
   1149  C8        22.0660   14.2230  -36.2500 C.ar   57  DG57        0.1816
   1150  N7        22.1900   14.8310  -35.1020 N.ar   57  DG57       -0.2173
   1151  C5        22.7130   13.8680  -34.2590 C.ar   57  DG57        0.1748
   1152  C6        23.0610   13.9340  -32.8850 C.ar   57  DG57        0.3023
   1153  O6        22.9720   14.9010  -32.1180 O.2    57  DG57       -0.2633
   1154  N1        23.5580   12.7220  -32.4150 N.ar   57  DG57       -0.1709
   1155  C2        23.7010   11.5850  -33.1750 C.ar   57  DG57        0.2606
   1156  N2        24.1990   10.5130  -32.5450 N.pl3  57  DG57       -0.0859
   1157  N3        23.3810   11.5080  -34.4510 N.ar   57  DG57       -0.1918
   1158  C4        22.8960   12.6740  -34.9290 C.ar   57  DG57        0.1722
   1159  P         18.0360   10.3830  -37.8070 P.3    58  DT58        0.2141
   1160  OP1       18.1220    8.9780  -38.2790 O.3    58  DT58       -0.4373
   1161  OP2       16.9560   11.2590  -38.3230 O.2    58  DT58       -0.5172
   1162  O5'       17.9550   10.3830  -36.2170 O.3    58  DT58       -0.3114
   1163  C5'       18.8770    9.6100  -35.4580 C.3    58  DT58        0.1811
   1164  C4'       19.4720   10.4270  -34.3360 C.3    58  DT58        0.1746
   1165  O4'       19.7210   11.7760  -34.8000 O.3    58  DT58       -0.3327
   1166  C3'       18.6500   10.6110  -33.0670 C.3    58  DT58        0.1558
   1167  O3'       18.7990    9.4930  -32.1950 O.3    58  DT58       -0.3138
   1168  C2'       19.2770   11.8630  -32.4650 C.3    58  DT58        0.0866
   1169  C1'       19.5920   12.6820  -33.7170 C.3    58  DT58        0.2106
   1170  N1        18.6170   13.6710  -34.0250 N.ar   58  DT58       -0.2559
   1171  C2        18.4840   14.8030  -33.2430 C.ar   58  DT58        0.3545
   1172  O2        19.1390   14.9940  -32.2340 O.2    58  DT58       -0.2443
   1173  N3        17.5510   15.7090  -33.6860 N.ar   58  DT58       -0.1533
   1174  C4        16.7550   15.5990  -34.8070 C.ar   58  DT58        0.2804
   1175  O4        15.9620   16.4980  -35.0770 O.2    58  DT58       -0.2654
   1176  C5        16.9510   14.3960  -35.5660 C.ar   58  DT58        0.0534
   1177  C6        17.8520   13.4980  -35.1570 C.ar   58  DT58        0.0824
   1178  C7        16.1310   14.1830  -36.8040 C.3    58  DT58        0.0377
   1179  P         17.6310    9.0750  -31.4630 P.3    59  DG59        0.2141
   1180  OP1       18.1370    7.7240  -31.1430 O.3    59  DG59       -0.4373
   1181  OP2       16.2950    9.2330  -32.0740 O.2    59  DG59       -0.5172
   1182  O5'       17.6180    9.9510  -30.1310 O.3    59  DG59       -0.3114
   1183  C5'       18.7450    9.9700  -29.2790 C.3    59  DG59        0.1811
   1184  C4'       18.9050   11.3540  -28.6930 C.3    59  DG59        0.1746
   1185  O4'       18.8160   12.3430  -29.7570 O.3    59  DG59       -0.3327
   1186  C3'       17.8290   11.8100  -27.7050 C.3    59  DG59        0.1558
   1187  O3'       17.9170   11.2120  -26.3970 O.3    59  DG59       -0.3138
   1188  C2'       18.1790   13.2940  -27.6810 C.3    59  DG59        0.0865
   1189  C1'       18.4640   13.5800  -29.1610 C.3    59  DG59        0.2093
   1190  N9        17.4330   14.1730  -29.7760 N.ar   59  DG59       -0.2728
   1191  C8        16.7000   13.5520  -30.7580 C.ar   59  DG59        0.1814
   1192  N7        15.6590   14.2410  -31.1380 N.ar   59  DG59       -0.2177
   1193  C5        15.7050   15.3860  -30.3650 C.ar   59  DG59        0.1711
   1194  C6        14.8390   16.5090  -30.3260 C.2    59  DG59        0.2985
   1195  O6        13.8200   16.7140  -30.9980 O.2    59  DG59       -0.2655
   1196  N1        15.2520   17.4530  -29.3910 N.am   59  DG59       -0.1054
   1197  C2        16.3640   17.3310  -28.5920 C.1    59  DG59        0.1294
   1198  N2        16.6010   18.3470  -27.7510 N.2    59  DG59       -0.0697
   1199  N3        17.1780   16.2940  -28.6160 N.pl3  59  DG59       -0.1270
   1200  C4        16.7950   15.3640  -29.5170 C.ar   59  DG59        0.1688
   1201  P         16.6940   11.1990  -25.3960 P.3    60  DT60        0.2141
   1202  OP1       17.2950   10.2100  -24.4610 O.3    60  DT60       -0.4373
   1203  OP2       15.4740   10.8530  -26.1550 O.2    60  DT60       -0.5172
   1204  O5'       16.3390   12.5420  -24.6250 O.3    60  DT60       -0.3114
   1205  C5'       17.3230   13.2240  -23.8630 C.3    60  DT60        0.1811
   1206  C4'       16.9120   14.6630  -23.6420 C.3    60  DT60        0.1746
   1207  O4'       16.8680   15.3630  -24.9110 O.3    60  DT60       -0.3327
   1208  C3'       15.5150   14.8670  -23.0980 C.3    60  DT60        0.1558
   1209  O3'       15.4370   14.6650  -21.7220 O.3    60  DT60       -0.3138
   1210  C2'       15.1920   16.2900  -23.5050 C.3    60  DT60        0.0866
   1211  C1'       15.8550   16.3530  -24.8710 C.3    60  DT60        0.2106
   1212  N1        14.8540   16.0930  -25.8940 N.ar   60  DT60       -0.2559
   1213  C2        14.0280   17.1410  -26.2540 C.ar   60  DT60        0.3545
   1214  O2        14.1390   18.2630  -25.7920 O.2    60  DT60       -0.2443
   1215  N3        13.0610   16.8270  -27.1780 N.ar   60  DT60       -0.1533
   1216  C4        12.8430   15.5990  -27.7660 C.ar   60  DT60        0.2804
   1217  O4        11.9330   15.4720  -28.5820 O.2    60  DT60       -0.2654
   1218  C5        13.7410   14.5630  -27.3400 C.ar   60  DT60        0.0534
   1219  C6        14.6900   14.8400  -26.4420 C.ar   60  DT60        0.0824
   1220  C7        13.5840   13.1890  -27.9220 C.3    60  DT60        0.0377
   1221  P         14.2680   14.0320  -21.2920 P.3    61  DT61        0.2141
   1222  OP1       14.8860   13.3950  -20.1060 O.3    61  DT61       -0.4373
   1223  OP2       13.7010   13.2010  -22.3700 O.2    61  DT61       -0.5172
   1224  O5'       13.1420   15.0380  -20.7800 O.3    61  DT61       -0.3114
   1225  C5'       13.5120   16.3610  -20.4850 C.3    61  DT61        0.1811
   1226  C4'       12.3690   17.2880  -20.8200 C.3    61  DT61        0.1746
   1227  O4'       12.4150   17.6620  -22.2160 O.3    61  DT61       -0.3327
   1228  C3'       11.0090   16.6490  -20.6840 C.3    61  DT61        0.1558
   1229  O3'       10.6280   16.5870  -19.3180 O.3    61  DT61       -0.3138
   1230  C2'       10.1660   17.6280  -21.4960 C.3    61  DT61        0.0866
   1231  C1'       11.1030   17.9550  -22.6570 C.3    61  DT61        0.2106
   1232  N1        10.7830   17.0900  -23.7840 N.ar   61  DT61       -0.2559
   1233  C2         9.7560   17.4710  -24.6280 C.ar   61  DT61        0.3545
   1234  O2         9.1020   18.4850  -24.4620 O.2    61  DT61       -0.2443
   1235  N3         9.5200   16.6170  -25.6780 N.ar   61  DT61       -0.1533
   1236  C4        10.1920   15.4470  -25.9630 C.ar   61  DT61        0.2804
   1237  O4         9.8650   14.7850  -26.9450 O.2    61  DT61       -0.2654
   1238  C5        11.2430   15.1190  -25.0410 C.ar   61  DT61        0.0534
   1239  C6        11.4940   15.9320  -24.0110 C.ar   61  DT61        0.0824
   1240  C7        12.0330   13.8640  -25.2650 C.3    61  DT61        0.0377
   1241  P          9.5910   15.5530  -18.9590 P.3    62  DG62        0.2141
   1242  OP1        9.5980   15.8090  -17.5020 O.3    62  DG62       -0.4373
   1243  OP2        9.5000   14.1610  -19.4680 O.2    62  DG62       -0.5172
   1244  O5'        8.3920   16.3650  -19.6010 O.3    62  DG62       -0.3114
   1245  C5'        8.1860   17.7370  -19.2730 C.3    62  DG62        0.1811
   1246  C4'        7.0380   18.2800  -20.0740 C.3    62  DG62        0.1746
   1247  O4'        7.3980   18.2990  -21.4850 O.3    62  DG62       -0.3327
   1248  C3'        5.7970   17.4120  -20.0770 C.3    62  DG62        0.1558
   1249  O3'        5.0240   17.4690  -18.8950 O.3    62  DG62       -0.3138
   1250  C2'        5.0660   17.9450  -21.2960 C.3    62  DG62        0.0865
   1251  C1'        6.2300   18.1070  -22.2700 C.3    62  DG62        0.2094
   1252  N9         6.3430   16.9520  -23.0830 N.ar   62  DG62       -0.2713
   1253  C8         7.2460   15.9240  -22.9510 C.ar   62  DG62        0.1816
   1254  N7         7.0890   14.9830  -23.8410 N.ar   62  DG62       -0.2173
   1255  C5         6.0220   15.4110  -24.6090 C.ar   62  DG62        0.1748
   1256  C6         5.3870   14.8080  -25.7250 C.ar   62  DG62        0.3023
   1257  O6         5.6600   13.7330  -26.2730 O.2    62  DG62       -0.2633
   1258  N1         4.3360   15.5830  -26.2070 N.ar   62  DG62       -0.1709
   1259  C2         3.9440   16.7900  -25.6790 C.ar   62  DG62        0.2606
   1260  N2         2.9090   17.3910  -26.2810 N.pl3  62  DG62       -0.0859
   1261  N3         4.5230   17.3620  -24.6420 N.ar   62  DG62       -0.1918
   1262  C4         5.5460   16.6270  -24.1560 C.ar   62  DG62        0.1722
   1263  P          4.0840   16.2650  -18.5360 P.3    63  DG63        0.2141
   1264  OP1        4.1530   16.1750  -17.0600 O.3    63  DG63       -0.4373
   1265  OP2        4.3000   15.0480  -19.3530 O.2    63  DG63       -0.5172
   1266  O5'        2.6370   16.7850  -18.9820 O.3    63  DG63       -0.3114
   1267  C5'        1.5930   15.8770  -19.2990 C.3    63  DG63        0.1811
   1268  C4'        0.8220   16.3630  -20.4970 C.3    63  DG63        0.1746
   1269  O4'        1.7410   16.5710  -21.6010 O.3    63  DG63       -0.3327
   1270  C3'       -0.2030   15.4090  -21.0870 C.3    63  DG63        0.1558
   1271  O3'       -1.4090   15.3180  -20.3520 O.3    63  DG63       -0.3138
   1272  C2'       -0.3570   15.9880  -22.4840 C.3    63  DG63        0.0865
   1273  C1'        1.1130   16.2330  -22.8200 C.3    63  DG63        0.2094
   1274  N9         1.8070   14.7460  -23.3320 N.ar   63  DG63       -0.2713
   1275  C8         2.9870   14.2770  -22.8090 C.ar   63  DG63        0.1816
   1276  N7         3.5580   13.3720  -23.5550 N.ar   63  DG63       -0.2159
   1277  C5         2.7090   13.2330  -24.6370 C.ar   63  DG63        0.1892
   1278  C6         2.7970   12.3960  -25.7790 C.ar   63  DG63        0.3458
   1279  O6         3.6830   11.5810  -26.0640 O.2    63  DG63       -0.2467
   1280  N1         1.7150   12.5710  -26.6370 N.ar   63  DG63       -0.1256
   1281  C2         0.6770   13.4450  -26.4220 C.ar   63  DG63        0.3092
   1282  N2        -0.2760   13.4740  -27.3640 N.pl3  63  DG63       -0.0717
   1283  N3         0.5810   14.2280  -25.3660 N.ar   63  DG63       -0.1789
   1284  C4         1.6200   14.0750  -24.5180 C.ar   63  DG63        0.1750
   1285  P         -1.8040   13.9620  -19.9400 P.3    64  DC64        0.2141
   1286  OP1       -3.0480   14.4400  -19.2890 O.3    64  DC64       -0.4373
   1287  OP2       -1.0690   12.7960  -19.3710 O.2    64  DC64       -0.5172
   1288  O5'       -2.1720   13.6150  -21.4460 O.3    64  DC64       -0.3114
   1289  C5'       -2.9310   14.5310  -22.2150 C.3    64  DC64        0.1811
   1290  C4'       -3.4570   13.8690  -23.4550 C.3    64  DC64        0.1746
   1291  O4'       -2.4290   13.8170  -24.4690 O.3    64  DC64       -0.3327
   1292  C3'       -3.8850   12.4240  -23.2820 C.3    64  DC64        0.1558
   1293  O3'       -5.1900   12.2710  -22.7800 O.3    64  DC64       -0.3138
   1294  C2'       -3.8040   11.8840  -24.6890 C.3    64  DC64        0.0866
   1295  C1'       -2.5890   12.6370  -25.2330 C.3    64  DC64        0.2106
   1296  N1        -1.3870   11.8260  -25.0430 N.ar   64  DC64       -0.2556
   1297  C2        -1.0060   10.9020  -26.0240 C.ar   64  DC64        0.3531
   1298  O2        -1.6500   10.8580  -27.0850 O.2    64  DC64       -0.2443
   1299  N3         0.0480   10.0860  -25.7870 N.ar   64  DC64       -0.1739
   1300  C4         0.7100   10.1680  -24.6320 C.ar   64  DC64        0.1759
   1301  N4         1.7430    9.3440  -24.4430 N.pl3  64  DC64       -0.1070
   1302  C5         0.3400   11.0970  -23.6260 C.ar   64  DC64        0.0566
   1303  C6        -0.7020   11.9010  -23.8630 C.ar   64  DC64        0.0849
   1304  P         -5.3000   11.3520  -22.1330 P.3    65  DT65        0.2141
   1305  OP1       -6.4250   11.6130  -21.2070 O.3    65  DT65       -0.4373
   1306  OP2       -3.9440   11.0630  -21.6140 O.2    65  DT65       -0.5172
   1307  O5'       -5.6340   10.1020  -23.0660 O.3    65  DT65       -0.3114
   1308  C5'       -6.3430   10.3790  -24.2620 C.3    65  DT65        0.1811
   1309  C4'       -6.0400    9.3710  -25.3400 C.3    65  DT65        0.1746
   1310  O4'       -4.6710    9.4990  -25.8050 O.3    65  DT65       -0.3327
   1311  C3'       -6.1440    7.9080  -24.9420 C.3    65  DT65        0.1558
   1312  O3'       -7.4850    7.4510  -24.8450 O.3    65  DT65       -0.3138
   1313  C2'       -5.3570    7.2450  -26.0630 C.3    65  DT65        0.0866
   1314  C1'       -4.2120    8.2370  -26.2490 C.3    65  DT65        0.2106
   1315  N1        -3.0320    7.8740  -25.4840 N.ar   65  DT65       -0.2559
   1316  C2        -2.2690    6.7950  -25.8880 C.ar   65  DT65        0.3545
   1317  O2        -2.5740    6.0800  -26.8260 O.2    65  DT65       -0.2443
   1318  N3        -1.1290    6.5810  -25.1510 N.ar   65  DT65       -0.1533
   1319  C4        -0.6860    7.3210  -24.0750 C.ar   65  DT65        0.2804
   1320  O4         0.3610    7.0050  -23.5140 O.2    65  DT65       -0.2654
   1321  C5        -1.5330    8.4230  -23.7160 C.ar   65  DT65        0.0534
   1322  C6        -2.6470    8.6540  -24.4150 C.ar   65  DT65        0.0824
   1323  C7        -1.1370    9.2880  -22.5570 C.3    65  DT65        0.0377
   1324  P         -7.8590    6.3290  -23.9350 P.3    66  DC66        0.2141
   1325  OP1       -9.3360    6.1430  -23.9430 O.2    66  DC66       -0.5172
   1326  OP2       -7.1940    6.7970  -22.6850 O.3    66  DC66       -0.4373
   1327  O5'       -7.1750    4.9510  -24.3850 O.3    66  DC66       -0.3114
   1328  C5'       -7.7410    4.1630  -25.4470 C.3    66  DC66        0.1811
   1329  C4'       -6.7960    3.0530  -25.8580 C.3    66  DC66        0.1746
   1330  O4'       -5.5320    3.6170  -26.3100 O.3    66  DC66       -0.3327
   1331  C3'       -6.3960    2.0420  -24.7920 C.3    66  DC66        0.1558
   1332  O3'       -7.3910    1.0250  -24.5840 O.3    66  DC66       -0.3138
   1333  C2'       -5.0900    1.4820  -25.3580 C.3    66  DC66        0.0866
   1334  C1'       -4.4620    2.7280  -25.9960 C.3    66  DC66        0.2106
   1335  N1        -3.4870    3.4020  -25.0990 N.ar   66  DC66       -0.2556
   1336  C2        -2.1990    2.8600  -25.0120 C.ar   66  DC66        0.3531
   1337  O2        -1.9290    1.8500  -25.6840 O.2    66  DC66       -0.2443
   1338  N3        -1.2890    3.4500  -24.2010 N.ar   66  DC66       -0.1739
   1339  C4        -1.6240    4.5320  -23.4980 C.ar   66  DC66        0.1759
   1340  N4        -0.6940    5.0790  -22.7110 N.pl3  66  DC66       -0.1070
   1341  C5        -2.9230    5.0960  -23.5720 C.ar   66  DC66        0.0566
   1342  C6        -3.8190    4.5110  -24.3750 C.ar   66  DC66        0.0849
   1343  P         -7.6910    0.4580  -23.0370 P.3    67  DC67        0.2141
   1344  OP1       -8.9620   -0.2820  -23.2810 O.2    67  DC67       -0.5172
   1345  OP2       -7.5300    1.3430  -21.8120 O.3    67  DC67       -0.4373
   1346  O5'       -6.4940   -0.5970  -23.0870 O.3    67  DC67       -0.3114
   1347  C5'       -6.4670   -1.6230  -24.0650 C.3    67  DC67        0.1811
   1348  C4'       -5.0910   -2.2310  -24.1240 C.3    67  DC67        0.1746
   1349  O4'       -4.1420   -1.1980  -24.4820 O.3    67  DC67       -0.3327
   1350  C3'       -4.5080   -2.7510  -22.8180 C.3    67  DC67        0.1558
   1351  O3'       -5.0310   -4.0180  -22.5120 O.3    67  DC67       -0.3138
   1352  C2'       -3.0320   -2.8270  -23.1590 C.3    67  DC67        0.0866
   1353  C1'       -2.8670   -1.5240  -23.9460 C.3    67  DC67        0.2106
   1354  N1        -2.4380   -0.4520  -22.9990 N.ar   67  DC67       -0.2556
   1355  C2        -1.1120   -0.3780  -22.5580 C.ar   67  DC67        0.3531
   1356  O2        -0.3250   -1.2860  -22.8760 O.2    67  DC67       -0.2443
   1357  N3        -0.7270    0.6750  -21.7990 N.ar   67  DC67       -0.1739
   1358  C4        -1.6070    1.6260  -21.4810 C.ar   67  DC67        0.1759
   1359  N4        -1.1810    2.6450  -20.7310 N.pl3  67  DC67       -0.1070
   1360  C5        -2.9550    1.5700  -21.9180 C.ar   67  DC67        0.0566
   1361  C6        -3.3310    0.5280  -22.6670 C.ar   67  DC67        0.0849
   1362  P         -5.5710   -4.2070  -21.1740 P.3    68  DC68        0.2141
   1363  OP1       -6.2040   -5.5390  -21.3340 O.2    68  DC68       -0.5172
   1364  OP2       -6.2130   -3.1100  -20.4110 O.3    68  DC68       -0.4373
   1365  O5'       -4.1450   -4.4210  -20.4840 O.3    68  DC68       -0.3114
   1366  C5'       -3.3910   -5.5440  -20.9120 C.3    68  DC68        0.1811
   1367  C4'       -1.9940   -5.5490  -20.3440 C.3    68  DC68        0.1746
   1368  O4'       -1.3020   -4.3280  -20.7110 O.3    68  DC68       -0.3327
   1369  C3'       -1.8760   -5.5880  -18.8280 C.3    68  DC68        0.1558
   1370  O3'       -2.0730   -6.8730  -18.2770 O.3    68  DC68       -0.3138
   1371  C2'       -0.4770   -5.0380  -18.5910 C.3    68  DC68        0.0866
   1372  C1'       -0.4050   -3.9690  -19.6810 C.3    68  DC68        0.2106
   1373  N1        -0.8140   -2.6880  -19.0390 N.ar   68  DC68       -0.2556
   1374  C2         0.1630   -1.9260  -18.3890 C.ar   68  DC68        0.3531
   1375  O2         1.3410   -2.3240  -18.4060 O.2    68  DC68       -0.2443
   1376  N3        -0.2010   -0.7810  -17.7630 N.ar   68  DC68       -0.1739
   1377  C4        -1.4770   -0.3930  -17.7710 C.ar   68  DC68        0.1759
   1378  N4        -1.7880    0.7410  -17.1400 N.pl3  68  DC68       -0.1070
   1379  C5        -2.4820   -1.1510  -18.4240 C.ar   68  DC68        0.0566
   1380  C6        -2.1190   -2.2810  -19.0410 C.ar   68  DC68        0.0849
   1381  P         -2.6160   -6.8970  -16.8480 P.3    69  DG69        0.2141
   1382  OP1       -2.5840   -8.3670  -17.0190 O.2    69  DG69       -0.5172
   1383  OP2       -3.5200   -6.2620  -15.8620 O.3    69  DG69       -0.4373
   1384  O5'       -1.1600   -6.4050  -16.4180 O.3    69  DG69       -0.3114
   1385  C5'       -0.5640   -6.9150  -15.2390 C.3    69  DG69        0.1811
   1386  C4'        0.8240   -6.3610  -15.0700 C.3    69  DG69        0.1746
   1387  O4'        0.9720   -5.1690  -15.8820 O.3    69  DG69       -0.3327
   1388  C3'        1.1700   -5.9080  -13.6620 C.3    69  DG69        0.1558
   1389  O3'        1.5780   -6.9800  -12.8340 O.3    69  DG69       -0.3138
   1390  C2'        2.2530   -4.8680  -13.9070 C.3    69  DG69        0.0865
   1391  C1'        1.7660   -4.2200  -15.2020 C.3    69  DG69        0.2094
   1392  N9         0.9460   -3.0870  -15.0730 N.ar   69  DG69       -0.2713
   1393  C8        -0.3740   -2.9450  -15.4260 C.ar   69  DG69        0.1816
   1394  N7        -0.8590   -1.7670  -15.1420 N.ar   69  DG69       -0.2173
   1395  C5         0.2010   -1.0890  -14.5680 C.ar   69  DG69        0.1748
   1396  C6         0.2830    0.2310  -14.0560 C.ar   69  DG69        0.3023
   1397  O6        -0.6050    1.0920  -14.0100 O.2    69  DG69       -0.2633
   1398  N1         1.5520    0.5190  -13.5610 N.ar   69  DG69       -0.1709
   1399  C2         2.6110   -0.3570  -13.5600 C.ar   69  DG69        0.2606
   1400  N2         3.7580    0.1030  -13.0410 N.pl3  69  DG69       -0.0859
   1401  N3         2.5500   -1.5860  -14.0320 N.ar   69  DG69       -0.1918
   1402  C4         1.3260   -1.8880  -14.5170 C.ar   69  DG69        0.1722
   1403  P          1.0430   -7.0750  -11.2390 P.3    70  DT70        0.2141
   1404  OP1        1.3750   -8.3940  -10.6390 O.3    70  DT70       -0.4373
   1405  OP2       -0.3580   -6.5760  -11.1870 O.2    70  DT70       -0.5172
   1406  O5'        1.9820   -5.9700  -10.5750 O.3    70  DT70       -0.3114
   1407  C5'        3.3920   -6.1550  -10.5330 C.3    70  DT70        0.1811
   1408  C4'        4.0640   -5.0000   -9.8310 C.3    70  DT70        0.1746
   1409  O4'        3.9840   -3.8050  -10.6470 O.3    70  DT70       -0.3327
   1410  C3'        3.4310   -4.6010   -8.5100 C.3    70  DT70        0.1558
   1411  O3'        3.9520   -5.4350   -7.4800 O.3    70  DT70       -0.3138
   1412  C2'        3.8820   -3.1510   -8.3600 C.3    70  DT70        0.0866
   1413  C1'        3.8620   -2.6700   -9.8120 C.3    70  DT70        0.2106
   1414  N1         2.6640   -1.8960  -10.2200 N.ar   70  DT70       -0.2559
   1415  C2         2.6240   -0.6030   -9.7340 C.ar   70  DT70        0.3545
   1416  O2         3.5210   -0.1150   -9.0700 O.2    70  DT70       -0.2443
   1417  N3         1.4880    0.1020  -10.0520 N.ar   70  DT70       -0.1533
   1418  C4         0.4140   -0.3460  -10.7920 C.ar   70  DT70        0.2804
   1419  O4        -0.5360    0.4070  -10.9960 O.2    70  DT70       -0.2654
   1420  C5         0.5310   -1.6980  -11.2610 C.ar   70  DT70        0.0534
   1421  C6         1.6240   -2.4060  -10.9650 C.ar   70  DT70        0.0824
   1422  C7        -0.5870   -2.2780  -12.0750 C.3    70  DT70        0.0377
   1423  P          3.1620   -5.5550   -5.9830 P.3    71  DA71        0.2141
   1424  OP1        3.5370   -6.8750   -5.4210 O.3    71  DA71       -0.4373
   1425  OP2        1.7900   -5.3470   -6.5130 O.2    71  DA71       -0.5172
   1426  O5'        3.4220   -4.4350   -4.8860 O.3    71  DA71       -0.3114
   1427  C5'        4.7330   -3.9270   -4.6600 C.3    71  DA71        0.1812
   1428  C4'        4.6640   -2.4520   -4.3920 C.3    71  DA71        0.1775
   1429  O4'        4.2450   -1.7810   -5.6060 O.3    71  DA71       -0.3326
   1430  C3'        3.6120   -2.0550   -3.3730 C.3    71  DA71        0.1859
   1431  O3'        4.0690   -2.2140   -2.0390 O.3    71  DA71       -0.2203
   1432  C2'        3.3340   -0.6090   -3.7530 C.3    71  DA71        0.0894
   1433  C1'        3.3950   -0.6940   -5.2790 C.3    71  DA71        0.2095
   1434  N9         1.9900   -0.8440   -5.9870 N.ar   71  DA71       -0.2714
   1435  C8         1.6380   -1.8660   -6.8300 C.ar   71  DA71        0.1815
   1436  N7         0.4520   -1.7190   -7.3720 N.ar   71  DA71       -0.2193
   1437  C5        -0.0060   -0.5210   -6.8480 C.ar   71  DA71        0.1518
   1438  C6        -1.2020    0.1950   -7.0300 C.ar   71  DA71        0.1919
   1439  N6        -2.1940   -0.2120   -7.8260 N.pl3  71  DA71       -0.1054
   1440  N1        -1.3450    1.3580   -6.3590 N.ar   71  DA71       -0.2040
   1441  C2        -0.3500    1.7660   -5.5630 C.ar   71  DA71        0.2016
   1442  N3         0.8190    1.1820   -5.3110 N.ar   71  DA71       -0.2048
   1443  C4         0.9300    0.0290   -5.9920 C.ar   71  DA71        0.1691
   1444  P          3.0310   -2.7360   -0.0200 P.3    72  DT72        0.5411
   1445  OP1        4.1820   -2.5140    0.8950 O.2    72  DT72       -0.2272
   1446  OP2        1.9530   -3.6870    0.3680 O.2    72  DT72       -0.2272
   1447  O5'        2.3430   -1.3380   -0.3570 O.3    72  DT72       -0.2722
   1448  C5'        1.8900   -0.4960    0.6920 C.3    72  DT72        0.1850
   1449  C4'        1.6800    0.9150    0.1980 C.3    72  DT72        0.1755
   1450  O4'        0.4030    1.0060   -0.4960 O.3    72  DT72       -0.3510
   1451  C3'        1.5570    1.9060    1.3430 C.3    72  DT72        0.1839
   1452  O3'        2.8350    2.3390    1.7850 O.3    72  DT72       -0.2204
   1453  C2'        0.6830    3.0050    0.7560 C.3    72  DT72        0.0676
   1454  C1'       -0.2840    2.1850   -0.1000 C.3    72  DT72        0.1450
   1455  N1        -0.9510    0.3900   -1.7690 N.2    72  DT72       -0.1608
   1456  C2        -2.2990    0.4340   -2.0710 C.1    72  DT72        0.2395
   1457  O2        -3.0480    1.2940   -1.6400 O.2    72  DT72       -0.2041
   1458  N3        -2.7420   -0.5690   -2.8980 N.am   72  DT72       -0.0881
   1459  C4        -1.9900   -1.5890   -3.4420 C.2    72  DT72        0.2768
   1460  O4        -2.5310   -2.4180   -4.1700 O.2    72  DT72       -0.2676
   1461  C5        -0.6010   -1.5670   -3.0810 C.2    72  DT72        0.0541
   1462  C6        -0.1430   -0.6030   -2.2780 C.2    72  DT72        0.1126
   1463  C7         0.3010   -2.6370   -3.6220 C.3    72  DT72        0.0376
@<TRIPOS>BOND
     1  1119  1120    1
     2  1119  1118    1
     3  1120  1121    1
     4  1120  1122    1
     5  1121  1125    1
     6  1138  1137    2
     7  1123  1122    1
     8  1123  1137    1
     9  1118  1115    1
    10  1122  1124    1
    11  1125  1124    1
    12  1125  1126    1
    13  1137  1140    1
    14  1137  1139    1
    15  1117  1115    2
    16  1116  1115    1
    17  1141  1140    1
    18  1141  1142    1
    19  1115  1103    1
    20  1126  1127   ar
    21  1126  1136   ar
    22  1142  1143    1
    23  1142  1144    1
    24  1127  1128   ar
    25  1145  1144    1
    26  1145  1159    1
    27  1103  1102    1
    28  1143  1147    1
    29  1136  1135   ar
    30  1136  1129   ar
    31  1135  1133   ar
    32  1161  1159    2
    33  1160  1159    1
    34  1144  1146    1
    35  1128  1129   ar
    36  1104  1102    1
    37  1104  1105    1
    38  1102  1100    1
    39  1159  1162    1
    40  1108  1107    2
    41  1129  1130   ar
    42  1109  1107   ar
    43  1109  1110   ar
    44  1111  1110    2
    45  1147  1146    1
    46  1147  1148    1
    47  1107  1106   ar
    48  1133  1134    1
    49  1133  1132   ar
    50  1110  1112   ar
    51  1178  1176    1
    52  1106  1105    1
    53  1106  1113   ar
    54  1112  1113   ar
    55  1112  1114    1
    56  1105  1101    1
    57  1100  1099    1
    58  1100  1101    1
    59   969   968    2
    60  1149  1148   ar
    61  1149  1150   ar
    62  1130  1132   ar
    63  1130  1131    2
    64  1148  1158   ar
    65  1162  1163    1
    66   948   947    2
    67  1099  1098    1
    68  1098  1095    1
    69  1089  1088    2
    70  1176  1177   ar
    71  1176  1174   ar
    72  1090  1088   ar
    73  1090  1091   ar
    74  1163  1164    1
    75  1088  1087   ar
    76  1092  1091    1
    77  1097  1095    2
    78  1177  1170   ar
    79  1150  1151   ar
    80  1175  1174    2
    81  1158  1157   ar
    82  1158  1151   ar
    83   968   955    1
    84   968   970    1
    85   968   971    1
    86  1091  1093   ar
    87  1095  1096    1
    88  1095  1081    1
    89   951   950    1
    90   951   952    1
    91  1174  1173   ar
    92  1165  1164    1
    93  1165  1169    1
    94   947   950    1
    95   947   934    1
    96   947   949    1
    97  1157  1155   ar
    98  1087  1086   ar
    99  1087  1094   ar
   100   989   988    2
   101   955   954    1
   102  1164  1166    1
   103   934   933    1
   104  1151  1152   ar
   105   990   988    1
   106   972   971    1
   107   972   973    1
   108  1093  1094   ar
   109  1170  1169    1
   110  1170  1171   ar
   111  1086  1085   ar
   112  1094  1084   ar
   113  1169  1168    1
   114  1173  1171   ar
   115   952   954    1
   116   952   953    1
   117   988   976    1
   118   988   991    1
   119  1068  1067    1
   120  1082  1080    1
   121  1082  1083    1
   122   927   926    2
   123   954   956    1
   124   976   975    1
   125  1081  1080    1
   126  1085  1084   ar
   127  1171  1172    2
   128   930   931    1
   129   930   929    1
   130  1084  1083    1
   131  1155  1156    1
   132  1155  1154   ar
   133  1011  1009    2
   134  1166  1168    1
   135  1166  1167    1
   136  1080  1078    1
   137   933   931    1
   138   933   935    1
   139   973   975    1
   140   973   974    1
   141  1152  1154   ar
   142  1152  1153    2
   143   931   932    1
   144   975   977    1
   145  1067  1069   ar
   146  1067  1066   ar
   147  1010  1009    1
   148  1083  1079    1
   149   953   957    1
   150  1075  1073    2
   151  1069  1070   ar
   152   991   992    1
   153   929   926    1
   154  1167  1179    1
   155  1009   996    1
   156  1009  1012    1
   157   926   913    1
   158   926   928    1
   159  1181  1179    2
   160  1065  1066   ar
   161  1065  1064   ar
   162   956   957    1
   163  1066  1072   ar
   164   992   993    1
   165   935   936    1
   166   913   912    1
   167   987   985    1
   168  1076  1073    1
   169  1076  1077    1
   170   974   978    1
   171  1032  1030    2
   172  1078  1079    1
   173  1078  1077    1
   174  1179  1180    1
   175  1179  1182    1
   176  1070  1071   ar
   177   932   936    1
   178   957   958    1
   179  1073  1074    1
   180  1073  1060    1
   181   959   958   ar
   182   959   960   ar
   183  1064  1063   ar
   184   986   985   ar
   185   986   979   ar
   186  1192  1191   ar
   187  1192  1193   ar
   188   996   995    1
   189  1054  1052    2
   190   977   978    1
   191  1012  1013    1
   192  1072  1071   ar
   193  1072  1063   ar
   194  1195  1194    2
   195   985   983   ar
   196  1046  1045    2
   197   936   937    1
   198   958   967   ar
   199  1191  1190   ar
   200   995   993    1
   201   995   997    1
   202   978   979    1
   203   993   994    1
   204  1063  1062    1
   205   960   961   ar
   206   912   914    1
   207   912   910    1
   208   979   980   ar
   209  1013  1014    1
   210  1193  1194    1
   211  1193  1200   ar
   212   914   915    1
   213  1194  1196    1
   214  1030  1031    1
   215  1030  1033    1
   216  1030  1017    1
   217  1022  1021   ar
   218  1022  1023   ar
   219  1000  1001   ar
   220  1000   999   ar
   221  1182  1183    1
   222  1043  1044   ar
   223  1043  1042   ar
   224  1001  1002   ar
   225  1059  1060    1
   226  1059  1061    1
   227  1059  1057    1
   228  1045  1044    1
   229  1045  1047    1
   230   910   909    1
   231   910   911    1
   232  1021  1020   ar
   233   983   984    2
   234   983   982   ar
   235   937   938   ar
   236   937   946   ar
   237  1052  1053    1
   238  1052  1055    1
   239  1052  1038    1
   240  1190  1200   ar
   241  1190  1189    1
   242  1185  1189    1
   243  1185  1184    1
   244  1025  1024    1
   245   994   998    1
   246   938   939   ar
   247   967   961   ar
   248   967   966    1
   249  1061  1062    1
   250  1044  1051   ar
   251  1056  1057    1
   252  1056  1055    1
   253  1200  1199    1
   254   961   962    1
   255  1196  1197    2
   256  1033  1034    1
   257   909   908    1
   258  1042  1041   ar
   259   980   982   ar
   260   980   981    2
   261  1183  1184    1
   262   997   998    1
   263  1047  1048    2
   264  1062  1058    1
   265  1189  1188    1
   266  1023  1024   ar
   267  1023  1029   ar
   268   999   998    1
   269   999  1008   ar
   270  1057  1058    1
   271  1014  1016    1
   272  1014  1015    1
   273  1016  1017    1
   274  1016  1018    1
   275   915   911    1
   276   915   916    1
   277  1024  1026   ar
   278  1002  1008   ar
   279  1002  1003   ar
   280   946   945   ar
   281   946   940   ar
   282  1015  1019    1
   283   966   965    1
   284   906   905    2
   285  1184  1186    1
   286   939   940   ar
   287  1004  1003    1
   288  1020  1029   ar
   289  1020  1019    1
   290  1199  1197    1
   291   945   944   ar
   292  1197  1198    2
   293  1217  1216    2
   294   908   905    1
   295  1051  1041   ar
   296  1051  1050    1
   297  1038  1037    1
   298  1041  1040    1
   299  1037  1035    1
   300  1037  1039    1
   301  1034  1035    1
   302  1008  1007   ar
   303   962   963    1
   304   962   964    1
   305  1003  1005   ar
   306  1029  1028   ar
   307  1048  1050    1
   308  1048  1049    2
   309   940   941   ar
   310  1019  1018    1
   311  1220  1218    1
   312   916   925   ar
   313   916   917   ar
   314  1026  1027   ar
   315  1216  1218   ar
   316  1216  1215   ar
   317   965   964    2
   318   965  1280    1
   319  1198  1049    1
   320   905   907    1
   321   905   891    1
   322  1186  1188    1
   323  1186  1187    1
   324   944   943   ar
   325   924   925   ar
   326   924   923   ar
   327  1035  1036    1
   328  1039  1040    1
   329  1282  1281    1
   330  1218  1219   ar
   331   925   919   ar
   332  1036  1040    1
   333  1215  1213   ar
   334   917   918   ar
   335  1007  1006   ar
   336   941   943   ar
   337   941   942    1
   338  1298  1297    2
   339  1005  1006   ar
   340  1028  1027   ar
   341  1237  1236    2
   342  1317  1316    2
   343   923   922   ar
   344   891   890    1
   345  1280  1281   ar
   346  1280  1278   ar
   347  1219  1212   ar
   348  1281  1283   ar
   349  1187  1201    1
   350  1330  1334    1
   351  1330  1329    1
   352   919   918   ar
   353   919   920   ar
   354  1260  1259    1
   355  1257  1256    2
   356  1213  1212   ar
   357  1213  1214    2
   358  1314  1313    1
   359  1314  1310    1
   360  1314  1315    1
   361  1258  1256   ar
   362  1258  1259   ar
   363  1203  1201    2
   364  1279  1278    2
   365  1313  1311    1
   366  1297  1299   ar
   367  1297  1296   ar
   368  1334  1333    1
   369  1334  1335    1
   370  1236  1235   ar
   371  1236  1238   ar
   372  1212  1211    1
   373  1316  1315   ar
   374  1316  1318   ar
   375   922   920   ar
   376  1329  1328    1
   377  1329  1331    1
   378  1310  1309    1
   379  1299  1300   ar
   380  1278  1277   ar
   381  1256  1255   ar
   382  1337  1336    2
   383  1259  1261   ar
   384  1235  1233   ar
   385   920   921    1
   386   892   890    1
   387   892   893    1
   388   890   888    1
   389  1315  1322   ar
   390  1328  1327    1
   391   902   901    1
   392  1201  1204    1
   393  1201  1202    1
   394  1283  1284   ar
   395  1333  1331    1
   396  1309  1311    1
   397  1309  1308    1
   398  1240  1238    1
   399  1295  1296    1
   400  1295  1294    1
   401  1295  1291    1
   402  1318  1319   ar
   403  1335  1336   ar
   404  1335  1342   ar
   405  1296  1303   ar
   406  1238  1239   ar
   407  1336  1338   ar
   408  1311  1312    1
   409  1207  1211    1
   410  1207  1206    1
   411  1211  1210    1
   412  1312  1324    1
   413  1331  1332    1
   414  1294  1292    1
   415   901   903   ar
   416   901   900   ar
   417  1261  1262   ar
   418  1277  1284   ar
   419  1277  1276   ar
   420  1300  1301    1
   421  1300  1302   ar
   422  1233  1234    2
   423  1233  1232   ar
   424  1204  1205    1
   425   903   904   ar
   426  1255  1262   ar
   427  1255  1254   ar
   428  1332  1343    1
   429  1284  1274   ar
   430  1349  1348    1
   431  1349  1353    1
   432  1291  1290    1
   433  1322  1321   ar
   434  1327  1324    1
   435   888   887    1
   436   888   889    1
   437  1342  1341   ar
   438  1308  1307    1
   439  1338  1339   ar
   440  1262  1252   ar
   441  1348  1347    1
   442  1348  1350    1
   443  1319  1321   ar
   444  1319  1320    2
   445  1347  1346    1
   446   893   894    1
   447   893   889    1
   448  1239  1232   ar
   449   900   898   ar
   450  1353  1352    1
   451  1353  1354    1
   452  1325  1324    2
   453  1324  1326    1
   454  1303  1302   ar
   455  1205  1206    1
   456  1254  1253   ar
   457  1232  1231    1
   458   904   894   ar
   459   904   897   ar
   460   887   886    1
   461  1321  1323    1
   462  1206  1208    1
   463  1341  1339   ar
   464  1276  1275   ar
   465   894   895   ar
   466  1210  1208    1
   467  1339  1340    1
   468  1290  1292    1
   469  1290  1289    1
   470  1274  1273    1
   471  1274  1275   ar
   472  1292  1293    1
   473  1344  1343    2
   474  1352  1350    1
   475   898   897   ar
   476   898   899    2
   477  1208  1209    1
   478  1346  1343    1
   479  1252  1253   ar
   480  1252  1251    1
   481  1307  1304    1
   482  1343  1345    1
   483   897   896   ar
   484  1354  1361   ar
   485  1354  1355   ar
   486  1356  1355    2
   487   886   883    1
   488  1273  1272    1
   489  1273  1269    1
   490  1350  1351    1
   491  1293  1304    1
   492  1361  1360   ar
   493   884   883    2
   494  1231  1227    1
   495  1231  1230    1
   496   895   896   ar
   497  1355  1357   ar
   498  1351  1362    1
   499  1272  1270    1
   500  1223  1221    2
   501  1251  1247    1
   502  1251  1250    1
   503  1227  1226    1
   504  1289  1288    1
   505  1304  1306    2
   506  1304  1305    1
   507   883   885    1
   508   883   869    1
   509  1360  1358   ar
   510  1357  1358   ar
   511  1209  1221    1
   512  1269  1268    1
   513  1230  1228    1
   514  1247  1246    1
   515  1358  1359    1
   516  1288  1285    1
   517  1363  1362    2
   518  1250  1248    1
   519  1221  1224    1
   520  1221  1222    1
   521   869   868    1
   522  1362  1365    1
   523  1362  1364    1
   524  1270  1268    1
   525  1270  1271    1
   526  1366  1365    1
   527  1366  1367    1
   528   880   879    1
   529  1226  1228    1
   530  1226  1225    1
   531  1224  1225    1
   532  1368  1367    1
   533  1368  1372    1
   534  1228  1229    1
   535  1268  1267    1
   536  1271  1285    1
   537  1367  1369    1
   538   870   868    1
   539   870   871    1
   540   868   866    1
   541   879   878   ar
   542   879   881   ar
   543  1248  1246    1
   544  1248  1249    1
   545  1246  1245    1
   546   878   876   ar
   547  1285  1287    2
   548  1285  1286    1
   549   881   882   ar
   550  1372  1373    1
   551  1372  1371    1
   552  1244  1245    1
   553  1244  1241    1
   554  1243  1241    2
   555   876   877    2
   556   876   875   ar
   557  1265  1263    2
   558  1229  1241    1
   559  1267  1266    1
   560   882   875   ar
   561   882   872   ar
   562  1380  1373   ar
   563  1380  1379   ar
   564  1373  1374   ar
   565  1266  1263    1
   566  1241  1242    1
   567   875   874   ar
   568  1249  1263    1
   569   866   865    1
   570   866   867    1
   571  1369  1371    1
   572  1369  1370    1
   573   871   872    1
   574   871   867    1
   575   872   873   ar
   576  1263  1264    1
   577  1379  1377   ar
   578  1375  1374    2
   579  1374  1376   ar
   580   864   865    1
   581   864   861    1
   582  1370  1381    1
   583   874   873   ar
   584   863   861    2
   585   862   861    1
   586  1377  1376   ar
   587  1377  1378    1
   588   861   850    1
   589  1382  1381    2
   590  1381  1384    1
   591  1381  1383    1
   592   850   849    1
   593  1384  1385    1
   594   858   857    1
   595  1387  1391    1
   596  1387  1386    1
   597   849   851    1
   598   849   847    1
   599   856   857   ar
   600   856   854   ar
   601   857   859   ar
   602   855   854    2
   603   854   853   ar
   604  1393  1394   ar
   605  1393  1392   ar
   606   851   852    1
   607   859   860   ar
   608  1385  1386    1
   609  1391  1392    1
   610  1391  1390    1
   611  1394  1395   ar
   612  1392  1402   ar
   613  1386  1388    1
   614   853   860   ar
   615   853   852    1
   616   844   842    2
   617   846   847    1
   618   846   845    1
   619  1395  1402   ar
   620  1395  1396   ar
   621   847   848    1
   622  1402  1401   ar
   623   852   848    1
   624  1396  1397    2
   625  1396  1398   ar
   626  1401  1399   ar
   627  1390  1388    1
   628   843   842    1
   629   842   845    1
   630   842   831    1
   631  1388  1389    1
   632  1398  1399   ar
   633  1399  1400    1
   634   839   838    1
   635  1389  1403    1
   636   838   837   ar
   637   838   840   ar
   638   837   835   ar
   639  1422  1420    1
   640   831   830    1
   641   840   841   ar
   642   835   836    2
   643   835   834   ar
   644   830   832    1
   645   830   828    1
   646   832   833    1
   647   841   834   ar
   648  1420  1421   ar
   649  1420  1418   ar
   650   834   833    1
   651  1403  1405    2
   652  1403  1404    1
   653  1403  1406    1
   654  1419  1418    2
   655  1421  1414   ar
   656   825   823    2
   657  1418  1417   ar
   658  1409  1408    1
   659  1409  1413    1
   660  1406  1407    1
   661   833   829    1
   662  1407  1408    1
   663  1414  1413    1
   664  1414  1415   ar
   665   826   827    1
   666   826   823    1
   667   828   827    1
   668   828   829    1
   669   765   764    2
   670  1417  1415   ar
   671   744   743    2
   672   823   824    1
   673   823   811    1
   674  1408  1410    1
   675  1413  1412    1
   676   725   724    2
   677   819   818    2
   678  1415  1416    2
   679   745   743    1
   680   822   820    1
   681   766   764    1
   682   818   820   ar
   683   818   817   ar
   684   785   783    1
   685   743   732    1
   686   743   746    1
   687   764   767    1
   688   764   751    1
   689   820   821   ar
   690   726   724    1
   691   805   803    2
   692   817   815   ar
   693   724   713    1
   694   724   727    1
   695   802   800    1
   696   784   783    2
   697  1410  1412    1
   698  1410  1411    1
   699   811   810    1
   700   767   768    1
   701   821   814   ar
   702   810   812    1
   703   810   808    1
   704   799   798    2
   705   804   803    1
   706   815   814   ar
   707   815   816    2
   708   806   803    1
   709   806   807    1
   710   732   731    1
   711   803   791    1
   712  1439  1438    1
   713   713   712    1
   714   746   747    1
   715   727   728    1
   716   814   813    1
   717   751   750    1
   718   800   798   ar
   719   800   801   ar
   720   728   729    1
   721  1411  1423    1
   722   812   813    1
   723   798   797   ar
   724  1436  1437   ar
   725  1436  1435   ar
   726   768   769    1
   727   747   748    1
   728   807   808    1
   729   706   705    2
   730   781   782   ar
   731   781   779   ar
   732  1438  1437   ar
   733  1438  1440   ar
   734   808   809    1
   735   731   729    1
   736   731   733    1
   737   750   748    1
   738   750   752    1
   739  1437  1443   ar
   740  1435  1434   ar
   741   772   786    1
   742   772   771    1
   743   709   710    1
   744   709   708    1
   745   780   779    1
   746   786   787    1
   747   813   809    1
   748   801   794   ar
   749   791   790    1
   750   712   710    1
   751   712   714    1
   752   782   775   ar
   753   771   769    1
   754   771   773    1
   755   729   730    1
   756  1425  1423    2
   757   790   792    1
   758   790   788    1
   759   797   795   ar
   760  1440  1441   ar
   761   779   778   ar
   762   748   749    1
   763   769   770    1
   764   710   711    1
   765   787   788    1
   766   708   705    1
   767  1443  1434   ar
   768  1443  1442   ar
   769  1434  1433    1
   770  1423  1424    1
   771  1423  1426    1
   772   705   707    1
   773   705   692    1
   774   794   795   ar
   775   794   793    1
   776   792   793    1
   777   755   756   ar
   778   755   754   ar
   779   752   753    1
   780  1429  1433    1
   781  1429  1428    1
   782   756   757   ar
   783   770   774    1
   784  1441  1442   ar
   785   733   734    1
   786   795   796    2
   787   788   789    1
   788   714   715    1
   789   775   774    1
   790   775   776   ar
   791   773   774    1
   792  1433  1432    1
   793   730   734    1
   794   778   776   ar
   795   749   753    1
   796   742   741   ar
   797   742   735   ar
   798   793   789    1
   799   754   753    1
   800   754   763   ar
   801  1426  1427    1
   802   757   763   ar
   803   757   758   ar
   804   776   777    2
   805   711   715    1
   806   741   739   ar
   807   759   758    1
   808  1427  1428    1
   809   734   735    1
   810   692   691    1
   811  1428  1430    1
   812   735   736   ar
   813   763   762   ar
   814   758   760   ar
   815   715   716    1
   816  1460  1459    2
   817   723   716   ar
   818   723   722   ar
   819  1432  1430    1
   820  1463  1461    1
   821   739   740    1
   822   739   738   ar
   823   716   717   ar
   824   762   761   ar
   825   760   761   ar
   826   685   684    2
   827  1459  1461    1
   828  1459  1458   am
   829  1430  1431    1
   830   736   738   ar
   831   736   737    2
   832   722   720   ar
   833   691   693    1
   834   691   689    1
   835  1461  1462    2
   836  1458  1456   am
   837   717   718    2
   838   717   719   ar
   839   693   694    1
   840   720   719   ar
   841   720   721    1
   842   686   684    1
   843   684   687    1
   844   684   671    1
   845  1462  1455    1
   846   687   688    1
   847   688   689    1
   848   689   690    1
   849  1456  1455    2
   850  1456  1457    2
   851    14    13    1
   852   694   690    1
   853   694   695    1
   854   671   670    1
   855    11    12   ar
   856    11    10   ar
   857    13    12   ar
   858    13    15   ar
   859   695   696   ar
   860   695   704   ar
   861   696   697   ar
   862  1450  1454    1
   863  1450  1449    1
   864  1447  1444    1
   865  1447  1448    1
   866    12    18   ar
   867   704   703   ar
   868   704   698   ar
   869   697   698   ar
   870  1454  1453    1
   871    15    16   ar
   872  1444  1446    2
   873  1444  1445    2
   874   703   702   ar
   875    10     9   ar
   876   698   699   ar
   877  1449  1448    1
   878  1449  1451    1
   879   670   668    1
   880   670   672    1
   881   664   663    2
   882     1     2    1
   883   702   701   ar
   884   667   668    1
   885   667   666    1
   886   699   701   ar
   887   699   700    1
   888  1453  1451    1
   889    18     9   ar
   890    18    17   ar
   891    32    31    2
   892    16    17   ar
   893     9     8    1
   894   668   669    1
   895     2     3    1
   896   672   673    1
   897  1451  1452    1
   898    25    29    1
   899    25    24    1
   900     4     8    1
   901     4     3    1
   902   666   663    1
   903    31    30   ar
   904    31    33   ar
   905    29    30    1
   906    29    28    1
   907   663   665    1
   908   663   649    1
   909    30    37   ar
   910    33    34   ar
   911     8     7    1
   912     3     5    1
   913   669   673    1
   914    24    23    1
   915    24    26    1
   916   673   674    1
   917    37    36   ar
   918    34    35    2
   919    34    36   ar
   920    28    26    1
   921   682   683   ar
   922   682   681   ar
   923   674   683   ar
   924   674   675   ar
   925   683   677   ar
   926   681   680   ar
   927    23    22    1
   928    36    38    1
   929   675   676   ar
   930     5     7    1
   931     5     6    1
   932   680   678   ar
   933   677   676   ar
   934   677   678   ar
   935    45    49    1
   936    45    44    1
   937   649   648    1
   938   678   679    1
   939    26    27    1
   940   642   641    2
   941    49    50    1
   942    49    48    1
   943    22    19    1
   944    44    43    1
   945    44    46    1
   946     6    19    1
   947    43    42    1
   948    52    51    2
   949    27    39    1
   950   648   650    1
   951   648   646    1
   952    50    51   ar
   953    50    57   ar
   954    48    46    1
   955    51    53   ar
   956    19    20    2
   957    19    21    1
   958   641   643    1
   959   641   644    1
   960   641   628    1
   961    57    56   ar
   962   650   651    1
   963    46    47    1
   964    64    68    1
   965    64    63    1
   966    53    54   ar
   967    42    39    1
   968    47    58    1
   969    56    54   ar
   970    71    70    2
   971   646   645    1
   972   646   647    1
   973   645   644    1
   974    68    69    1
   975    68    67    1
   976    54    55    1
   977    39    41    2
   978    39    40    1
   979   657   656    2
   980    63    62    1
   981    63    65    1
   982    62    61    1
   983   656   658   ar
   984   656   655   ar
   985    70    69   ar
   986    70    72   ar
   987   628   627    1
   988    69    76   ar
   989   658   659   ar
   990   654   655   ar
   991   654   653   ar
   992   655   662   ar
   993   659   660    1
   994   659   661   ar
   995   653   652   ar
   996   662   661   ar
   997   662   652   ar
   998   651   652    1
   999   651   647    1
  1000    72    73   ar
  1001    76    75   ar
  1002    61    58    1
  1003    67    65    1
  1004    58    59    2
  1005    58    60    1
  1006    73    75   ar
  1007    73    74    1
  1008   627   629    1
  1009   627   625    1
  1010    65    66    1
  1011    66    77    1
  1012   629   630    1
  1013   624   625    1
  1014   624   623    1
  1015   621   620    2
  1016   625   626    1
  1017   622   620    1
  1018   623   620    1
  1019   620   607    1
  1020    83    87    1
  1021    83    82    1
  1022    88    87    1
  1023    88    98   ar
  1024    88    89   ar
  1025    97    98   ar
  1026    97    95   ar
  1027    87    86    1
  1028   630   626    1
  1029   630   631    1
  1030    98    91   ar
  1031    77    78    2
  1032    77    80    1
  1033    77    79    1
  1034    96    95    1
  1035   632   631   ar
  1036   632   633   ar
  1037    89    90   ar
  1038    95    94   ar
  1039   631   640   ar
  1040    82    81    1
  1041    82    84    1
  1042    91    90   ar
  1043    91    92   ar
  1044    81    80    1
  1045   633   634   ar
  1046   607   606    1
  1047    94    92   ar
  1048    92    93    2
  1049   640   634   ar
  1050   640   639   ar
  1051   634   635   ar
  1052   639   638   ar
  1053   635   636    1
  1054   635   637   ar
  1055   638   637   ar
  1056   606   608    1
  1057   606   604    1
  1058    86    84    1
  1059    84    85    1
  1060   608   609    1
  1061   600   599    2
  1062    85    99    1
  1063   112   111    2
  1064   105   109    1
  1065   105   104    1
  1066   604   603    1
  1067   604   605    1
  1068   111   113   ar
  1069   111   110   ar
  1070   603   602    1
  1071   113   114   ar
  1072   109   110    1
  1073   109   108    1
  1074   110   117   ar
  1075   114   115    2
  1076   114   116   ar
  1077   599   602    1
  1078   599   601    1
  1079   599   585    1
  1080   617   618   ar
  1081   617   616   ar
  1082   618   619   ar
  1083   609   610    1
  1084   609   605    1
  1085   616   614   ar
  1086   117   116   ar
  1087   116   118    1
  1088   619   610   ar
  1089   619   613   ar
  1090   614   613   ar
  1091   614   615    1
  1092   610   611   ar
  1093   613   612   ar
  1094   104   103    1
  1095   104   106    1
  1096   611   612   ar
  1097   103   102    1
  1098    99   101    2
  1099    99   102    1
  1100    99   100    1
  1101   108   106    1
  1102   585   584    1
  1103   106   107    1
  1104   584   586    1
  1105   584   582    1
  1106   107   119    1
  1107   579   577    2
  1108   581   582    1
  1109   581   580    1
  1110   125   129    1
  1111   125   124    1
  1112   578   577    1
  1113   137   136   ar
  1114   137   130   ar
  1115   136   134   ar
  1116   130   129    1
  1117   130   131   ar
  1118   134   135    1
  1119   134   133   ar
  1120   129   128    1
  1121   593   592    2
  1122   586   587    1
  1123   131   133   ar
  1124   131   132    2
  1125   582   583    1
  1126   592   594   ar
  1127   592   591   ar
  1128   577   580    1
  1129   577   565    1
  1130   590   591   ar
  1131   590   589   ar
  1132   594   595   ar
  1133   591   598   ar
  1134   589   588   ar
  1135   595   596    1
  1136   595   597   ar
  1137   598   588   ar
  1138   598   597   ar
  1139   588   587    1
  1140   124   123    1
  1141   124   126    1
  1142   123   122    1
  1143   119   122    1
  1144   119   121    2
  1145   119   120    1
  1146   559   557    2
  1147   587   583    1
  1148   128   126    1
  1149   558   557    1
  1150   565   564    1
  1151   126   127    1
  1152   576   574    1
  1153   573   572    2
  1154   557   560    1
  1155   557   545    1
  1156   564   566    1
  1157   564   562    1
  1158   560   561    1
  1159   572   574    1
  1160   572   571   am
  1161   574   575    2
  1162   144   148    1
  1163   144   143    1
  1164   566   567    1
  1165   127   138    1
  1166   571   569   am
  1167   150   151   ar
  1168   150   149   ar
  1169   151   152   ar
  1170   575   568    1
  1171   149   158   ar
  1172   149   148    1
  1173   152   158   ar
  1174   152   153   ar
  1175   154   153    1
  1176   158   157   ar
  1177   153   155   ar
  1178   561   562    1
  1179   142   141    1
  1180   142   143    1
  1181   157   156   ar
  1182   155   156   ar
  1183   148   147    1
  1184   569   568    1
  1185   569   570    2
  1186   568   567    1
  1187   568   550    1
  1188   141   138    1
  1189   562   563    1
  1190   545   544    1
  1191   143   145    1
  1192   567   563    1
  1193   544   546    1
  1194   544   542    1
  1195   140   138    2
  1196   138   139    1
  1197   553   552    2
  1198   546   547    1
  1199   551   552   ar
  1200   551   549   ar
  1201   552   554   ar
  1202   550   549    1
  1203   147   145    1
  1204   549   548   ar
  1205   145   146    1
  1206   554   556    1
  1207   554   555   ar
  1208   548   555   ar
  1209   548   547    1
  1210   538   537    2
  1211   540   541    1
  1212   540   537    1
  1213   541   542    1
  1214   542   543    1
  1215   547   543    1
  1216   146   159    1
  1217   539   537    1
  1218   537   523    1
  1219   165   169    1
  1220   165   164    1
  1221   170   177   ar
  1222   170   171   ar
  1223   170   169    1
  1224   172   171    2
  1225   177   176   ar
  1226   171   173   ar
  1227   176   174   ar
  1228   173   174   ar
  1229   174   175    1
  1230   169   168    1
  1231   163   164    1
  1232   163   162    1
  1233   531   530    2
  1234   159   161    2
  1235   159   162    1
  1236   159   160    1
  1237   164   166    1
  1238   523   522    1
  1239   530   532   ar
  1240   530   529   ar
  1241   532   533   ar
  1242   522   524    1
  1243   522   520    1
  1244   517   515    2
  1245   529   528   ar
  1246   529   536   ar
  1247   528   527   ar
  1248   168   166    1
  1249   533   534    1
  1250   533   535   ar
  1251   516   515    1
  1252   518   515    1
  1253   518   519    1
  1254   524   525    1
  1255   527   526   ar
  1256   536   535   ar
  1257   536   526   ar
  1258   166   167    1
  1259   515   503    1
  1260   526   525    1
  1261   519   520    1
  1262   520   521    1
  1263   167   178    1
  1264   477   476    2
  1265   525   521    1
  1266   457   456    2
  1267   497   495    2
  1268   496   495    1
  1269   438   437    2
  1270   503   502    1
  1271   478   476    1
  1272   514   512    1
  1273   184   188    1
  1274   184   183    1
  1275   511   510    2
  1276   194   193    1
  1277   191   190   ar
  1278   191   192   ar
  1279   495   498    1
  1280   495   484    1
  1281   190   189   ar
  1282   476   479    1
  1283   476   464    1
  1284   498   499    1
  1285   192   193   ar
  1286   192   198   ar
  1287   193   195   ar
  1288   178   180    2
  1289   178   181    1
  1290   178   179    1
  1291   510   512   ar
  1292   510   509   ar
  1293   189   198   ar
  1294   189   188    1
  1295   182   181    1
  1296   182   183    1
  1297   512   513   ar
  1298   198   197   ar
  1299   195   196   ar
  1300   502   504    1
  1301   502   500    1
  1302   419   418    2
  1303   456   458    1
  1304   456   459    1
  1305   456   445    1
  1306   188   187    1
  1307   196   197   ar
  1308   439   437    1
  1309   484   483    1
  1310   437   440    1
  1311   437   426    1
  1312   183   185    1
  1313   509   507   ar
  1314   513   506   ar
  1315   499   500    1
  1316   504   505    1
  1317   459   460    1
  1318   479   480    1
  1319   464   463    1
  1320   507   506   ar
  1321   507   508    2
  1322   506   505    1
  1323   483   481    1
  1324   483   485    1
  1325   445   444    1
  1326   500   501    1
  1327   460   461    1
  1328   480   481    1
  1329   440   441    1
  1330   441   442    1
  1331   418   420    1
  1332   418   421    1
  1333   418   406    1
  1334   426   425    1
  1335   187   185    1
  1336   505   501    1
  1337   185   186    1
  1338   493   494   ar
  1339   493   491   ar
  1340   399   398    2
  1341   463   461    1
  1342   463   465    1
  1343   481   482    1
  1344   492   491    1
  1345   494   487   ar
  1346   444   442    1
  1347   444   446    1
  1348   421   422    1
  1349   485   486    1
  1350   461   462    1
  1351   491   490   ar
  1352   406   405    1
  1353   422   423    1
  1354   442   443    1
  1355   215   214    1
  1356   475   473    1
  1357   425   423    1
  1358   425   427    1
  1359   487   486    1
  1360   487   488   ar
  1361   186   199    1
  1362   482   486    1
  1363   490   488   ar
  1364   423   424    1
  1365   214   213   ar
  1366   214   216   ar
  1367   402   403    1
  1368   402   401    1
  1369   398   400    1
  1370   398   401    1
  1371   398   386    1
  1372   465   466    1
  1373   488   489    2
  1374   213   211   ar
  1375   474   473   ar
  1376   474   467   ar
  1377   462   466    1
  1378   216   217   ar
  1379   473   471   ar
  1380   446   447    1
  1381   405   403    1
  1382   405   407    1
  1383   443   447    1
  1384   211   212    2
  1385   211   210   ar
  1386   427   428    1
  1387   403   404    1
  1388   217   210   ar
  1389   455   454   ar
  1390   455   448   ar
  1391   467   466    1
  1392   467   468   ar
  1393   205   209    1
  1394   205   204    1
  1395   210   209    1
  1396   386   385    1
  1397   201   199    2
  1398   454   452   ar
  1399   375   374   ar
  1400   375   376   ar
  1401   471   472    2
  1402   471   470   ar
  1403   199   202    1
  1404   199   200    1
  1405   447   448    1
  1406   374   372   ar
  1407   424   428    1
  1408   209   208    1
  1409   407   408    1
  1410   448   449   ar
  1411   468   470   ar
  1412   468   469    2
  1413   202   203    1
  1414   436   435   ar
  1415   436   429   ar
  1416   376   377   ar
  1417   428   429    1
  1418   379   378    2
  1419   452   453    1
  1420   452   451   ar
  1421   203   204    1
  1422   234   233    1
  1423   372   373    1
  1424   372   371   ar
  1425   435   433   ar
  1426   404   408    1
  1427   204   206    1
  1428   385   383    1
  1429   385   387    1
  1430   429   430   ar
  1431   449   451   ar
  1432   449   450    2
  1433   382   383    1
  1434   382   381    1
  1435   408   409    1
  1436   377   371   ar
  1437   377   368   ar
  1438   233   232   ar
  1439   233   235   ar
  1440   208   206    1
  1441   383   384    1
  1442   371   370   ar
  1443   381   378    1
  1444   232   230   ar
  1445   433   434    1
  1446   433   432   ar
  1447   235   236   ar
  1448   378   365    1
  1449   378   380    1
  1450   387   388    1
  1451   365   364    1
  1452   206   207    1
  1453   416   409   ar
  1454   416   415   ar
  1455   430   432   ar
  1456   430   431    2
  1457   366   367    1
  1458   366   364    1
  1459   409   410   ar
  1460   367   368    1
  1461   367   363    1
  1462   368   369   ar
  1463   417   415    1
  1464   230   231    2
  1465   230   229   ar
  1466   236   229   ar
  1467   415   413   ar
  1468   370   369   ar
  1469   364   362    1
  1470   229   228    1
  1471   384   388    1
  1472   410   411    2
  1473   410   412   ar
  1474   253   252    2
  1475   207   218    1
  1476   388   389    1
  1477   251   252   ar
  1478   251   249   ar
  1479   250   249    2
  1480   413   412   ar
  1481   413   414    2
  1482   252   254   ar
  1483   363   362    1
  1484   228   224    1
  1485   228   227    1
  1486   273   272    2
  1487   224   223    1
  1488   249   248   ar
  1489   220   218    2
  1490   274   272   ar
  1491   274   275   ar
  1492   362   361    1
  1493   396   389   ar
  1494   396   395   ar
  1495   389   390   ar
  1496   276   275    1
  1497   272   271   ar
  1498   218   221    1
  1499   218   219    1
  1500   221   222    1
  1501   275   277   ar
  1502   254   256    1
  1503   254   255   ar
  1504   358   357    1
  1505   358   345    1
  1506   397   395    1
  1507   395   393   ar
  1508   248   255   ar
  1509   248   247    1
  1510   390   391    2
  1511   390   392   ar
  1512   222   223    1
  1513   227   225    1
  1514   223   225    1
  1515   271   278   ar
  1516   271   270   ar
  1517   360   361    1
  1518   360   357    1
  1519   359   357    1
  1520   277   278   ar
  1521   247   243    1
  1522   247   246    1
  1523   392   393   ar
  1524   393   394    2
  1525   345   344    1
  1526   278   268   ar
  1527   243   242    1
  1528   225   226    1
  1529   270   269   ar
  1530   292   291    2
  1531   293   291   ar
  1532   293   294   ar
  1533   295   294    1
  1534   311   310    2
  1535   269   268   ar
  1536   268   267    1
  1537   346   344    1
  1538   346   347    1
  1539   291   290   ar
  1540   246   244    1
  1541   294   296   ar
  1542   344   342    1
  1543   331   330    2
  1544   242   241    1
  1545   242   244    1
  1546   226   237    1
  1547   310   312   ar
  1548   310   309   ar
  1549   347   343    1
  1550   347   348    1
  1551   240   241    1
  1552   240   237    1
  1553   342   343    1
  1554   342   341    1
  1555   312   313   ar
  1556   267   263    1
  1557   267   266    1
  1558   239   237    2
  1559   350   349    2
  1560   244   245    1
  1561   290   297   ar
  1562   290   289    1
  1563   327   328    1
  1564   327   325    1
  1565   308   309    1
  1566   308   307    1
  1567   308   304    1
  1568   328   329    1
  1569   328   324    1
  1570   296   297   ar
  1571   330   332   ar
  1572   330   329   ar
  1573   237   238    1
  1574   263   262    1
  1575   309   316   ar
  1576   289   285    1
  1577   289   288    1
  1578   332   333   ar
  1579   313   314    2
  1580   313   315   ar
  1581   307   305    1
  1582   329   336   ar
  1583   338   337    2
  1584   266   264    1
  1585   304   303    1
  1586   324   323    1
  1587   349   348   ar
  1588   349   351   ar
  1589   341   340    1
  1590   348   355   ar
  1591   245   257    1
  1592   316   315   ar
  1593   285   284    1
  1594   325   326    1
  1595   325   323    1
  1596   288   286    1
  1597   315   317    1
  1598   326   337    1
  1599   323   322    1
  1600   260   257    1
  1601   260   261    1
  1602   333   334    1
  1603   333   335   ar
  1604   336   335   ar
  1605   262   264    1
  1606   262   261    1
  1607   259   257    2
  1608   340   337    1
  1609   303   305    1
  1610   303   302    1
  1611   264   265    1
  1612   337   339    1
  1613   305   306    1
  1614   351   352   ar
  1615   257   258    1
  1616   355   354   ar
  1617   284   286    1
  1618   284   283    1
  1619   286   287    1
  1620   306   318    1
  1621   322   321    1
  1622   321   318    1
  1623   302   301    1
  1624   265   279    1
  1625   282   283    1
  1626   282   279    1
  1627   352   354   ar
  1628   352   353    2
  1629   354   356    1
  1630   301   298    1
  1631   287   298    1
  1632   281   279    2
  1633   318   320    2
  1634   318   319    1
  1635   279   280    1
  1636   298   300    2
  1637   298   299    1
