FB1.pdb
  RxDock  10092022013D
librxdock.so/0.1.0
 59 58  0  0  0  0  0  0  0  0999 V2000
   -1.3752   -9.2625    0.7467 C   0  0  0  0  0  0
   -1.5254   -8.0145   -0.1201 C   0  0  0  0  0  0
   -0.4263   -6.9805    0.1752 C   0  0  0  0  0  0
   -0.9717   -5.6405    0.7288 C   0  0  0  0  0  0
    0.1249   -4.5791    1.0912 C   0  0  0  0  0  0
    0.1903   -3.5391   -0.0512 C   0  0  0  0  0  0
   -0.1172   -3.8707    2.4903 C   0  0  0  0  0  0
   -1.5720   -3.2517    2.7481 C   0  0  0  0  0  0
   -2.9016   -4.0972    2.9615 C   0  0  0  0  0  0
   -4.3029   -3.2935    2.6273 C   0  0  0  0  0  0
   -4.2817   -2.8713    1.1592 C   0  0  0  0  0  0
   -5.6557   -4.0797    2.9383 C   0  0  0  0  0  0
   -7.1353   -3.4625    2.7182 C   0  0  0  0  0  0
   -7.3889   -1.9240    2.5605 C   0  0  0  0  0  0
   -7.5043   -1.0360    3.8824 C   0  0  0  0  0  0
   -8.8346   -0.3391    4.3714 C   0  0  0  0  0  0
  -10.2050   -0.9779    4.0232 C   0  0  0  0  0  0
  -10.4987   -1.2278    2.4934 C   0  0  0  0  0  0
   -9.8390   -0.2558    1.5073 C   0  0  0  0  0  0
  -10.0428   -0.4984   -0.0152 C   0  0  0  0  0  0
   -9.9213   -1.9321   -0.6113 C   0  0  0  0  0  0
  -10.1121   -2.0584   -2.1163 C   0  0  0  0  0  0
   -8.6640   -2.5743   -0.1834 N   0  0  0  0  0  0
  -11.4141   -0.1007   -0.2705 O   0  0  0  0  0  0
  -10.0748   -2.5574    2.1737 O   0  0  0  0  0  0
   -7.6006   -4.0473    1.4901 O   0  0  0  0  0  0
   -1.4624   -2.4437    3.9513 O   0  0  0  0  0  0
   -0.5517   -1.4360    3.9368 C   0  0  0  0  0  0
    0.5646   -1.4820    3.4559 O   0  0  0  0  0  0
   -1.1898   -0.2092    4.5278 C   0  0  0  0  0  0
   -0.6505    1.0917    3.9119 C   0  0  0  0  0  0
   -1.2639    1.3910    2.5380 C   0  0  0  0  0  0
   -0.6863    0.4865    1.4744 C   0  0  0  0  0  0
   -1.1234   -0.6316    1.2242 O   0  0  0  0  0  0
    0.3555    1.0247    0.8233 O   0  0  0  0  0  0
   -1.0101    2.2080    4.9022 C   0  0  0  0  0  0
   -0.1717    2.8511    5.5153 O   0  0  0  0  0  0
   -2.3263    2.3884    5.0782 O   0  0  0  0  0  0
    0.3239   -4.7355    3.6117 O   0  0  0  0  0  0
    0.1440   -6.1040    3.4988 C   0  0  0  0  0  0
    0.7505   -6.8239    2.7164 O   0  0  0  0  0  0
   -0.9138   -6.6362    4.4747 C   0  0  0  0  0  0
   -1.5701   -7.9974    4.0861 C   0  0  0  0  0  0
   -1.0457   -9.2741    4.7683 C   0  0  0  0  0  0
   -0.1915  -10.1142    3.8633 C   0  0  0  0  0  0
   -0.2282  -11.3340    3.7772 O   0  0  0  0  0  0
    0.6391   -9.3764    3.1109 O   0  0  0  0  0  0
   -3.0998   -8.0217    4.1942 C   0  0  0  0  0  0
   -3.8265   -8.2034    3.2374 O   0  0  0  0  0  0
   -3.5935   -7.9341    5.4472 O   0  0  0  0  0  0
   -8.0968   -2.7787   -1.0050 H   0  0  0  0  0  0
   -8.8843   -3.4882    0.2187 H   0  0  0  0  0  0
  -11.3947    0.8794   -0.2490 H   0  0  0  0  0  0
  -10.6815   -3.1834    2.6103 H   0  0  0  0  0  0
   -7.0304   -3.7289    0.7704 H   0  0  0  0  0  0
    0.6165    1.9174    1.1207 H   0  0  0  0  0  0
   -2.5601    3.0285    5.7954 H   0  0  0  0  0  0
    1.2114  -10.0059    2.6237 H   0  0  0  0  0  0
   -2.9277   -7.7613    6.1495 H   0  0  0  0  0  0
  1  2  1  0  0  0
  2  3  1  0  0  0
  3  4  1  0  0  0
  4  5  1  0  0  0
  5  6  1  0  0  0
  5  7  1  0  0  0
  7  8  1  0  0  0
  7 39  1  0  0  0
  8  9  1  0  0  0
  8 27  1  0  0  0
  9 10  1  0  0  0
 10 11  1  0  0  0
 10 12  1  0  0  0
 12 13  1  0  0  0
 13 14  1  0  0  0
 13 26  1  0  0  0
 14 15  1  0  0  0
 15 16  1  0  0  0
 16 17  1  0  0  0
 17 18  1  0  0  0
 18 19  1  0  0  0
 18 25  1  0  0  0
 19 20  1  0  0  0
 20 21  1  0  0  0
 20 24  1  0  0  0
 21 22  1  0  0  0
 21 23  1  0  0  0
 23 51  1  0  0  0
 23 52  1  0  0  0
 24 53  1  0  0  0
 25 54  1  0  0  0
 26 55  1  0  0  0
 27 28  1  0  0  0
 28 29  2  0  0  0
 28 30  1  0  0  0
 30 31  1  0  0  0
 31 32  1  0  0  0
 31 36  1  0  0  0
 32 33  1  0  0  0
 33 34  2  0  0  0
 33 35  1  0  0  0
 35 56  1  0  0  0
 36 37  2  0  0  0
 36 38  1  0  0  0
 38 57  1  0  0  0
 39 40  1  0  0  0
 40 41  2  0  0  0
 40 42  1  0  0  0
 42 43  1  0  0  0
 43 44  1  0  0  0
 43 48  1  0  0  0
 44 45  1  0  0  0
 45 46  2  0  0  0
 45 47  1  0  0  0
 47 58  1  0  0  0
 48 49  2  0  0  0
 48 50  1  0  0  0
 50 59  1  0  0  0
M  END
>  <AUTHOR>
    GENERATED BY OPEN BABEL 2.4.1

>  <CHROM.1>
-117.33282052,177.87827140,101.42004928,-50.76750262,69.76656642,-35.83843545
-157.26496431,58.19407954,60.55561729,178.46173033,-17.41599576,-83.14448591
-64.86783207,-111.90070610,29.16686607,-56.13491566,-29.96690813,177.19341267
69.73849167,-44.08570400,-178.86110930,74.90892712,-118.40684368,-40.32713358
-148.38586930,78.46670979,-74.58853010,114.58670063,86.14419628,0.78154765
172.87552660,68.61677056,157.89075620,99.45752103,-105.37314413,117.47070412
-138.21223133,174.57039795,6.66825221,-3.50383670,-3.47806410,2.53797340
0.61982086,0.20643623,-3.08183496

>  <COMPND>
    UNNAMED

>  <MASTER>
        0    0    0    0    0    0    0    0  109    0  109    0

>  <Name>
FB1.pdb

>  <RI>
0

>  <Rbt.Current_Directory>
/home/fc/tossine/F10/p3/1_clust04

>  <Rbt.Executable>
rbdock/0.1.0

>  <Rbt.Library>
librxdock.so/0.1.0

>  <Rbt.Parameter_File>
/cluster/rxdock/data/scripts/dock.prm

>  <Rbt.Receptor>
rx_4.prm

>  <SCORE>
22.9659

>  <SCORE.INTER>
-1.9668

>  <SCORE.INTER.CONST>
1

>  <SCORE.INTER.POLAR>
-3.73756

>  <SCORE.INTER.REPUL>
0.162948

>  <SCORE.INTER.ROT>
32

>  <SCORE.INTER.VDW>
-27.4738

>  <SCORE.INTER.norm>
-0.039336

>  <SCORE.INTRA>
22.8897

>  <SCORE.INTRA.DIHEDRAL>
43.244

>  <SCORE.INTRA.DIHEDRAL.0>
47.3121

>  <SCORE.INTRA.POLAR>
1.22854

>  <SCORE.INTRA.POLAR.0>
-1.47808

>  <SCORE.INTRA.REPUL>
0

>  <SCORE.INTRA.REPUL.0>
0

>  <SCORE.INTRA.VDW>
-2.90938

>  <SCORE.INTRA.VDW.0>
-2.78316

>  <SCORE.INTRA.norm>
0.457794

>  <SCORE.RESTR>
2.043

>  <SCORE.RESTR.CAVITY>
2.043

>  <SCORE.RESTR.norm>
0.0408599

>  <SCORE.SYSTEM>
0

>  <SCORE.SYSTEM.CONST>
0

>  <SCORE.SYSTEM.DIHEDRAL>
0

>  <SCORE.SYSTEM.norm>
0

>  <SCORE.heavy>
50

>  <SCORE.norm>
0.459317

$$$$
