FB1.pdb
  RxDock  10092018103D
librxdock.so/0.1.0
 59 58  0  0  0  0  0  0  0  0999 V2000
    2.5651   -5.5461    0.0026 C   0  0  0  0  0  0
    1.6375   -6.5531    0.6784 C   0  0  0  0  0  0
    0.4615   -5.8588    1.3851 C   0  0  0  0  0  0
   -0.7119   -5.5117    0.4353 C   0  0  0  0  0  0
   -1.6636   -4.3749    0.9475 C   0  0  0  0  0  0
   -2.5087   -3.8744   -0.2467 C   0  0  0  0  0  0
   -2.5936   -4.8228    2.1527 C   0  0  0  0  0  0
   -3.9870   -4.0504    2.3199 C   0  0  0  0  0  0
   -5.1694   -4.4949    3.2856 C   0  0  0  0  0  0
   -6.5658   -3.6314    3.1250 C   0  0  0  0  0  0
   -6.3081   -2.2006    3.5947 C   0  0  0  0  0  0
   -7.2140   -3.6074    1.6676 C   0  0  0  0  0  0
   -8.6047   -2.8638    1.3049 C   0  0  0  0  0  0
   -8.7603   -1.3050    1.3494 C   0  0  0  0  0  0
  -10.1331   -0.6961    1.8916 C   0  0  0  0  0  0
  -11.0263   -1.3714    3.0054 C   0  0  0  0  0  0
  -10.4131   -1.6732    4.3984 C   0  0  0  0  0  0
  -11.3927   -2.2557    5.4894 C   0  0  0  0  0  0
  -10.7367   -2.9068    6.7133 C   0  0  0  0  0  0
  -11.6477   -3.6541    7.7281 C   0  0  0  0  0  0
  -12.5732   -2.8587    8.6957 C   0  0  0  0  0  0
  -13.8810   -3.5316    9.0885 C   0  0  0  0  0  0
  -11.8285   -2.4160    9.8899 N   0  0  0  0  0  0
  -12.5495   -4.4372    6.9051 O   0  0  0  0  0  0
  -12.2371   -1.1904    5.9387 O   0  0  0  0  0  0
   -8.8743   -3.2290   -0.0591 O   0  0  0  0  0  0
   -3.6555   -2.7033    2.7533 O   0  0  0  0  0  0
   -2.3481   -2.4438    3.0152 C   0  0  0  0  0  0
   -1.6359   -3.0507    3.7922 O   0  0  0  0  0  0
   -1.8909   -1.3372    2.1054 C   0  0  0  0  0  0
   -0.9235   -0.3646    2.7987 C   0  0  0  0  0  0
   -0.7220    0.9319    2.0038 C   0  0  0  0  0  0
    0.1295    0.6932    0.7784 C   0  0  0  0  0  0
    0.3938    1.5637   -0.0438 O   0  0  0  0  0  0
    0.5739   -0.5679    0.6739 O   0  0  0  0  0  0
   -1.5479   -0.0511    4.1654 C   0  0  0  0  0  0
   -2.1887    0.9647    4.3886 O   0  0  0  0  0  0
   -1.2906   -0.9629    5.1132 O   0  0  0  0  0  0
   -2.7699   -6.2953    2.1744 O   0  0  0  0  0  0
   -1.8901   -7.0534    2.9289 C   0  0  0  0  0  0
   -1.0255   -6.5920    3.6625 O   0  0  0  0  0  0
   -2.1147   -8.5604    2.7483 C   0  0  0  0  0  0
   -2.0672   -9.0809    1.2781 C   0  0  0  0  0  0
   -2.3311  -10.5777    1.0319 C   0  0  0  0  0  0
   -1.3755  -11.1874    0.0472 C   0  0  0  0  0  0
   -0.2687  -11.6366    0.3114 O   0  0  0  0  0  0
   -1.8711  -11.2147   -1.1994 O   0  0  0  0  0  0
   -2.9475   -8.2983    0.2959 C   0  0  0  0  0  0
   -2.4913   -7.5791   -0.5709 O   0  0  0  0  0  0
   -4.2720   -8.5416    0.3844 O   0  0  0  0  0  0
  -12.1650   -1.4963   10.1715 H   0  0  0  0  0  0
  -10.8505   -2.2704    9.6295 H   0  0  0  0  0  0
  -11.9785   -5.1207    6.4951 H   0  0  0  0  0  0
  -11.6711   -0.4925    6.3169 H   0  0  0  0  0  0
   -8.0721   -3.0576   -0.5804 H   0  0  0  0  0  0
    1.1800   -0.7355   -0.0731 H   0  0  0  0  0  0
   -1.5851   -0.7044    6.0216 H   0  0  0  0  0  0
   -2.8084  -10.9339   -1.1357 H   0  0  0  0  0  0
   -4.8354   -8.0285   -0.2366 H   0  0  0  0  0  0
  1  2  1  0  0  0
  2  3  1  0  0  0
  3  4  1  0  0  0
  4  5  1  0  0  0
  5  6  1  0  0  0
  5  7  1  0  0  0
  7  8  1  0  0  0
  7 39  1  0  0  0
  8  9  1  0  0  0
  8 27  1  0  0  0
  9 10  1  0  0  0
 10 11  1  0  0  0
 10 12  1  0  0  0
 12 13  1  0  0  0
 13 14  1  0  0  0
 13 26  1  0  0  0
 14 15  1  0  0  0
 15 16  1  0  0  0
 16 17  1  0  0  0
 17 18  1  0  0  0
 18 19  1  0  0  0
 18 25  1  0  0  0
 19 20  1  0  0  0
 20 21  1  0  0  0
 20 24  1  0  0  0
 21 22  1  0  0  0
 21 23  1  0  0  0
 23 51  1  0  0  0
 23 52  1  0  0  0
 24 53  1  0  0  0
 25 54  1  0  0  0
 26 55  1  0  0  0
 27 28  1  0  0  0
 28 29  2  0  0  0
 28 30  1  0  0  0
 30 31  1  0  0  0
 31 32  1  0  0  0
 31 36  1  0  0  0
 32 33  1  0  0  0
 33 34  2  0  0  0
 33 35  1  0  0  0
 35 56  1  0  0  0
 36 37  2  0  0  0
 36 38  1  0  0  0
 38 57  1  0  0  0
 39 40  1  0  0  0
 40 41  2  0  0  0
 40 42  1  0  0  0
 42 43  1  0  0  0
 43 44  1  0  0  0
 43 48  1  0  0  0
 44 45  1  0  0  0
 45 46  2  0  0  0
 45 47  1  0  0  0
 47 58  1  0  0  0
 48 49  2  0  0  0
 48 50  1  0  0  0
 50 59  1  0  0  0
M  END
>  <AUTHOR>
    GENERATED BY OPEN BABEL 2.4.1

>  <CHROM.1>
82.81468834,-158.40839337,164.04577857,-153.33297501,168.84687473,91.68652551
-172.61366518,-5.18505834,-67.03171414,177.86438267,67.15783505,-141.76780865
-50.25398823,32.16900184,57.51806828,175.89167270,163.77084934,-172.38924046
-59.92709929,-73.44296999,148.54652996,68.51839097,143.77423277,-55.48909427
142.20315211,-166.18977685,-73.16404732,-99.17467695,177.33004763,-175.72992231
172.04848999,5.43749351,55.10559556,-178.06393535,-136.47478763,109.92090191
85.35801791,-7.78324700,179.08961452,-4.56486923,-4.05572233,2.72938795,-0.38989286
0.39578527,0.18910116

>  <COMPND>
    UNNAMED

>  <MASTER>
        0    0    0    0    0    0    0    0  109    0  109    0

>  <Name>
FB1.pdb

>  <RI>
0

>  <Rbt.Current_Directory>
/home/fc/tossine/F10/p3/1_clust04

>  <Rbt.Executable>
rbdock/0.1.0

>  <Rbt.Library>
librxdock.so/0.1.0

>  <Rbt.Parameter_File>
/cluster/rxdock/data/scripts/dock.prm

>  <Rbt.Receptor>
rx_0.prm

>  <SCORE>
19.7935

>  <SCORE.INTER>
-4.23961

>  <SCORE.INTER.CONST>
1

>  <SCORE.INTER.POLAR>
-2.99995

>  <SCORE.INTER.REPUL>
0.52765

>  <SCORE.INTER.ROT>
32

>  <SCORE.INTER.VDW>
-34.078

>  <SCORE.INTER.norm>
-0.0847922

>  <SCORE.INTRA>
21.6229

>  <SCORE.INTRA.DIHEDRAL>
19.9208

>  <SCORE.INTRA.DIHEDRAL.0>
47.3121

>  <SCORE.INTRA.POLAR>
1.47808

>  <SCORE.INTRA.POLAR.0>
-1.47808

>  <SCORE.INTRA.REPUL>
0

>  <SCORE.INTRA.REPUL.0>
0

>  <SCORE.INTRA.VDW>
6.63704

>  <SCORE.INTRA.VDW.0>
-2.78316

>  <SCORE.INTRA.norm>
0.432458

>  <SCORE.RESTR>
2.41019

>  <SCORE.RESTR.CAVITY>
2.41019

>  <SCORE.RESTR.norm>
0.0482037

>  <SCORE.SYSTEM>
0

>  <SCORE.SYSTEM.CONST>
0

>  <SCORE.SYSTEM.DIHEDRAL>
0

>  <SCORE.SYSTEM.norm>
0

>  <SCORE.heavy>
50

>  <SCORE.norm>
0.39587

$$$$
