FB1.pdb
  RxDock  10092018163D
librxdock.so/0.1.0
 59 58  0  0  0  0  0  0  0  0999 V2000
    4.9487    1.6511    2.0602 C   0  0  0  0  0  0
    3.6619    1.3202    2.8126 C   0  0  0  0  0  0
    3.2291    2.4721    3.7345 C   0  0  0  0  0  0
    2.0505    2.1047    4.6702 C   0  0  0  0  0  0
    1.5366    3.2762    5.5780 C   0  0  0  0  0  0
    1.2867    4.5111    4.6819 C   0  0  0  0  0  0
    0.2377    2.9080    6.4119 C   0  0  0  0  0  0
   -0.8361    1.9561    5.6999 C   0  0  0  0  0  0
   -0.6680    0.3901    5.4814 C   0  0  0  0  0  0
   -1.2006   -0.1741    4.0257 C   0  0  0  0  0  0
   -0.6568    0.7348    2.9247 C   0  0  0  0  0  0
   -0.8476   -1.6928    3.6884 C   0  0  0  0  0  0
   -1.1735   -2.4078    2.2738 C   0  0  0  0  0  0
   -2.6159   -2.4412    1.6618 C   0  0  0  0  0  0
   -3.6906   -3.4284    2.3094 C   0  0  0  0  0  0
   -3.6032   -5.0041    2.2433 C   0  0  0  0  0  0
   -2.3396   -5.7231    2.7853 C   0  0  0  0  0  0
   -2.3176   -7.2962    2.6668 C   0  0  0  0  0  0
   -1.0496   -7.9977    3.1694 C   0  0  0  0  0  0
    0.1089   -8.2388    2.1603 C   0  0  0  0  0  0
   -0.1876   -8.7738    0.7281 C   0  0  0  0  0  0
   -1.1753   -9.9278    0.6270 C   0  0  0  0  0  0
   -0.5695   -7.6722   -0.1758 N   0  0  0  0  0  0
    0.6982   -6.9291    1.9574 O   0  0  0  0  0  0
   -3.4395   -7.8096    3.3930 O   0  0  0  0  0  0
   -0.3733   -1.7023    1.3102 O   0  0  0  0  0  0
   -2.0636    2.0825    6.4679 O   0  0  0  0  0  0
   -2.7781    3.2263    6.3051 C   0  0  0  0  0  0
   -3.2166    3.9331    7.1926 O   0  0  0  0  0  0
   -2.8536    3.5351    4.8353 C   0  0  0  0  0  0
   -4.3004    3.6685    4.3337 C   0  0  0  0  0  0
   -5.2569    2.6915    5.0293 C   0  0  0  0  0  0
   -4.9810    1.2664    4.6094 C   0  0  0  0  0  0
   -3.8529    0.8004    4.4913 O   0  0  0  0  0  0
   -6.0927    0.5528    4.3778 O   0  0  0  0  0  0
   -4.7186    5.1149    4.6318 C   0  0  0  0  0  0
   -4.8874    5.9536    3.7597 O   0  0  0  0  0  0
   -4.8365    5.3989    5.9362 O   0  0  0  0  0  0
    0.5916    2.4264    7.7693 O   0  0  0  0  0  0
    0.5395    3.3250    8.8219 C   0  0  0  0  0  0
    0.4604    3.0110   10.0023 O   0  0  0  0  0  0
    0.5928    4.7833    8.3477 C   0  0  0  0  0  0
   -0.6109    5.6792    8.7756 C   0  0  0  0  0  0
   -0.3548    6.7874    9.8133 C   0  0  0  0  0  0
   -0.5647    6.3270   11.2270 C   0  0  0  0  0  0
   -0.4822    5.1718   11.6209 O   0  0  0  0  0  0
   -0.8447    7.3406   12.0605 O   0  0  0  0  0  0
   -1.3762    6.3181    7.6102 C   0  0  0  0  0  0
   -0.9846    6.2754    6.4606 O   0  0  0  0  0  0
   -2.5780    6.8449    7.9257 O   0  0  0  0  0  0
   -1.1685   -8.0385   -0.9144 H   0  0  0  0  0  0
    0.2689   -7.3393   -0.6573 H   0  0  0  0  0  0
    0.0537   -6.4536    1.3917 H   0  0  0  0  0  0
   -3.4063   -8.7833    3.3557 H   0  0  0  0  0  0
   -0.3610   -2.2236    0.4901 H   0  0  0  0  0  0
   -5.9441   -0.3607    4.0663 H   0  0  0  0  0  0
   -4.9248    6.3630    6.1396 H   0  0  0  0  0  0
   -0.6088    8.1667   11.5880 H   0  0  0  0  0  0
   -3.0943    7.1967    7.1669 H   0  0  0  0  0  0
  1  2  1  0  0  0
  2  3  1  0  0  0
  3  4  1  0  0  0
  4  5  1  0  0  0
  5  6  1  0  0  0
  5  7  1  0  0  0
  7  8  1  0  0  0
  7 39  1  0  0  0
  8  9  1  0  0  0
  8 27  1  0  0  0
  9 10  1  0  0  0
 10 11  1  0  0  0
 10 12  1  0  0  0
 12 13  1  0  0  0
 13 14  1  0  0  0
 13 26  1  0  0  0
 14 15  1  0  0  0
 15 16  1  0  0  0
 16 17  1  0  0  0
 17 18  1  0  0  0
 18 19  1  0  0  0
 18 25  1  0  0  0
 19 20  1  0  0  0
 20 21  1  0  0  0
 20 24  1  0  0  0
 21 22  1  0  0  0
 21 23  1  0  0  0
 23 51  1  0  0  0
 23 52  1  0  0  0
 24 53  1  0  0  0
 25 54  1  0  0  0
 26 55  1  0  0  0
 27 28  1  0  0  0
 28 29  2  0  0  0
 28 30  1  0  0  0
 30 31  1  0  0  0
 31 32  1  0  0  0
 31 36  1  0  0  0
 32 33  1  0  0  0
 33 34  2  0  0  0
 33 35  1  0  0  0
 35 56  1  0  0  0
 36 37  2  0  0  0
 36 38  1  0  0  0
 38 57  1  0  0  0
 39 40  1  0  0  0
 40 41  2  0  0  0
 40 42  1  0  0  0
 42 43  1  0  0  0
 43 44  1  0  0  0
 43 48  1  0  0  0
 44 45  1  0  0  0
 45 46  2  0  0  0
 45 47  1  0  0  0
 47 58  1  0  0  0
 48 49  2  0  0  0
 48 50  1  0  0  0
 50 59  1  0  0  0
M  END
>  <AUTHOR>
    GENERATED BY OPEN BABEL 2.4.1

>  <CHROM.1>
-171.53465837,-177.23979156,50.37411961,-35.90217939,74.81702349,97.55544595
-140.06040947,74.99493517,47.16079551,-175.07261601,-54.93141214,-74.38126806
166.24605308,-67.34809462,56.48051039,-179.19199534,178.39004267,-90.26877505
-177.47833633,-44.31505402,-44.63647502,-74.24145473,-152.80043396,-131.07393969
123.67866915,-35.97555542,-69.51245299,109.77456062,42.28248927,177.39998725
168.25144477,160.01903732,122.27223709,110.43113979,-90.46017876,-8.97379430
24.70065975,-14.89636822,-175.85998734,-1.30896296,0.72439787,5.02156735
-1.57315803,-0.09104044,0.48560872

>  <COMPND>
    UNNAMED

>  <MASTER>
        0    0    0    0    0    0    0    0  109    0  109    0

>  <Name>
FB1.pdb

>  <RI>
0

>  <Rbt.Current_Directory>
/home/fc/tossine/F10/p3/1_clust04

>  <Rbt.Executable>
rbdock/0.1.0

>  <Rbt.Library>
librxdock.so/0.1.0

>  <Rbt.Parameter_File>
/cluster/rxdock/data/scripts/dock.prm

>  <Rbt.Receptor>
rx_0.prm

>  <SCORE>
11.4135

>  <SCORE.INTER>
-4.6608

>  <SCORE.INTER.CONST>
1

>  <SCORE.INTER.POLAR>
-2.98066

>  <SCORE.INTER.REPUL>
0.265314

>  <SCORE.INTER.ROT>
32

>  <SCORE.INTER.VDW>
-33.2531

>  <SCORE.INTER.norm>
-0.093216

>  <SCORE.INTRA>
15.7797

>  <SCORE.INTRA.DIHEDRAL>
14.8891

>  <SCORE.INTRA.DIHEDRAL.0>
47.3121

>  <SCORE.INTRA.POLAR>
1.27148

>  <SCORE.INTRA.POLAR.0>
-1.47808

>  <SCORE.INTRA.REPUL>
0

>  <SCORE.INTRA.REPUL.0>
0

>  <SCORE.INTRA.VDW>
4.01211

>  <SCORE.INTRA.VDW.0>
-2.78316

>  <SCORE.INTRA.norm>
0.315594

>  <SCORE.RESTR>
0.294628

>  <SCORE.RESTR.CAVITY>
0.294628

>  <SCORE.RESTR.norm>
0.00589257

>  <SCORE.SYSTEM>
0

>  <SCORE.SYSTEM.CONST>
0

>  <SCORE.SYSTEM.DIHEDRAL>
0

>  <SCORE.SYSTEM.norm>
0

>  <SCORE.heavy>
50

>  <SCORE.norm>
0.228271

$$$$
