FB1.pdb
  RxDock  10092021583D
librxdock.so/0.1.0
 59 58  0  0  0  0  0  0  0  0999 V2000
    5.9036    2.7152    3.6074 C   0  0  0  0  0  0
    4.3889    2.5226    3.6078 C   0  0  0  0  0  0
    4.0040    1.0353    3.5441 C   0  0  0  0  0  0
    2.5763    0.7899    2.9954 C   0  0  0  0  0  0
    2.2202   -0.7139    2.7268 C   0  0  0  0  0  0
    1.6421   -1.3160    4.0283 C   0  0  0  0  0  0
    1.2197   -0.9207    1.5126 C   0  0  0  0  0  0
   -0.3400   -0.7147    1.8144 C   0  0  0  0  0  0
   -1.0768    0.6914    1.9038 C   0  0  0  0  0  0
   -1.5888    1.1181    3.4128 C   0  0  0  0  0  0
   -0.3621    1.3741    4.2869 C   0  0  0  0  0  0
   -2.5736    2.3705    3.4932 C   0  0  0  0  0  0
   -3.3882    2.8006    4.8237 C   0  0  0  0  0  0
   -4.5020    1.8973    5.4557 C   0  0  0  0  0  0
   -5.7871    1.5509    4.5737 C   0  0  0  0  0  0
   -6.9125    0.5304    5.0056 C   0  0  0  0  0  0
   -7.2514   -0.6699    4.0825 C   0  0  0  0  0  0
   -8.5839   -1.4517    4.4024 C   0  0  0  0  0  0
   -9.8796   -0.8366    3.8589 C   0  0  0  0  0  0
  -11.2255   -1.2494    4.5196 C   0  0  0  0  0  0
  -11.3201   -2.5433    5.3812 C   0  0  0  0  0  0
  -10.9898   -3.8519    4.6770 C   0  0  0  0  0  0
  -10.5415   -2.4035    6.6264 N   0  0  0  0  0  0
  -11.5338   -0.1663    5.4336 O   0  0  0  0  0  0
   -8.4549   -2.7775    3.8777 O   0  0  0  0  0  0
   -2.3852    2.9297    5.8454 O   0  0  0  0  0  0
   -1.0539   -1.4292    0.7692 O   0  0  0  0  0  0
   -0.8958   -2.7777    0.7252 C   0  0  0  0  0  0
   -0.4048   -3.4151   -0.1869 O   0  0  0  0  0  0
   -1.3383   -3.3520    2.0427 C   0  0  0  0  0  0
   -0.8610   -4.7988    2.2461 C   0  0  0  0  0  0
   -1.2958   -5.3774    3.5988 C   0  0  0  0  0  0
   -2.7666   -5.7238    3.5961 C   0  0  0  0  0  0
   -3.6522   -4.9202    3.3247 O   0  0  0  0  0  0
   -3.0152   -7.0017    3.9187 O   0  0  0  0  0  0
   -1.4823   -5.6126    1.1026 C   0  0  0  0  0  0
   -0.8221   -6.2976    0.3362 O   0  0  0  0  0  0
   -2.8095   -5.4718    0.9811 O   0  0  0  0  0  0
    1.6594   -0.1557    0.3204 O   0  0  0  0  0  0
    3.0179   -0.0282    0.0832 C   0  0  0  0  0  0
    3.6927    0.9415    0.4039 O   0  0  0  0  0  0
    3.6023   -1.2510   -0.6360 C   0  0  0  0  0  0
    4.7753   -0.9599   -1.6229 C   0  0  0  0  0  0
    6.1549   -0.6240   -1.0277 C   0  0  0  0  0  0
    6.9436   -1.8445   -0.6498 C   0  0  0  0  0  0
    6.9564   -2.9036   -1.2619 O   0  0  0  0  0  0
    7.6799   -1.6576    0.4562 O   0  0  0  0  0  0
    4.9932   -2.0393   -2.6905 C   0  0  0  0  0  0
    4.6670   -3.1992   -2.5328 O   0  0  0  0  0  0
    5.4777   -1.5979   -3.8702 O   0  0  0  0  0  0
   -9.5509   -2.5172    6.4156 H   0  0  0  0  0  0
  -10.7706   -3.1851    7.2445 H   0  0  0  0  0  0
  -10.9009   -0.2804    6.1737 H   0  0  0  0  0  0
   -8.3303   -2.7121    2.9130 H   0  0  0  0  0  0
   -2.0100    2.0487    6.0115 H   0  0  0  0  0  0
   -2.2248   -7.5519    4.0801 H   0  0  0  0  0  0
   -3.1545   -5.6119    0.0646 H   0  0  0  0  0  0
    7.5710   -0.7171    0.7110 H   0  0  0  0  0  0
    5.4994   -0.6209   -3.9758 H   0  0  0  0  0  0
  1  2  1  0  0  0
  2  3  1  0  0  0
  3  4  1  0  0  0
  4  5  1  0  0  0
  5  6  1  0  0  0
  5  7  1  0  0  0
  7  8  1  0  0  0
  7 39  1  0  0  0
  8  9  1  0  0  0
  8 27  1  0  0  0
  9 10  1  0  0  0
 10 11  1  0  0  0
 10 12  1  0  0  0
 12 13  1  0  0  0
 13 14  1  0  0  0
 13 26  1  0  0  0
 14 15  1  0  0  0
 15 16  1  0  0  0
 16 17  1  0  0  0
 17 18  1  0  0  0
 18 19  1  0  0  0
 18 25  1  0  0  0
 19 20  1  0  0  0
 20 21  1  0  0  0
 20 24  1  0  0  0
 21 22  1  0  0  0
 21 23  1  0  0  0
 23 51  1  0  0  0
 23 52  1  0  0  0
 24 53  1  0  0  0
 25 54  1  0  0  0
 26 55  1  0  0  0
 27 28  1  0  0  0
 28 29  2  0  0  0
 28 30  1  0  0  0
 30 31  1  0  0  0
 31 32  1  0  0  0
 31 36  1  0  0  0
 32 33  1  0  0  0
 33 34  2  0  0  0
 33 35  1  0  0  0
 35 56  1  0  0  0
 36 37  2  0  0  0
 36 38  1  0  0  0
 38 57  1  0  0  0
 39 40  1  0  0  0
 40 41  2  0  0  0
 40 42  1  0  0  0
 42 43  1  0  0  0
 43 44  1  0  0  0
 43 48  1  0  0  0
 44 45  1  0  0  0
 45 46  2  0  0  0
 45 47  1  0  0  0
 47 58  1  0  0  0
 48 49  2  0  0  0
 48 50  1  0  0  0
 50 59  1  0  0  0
M  END
>  <AUTHOR>
    GENERATED BY OPEN BABEL 2.4.1

>  <CHROM.1>
-157.41250231,171.84162214,88.38334692,-81.89326743,79.98627377,35.07413646
-110.85899000,64.07859977,67.66875966,169.14773178,-65.11748449,-60.93932467
-65.95817959,172.93571085,-123.30244837,-166.58608002,81.89822824,-159.34551292
-61.00772858,-18.56672939,-60.29161786,-73.18411944,-77.06756994,-117.34865711
-164.67748757,179.18890534,74.84974908,125.03832732,-55.76222392,-2.20912956
152.51950479,-97.20165713,146.87508495,74.11064547,82.96528255,-25.72092302
36.53186529,-4.51735913,-9.75723697,-1.16773759,-1.40557492,2.29940875,-0.10533041
0.33726981,0.42435999

>  <COMPND>
    UNNAMED

>  <MASTER>
        0    0    0    0    0    0    0    0  109    0  109    0

>  <Name>
FB1.pdb

>  <RI>
0

>  <Rbt.Current_Directory>
/home/fc/tossine/F10/p3/1_clust04

>  <Rbt.Executable>
rbdock/0.1.0

>  <Rbt.Library>
librxdock.so/0.1.0

>  <Rbt.Parameter_File>
/cluster/rxdock/data/scripts/dock.prm

>  <Rbt.Receptor>
rx_4.prm

>  <SCORE>
57.3361

>  <SCORE.INTER>
15.9723

>  <SCORE.INTER.CONST>
1

>  <SCORE.INTER.POLAR>
-2.07475

>  <SCORE.INTER.REPUL>
1.26058

>  <SCORE.INTER.ROT>
32

>  <SCORE.INTER.VDW>
-20.6764

>  <SCORE.INTER.norm>
0.319447

>  <SCORE.INTRA>
34.682

>  <SCORE.INTRA.DIHEDRAL>
48.2449

>  <SCORE.INTRA.DIHEDRAL.0>
47.3121

>  <SCORE.INTRA.POLAR>
1.24029

>  <SCORE.INTRA.POLAR.0>
-1.47808

>  <SCORE.INTRA.REPUL>
0

>  <SCORE.INTRA.REPUL.0>
0

>  <SCORE.INTRA.VDW>
6.34258

>  <SCORE.INTRA.VDW.0>
-2.78316

>  <SCORE.INTRA.norm>
0.69364

>  <SCORE.RESTR>
6.68182

>  <SCORE.RESTR.CAVITY>
6.68182

>  <SCORE.RESTR.norm>
0.133636

>  <SCORE.SYSTEM>
0

>  <SCORE.SYSTEM.CONST>
0

>  <SCORE.SYSTEM.DIHEDRAL>
0

>  <SCORE.SYSTEM.norm>
0

>  <SCORE.heavy>
50

>  <SCORE.norm>
1.14672

$$$$
