FB1.pdb
  RxDock  10092019063D
librxdock.so/0.1.0
 59 58  0  0  0  0  0  0  0  0999 V2000
   -5.1646   -9.5889    0.6242 C   0  0  0  0  0  0
   -4.6151   -8.2738    1.1720 C   0  0  0  0  0  0
   -3.4299   -8.5044    2.1240 C   0  0  0  0  0  0
   -3.0167   -7.2376    2.9139 C   0  0  0  0  0  0
   -2.2681   -6.1471    2.0707 C   0  0  0  0  0  0
   -3.0751   -5.8958    0.7760 C   0  0  0  0  0  0
   -2.0257   -4.7922    2.8603 C   0  0  0  0  0  0
   -3.3146   -4.0779    3.4887 C   0  0  0  0  0  0
   -3.3049   -2.6886    4.2620 C   0  0  0  0  0  0
   -4.7896   -2.0101    4.4998 C   0  0  0  0  0  0
   -5.6394   -2.9781    5.3213 C   0  0  0  0  0  0
   -4.8029   -0.5707    5.1874 C   0  0  0  0  0  0
   -3.8672    0.6654    4.7235 C   0  0  0  0  0  0
   -4.4277    2.1157    4.5272 C   0  0  0  0  0  0
   -3.7996    3.0203    3.3711 C   0  0  0  0  0  0
   -3.7105    4.5963    3.4254 C   0  0  0  0  0  0
   -3.0566    5.3661    2.2476 C   0  0  0  0  0  0
   -2.5672    6.8352    2.5501 C   0  0  0  0  0  0
   -2.0416    7.0980    3.9668 C   0  0  0  0  0  0
   -0.7375    7.9298    4.1269 C   0  0  0  0  0  0
   -0.3680    8.5657    5.4997 C   0  0  0  0  0  0
   -0.2283    7.6077    6.6745 C   0  0  0  0  0  0
    0.8240    9.4262    5.3764 N   0  0  0  0  0  0
    0.3332    6.9922    3.8471 O   0  0  0  0  0  0
   -1.5329    7.1577    1.6142 O   0  0  0  0  0  0
   -2.8731    0.7838    5.7551 O   0  0  0  0  0  0
   -4.2413   -3.8707    2.3883 O   0  0  0  0  0  0
   -5.3791   -4.6128    2.3921 C   0  0  0  0  0  0
   -5.4486   -5.8226    2.4975 O   0  0  0  0  0  0
   -6.5567   -3.6788    2.3459 C   0  0  0  0  0  0
   -7.8527   -4.3837    1.9147 C   0  0  0  0  0  0
   -8.1328   -5.6519    2.7311 C   0  0  0  0  0  0
   -7.8767   -5.4207    4.2023 C   0  0  0  0  0  0
   -6.8660   -5.8017    4.7829 O   0  0  0  0  0  0
   -8.8639   -4.7537    4.8182 O   0  0  0  0  0  0
   -8.9790   -3.3628    2.1273 C   0  0  0  0  0  0
   -9.9098   -3.5471    2.8968 O   0  0  0  0  0  0
   -8.8851   -2.2680    1.3601 O   0  0  0  0  0  0
   -0.9340   -4.9391    3.8535 O   0  0  0  0  0  0
    0.3499   -5.1763    3.3913 C   0  0  0  0  0  0
    0.9553   -6.2314    3.5278 O   0  0  0  0  0  0
    0.9473   -3.9574    2.6760 C   0  0  0  0  0  0
    1.5120   -4.2210    1.2455 C   0  0  0  0  0  0
    1.8103   -3.0045    0.3502 C   0  0  0  0  0  0
    2.5260   -1.9027    1.0770 C   0  0  0  0  0  0
    3.7298   -1.8523    1.2892 O   0  0  0  0  0  0
    1.6959   -0.9264    1.4746 O   0  0  0  0  0  0
    2.7486   -5.1273    1.2051 C   0  0  0  0  0  0
    3.8844   -4.6951    1.2109 O   0  0  0  0  0  0
    2.4986   -6.4518    1.2708 O   0  0  0  0  0  0
    0.7803    9.9329    4.4933 H   0  0  0  0  0  0
    1.6507    8.8297    5.2973 H   0  0  0  0  0  0
    0.0403    6.1527    4.2603 H   0  0  0  0  0  0
   -0.8131    6.5087    1.7207 H   0  0  0  0  0  0
   -2.3292    1.5653    5.5604 H   0  0  0  0  0  0
   -9.5935   -4.4610    4.2389 H   0  0  0  0  0  0
   -9.5795   -1.5849    1.5336 H   0  0  0  0  0  0
    0.7893   -1.2136    1.2361 H   0  0  0  0  0  0
    3.2935   -7.0299    1.2605 H   0  0  0  0  0  0
  1  2  1  0  0  0
  2  3  1  0  0  0
  3  4  1  0  0  0
  4  5  1  0  0  0
  5  6  1  0  0  0
  5  7  1  0  0  0
  7  8  1  0  0  0
  7 39  1  0  0  0
  8  9  1  0  0  0
  8 27  1  0  0  0
  9 10  1  0  0  0
 10 11  1  0  0  0
 10 12  1  0  0  0
 12 13  1  0  0  0
 13 14  1  0  0  0
 13 26  1  0  0  0
 14 15  1  0  0  0
 15 16  1  0  0  0
 16 17  1  0  0  0
 17 18  1  0  0  0
 18 19  1  0  0  0
 18 25  1  0  0  0
 19 20  1  0  0  0
 20 21  1  0  0  0
 20 24  1  0  0  0
 21 22  1  0  0  0
 21 23  1  0  0  0
 23 51  1  0  0  0
 23 52  1  0  0  0
 24 53  1  0  0  0
 25 54  1  0  0  0
 26 55  1  0  0  0
 27 28  1  0  0  0
 28 29  2  0  0  0
 28 30  1  0  0  0
 30 31  1  0  0  0
 31 32  1  0  0  0
 31 36  1  0  0  0
 32 33  1  0  0  0
 33 34  2  0  0  0
 33 35  1  0  0  0
 35 56  1  0  0  0
 36 37  2  0  0  0
 36 38  1  0  0  0
 38 57  1  0  0  0
 39 40  1  0  0  0
 40 41  2  0  0  0
 40 42  1  0  0  0
 42 43  1  0  0  0
 43 44  1  0  0  0
 43 48  1  0  0  0
 44 45  1  0  0  0
 45 46  2  0  0  0
 45 47  1  0  0  0
 47 58  1  0  0  0
 48 49  2  0  0  0
 48 50  1  0  0  0
 50 59  1  0  0  0
M  END
>  <AUTHOR>
    GENERATED BY OPEN BABEL 2.4.1

>  <CHROM.1>
-168.79483824,-73.41412629,48.91175456,-55.27761834,-177.31291288,65.32411389
166.45194794,110.84707391,59.94620244,48.26450259,133.75139034,-145.64493172
-175.20615704,-150.28284689,179.04294606,-160.31391161,33.35714159,136.00985580
-58.95436182,162.83857182,58.20489870,-38.86757871,38.82007419,-52.28146658
162.31339157,51.20143804,43.50966968,-118.53699824,-101.79908058,-3.15309594
-176.54276253,-110.50860203,-127.32232340,165.59811687,44.58316168,-93.59587400
81.89251408,3.81336797,-178.98205379,-2.79366499,-1.69082321,3.00551213,-1.83230618
0.15004603,0.16787533

>  <COMPND>
    UNNAMED

>  <MASTER>
        0    0    0    0    0    0    0    0  109    0  109    0

>  <Name>
FB1.pdb

>  <RI>
0

>  <Rbt.Current_Directory>
/home/fc/tossine/F10/p3/1_clust04

>  <Rbt.Executable>
rbdock/0.1.0

>  <Rbt.Library>
librxdock.so/0.1.0

>  <Rbt.Parameter_File>
/cluster/rxdock/data/scripts/dock.prm

>  <Rbt.Receptor>
rx_1.prm

>  <SCORE>
975.028

>  <SCORE.INTER>
923.409

>  <SCORE.INTER.CONST>
1

>  <SCORE.INTER.POLAR>
-0.778685

>  <SCORE.INTER.REPUL>
1.30631

>  <SCORE.INTER.ROT>
32

>  <SCORE.INTER.VDW>
882.125

>  <SCORE.INTER.norm>
18.4682

>  <SCORE.INTRA>
31.9298

>  <SCORE.INTRA.DIHEDRAL>
37.989

>  <SCORE.INTRA.DIHEDRAL.0>
47.3121

>  <SCORE.INTRA.POLAR>
0.790999

>  <SCORE.INTRA.POLAR.0>
-1.47808

>  <SCORE.INTRA.REPUL>
0

>  <SCORE.INTRA.REPUL.0>
0

>  <SCORE.INTRA.VDW>
10.2459

>  <SCORE.INTRA.VDW.0>
-2.78316

>  <SCORE.INTRA.norm>
0.638596

>  <SCORE.RESTR>
19.6893

>  <SCORE.RESTR.CAVITY>
19.6893

>  <SCORE.RESTR.norm>
0.393786

>  <SCORE.SYSTEM>
0

>  <SCORE.SYSTEM.CONST>
0

>  <SCORE.SYSTEM.DIHEDRAL>
0

>  <SCORE.SYSTEM.norm>
0

>  <SCORE.heavy>
50

>  <SCORE.norm>
19.5006

$$$$
