FB1.pdb
  RxDock  10092020113D
librxdock.so/0.1.0
 59 58  0  0  0  0  0  0  0  0999 V2000
    2.7411    3.1200    3.9047 C   0  0  0  0  0  0
    3.6193    1.9707    3.4156 C   0  0  0  0  0  0
    2.8424    1.0101    2.5002 C   0  0  0  0  0  0
    1.4681    0.5854    3.0750 C   0  0  0  0  0  0
    0.2892    1.5741    2.7698 C   0  0  0  0  0  0
   -0.4835    1.0434    1.5402 C   0  0  0  0  0  0
   -0.6867    1.7951    4.0013 C   0  0  0  0  0  0
   -2.0257    0.9163    4.0330 C   0  0  0  0  0  0
   -2.0932   -0.6368    4.3671 C   0  0  0  0  0  0
   -1.3248   -1.6186    3.2870 C   0  0  0  0  0  0
   -1.1289   -2.9897    3.9319 C   0  0  0  0  0  0
   -2.0315   -1.7913    1.8673 C   0  0  0  0  0  0
   -2.9655   -3.0503    1.4655 C   0  0  0  0  0  0
   -4.2855   -3.3968    2.2361 C   0  0  0  0  0  0
   -4.4753   -4.8852    2.7818 C   0  0  0  0  0  0
   -3.3939   -6.0278    2.6417 C   0  0  0  0  0  0
   -3.4348   -7.2418    3.6071 C   0  0  0  0  0  0
   -2.0597   -7.9584    3.8981 C   0  0  0  0  0  0
   -0.8075   -7.0747    3.8407 C   0  0  0  0  0  0
    0.1324   -7.2068    2.6088 C   0  0  0  0  0  0
    0.9007   -8.5342    2.3384 C   0  0  0  0  0  0
    0.0532   -9.7458    1.9764 C   0  0  0  0  0  0
    1.9749   -8.3274    1.3486 N   0  0  0  0  0  0
   -0.7389   -7.0369    1.4618 O   0  0  0  0  0  0
   -2.1378   -8.5526    5.1984 O   0  0  0  0  0  0
   -3.3781   -2.7878    0.1137 O   0  0  0  0  0  0
   -2.8945    1.5349    5.0205 O   0  0  0  0  0  0
   -3.9918    2.1864    4.5549 C   0  0  0  0  0  0
   -4.7532    1.7887    3.6939 O   0  0  0  0  0  0
   -4.1724    3.4465    5.3554 C   0  0  0  0  0  0
   -3.5886    4.6819    4.6515 C   0  0  0  0  0  0
   -4.6754    5.6190    4.1093 C   0  0  0  0  0  0
   -4.7875    5.5116    2.6062 C   0  0  0  0  0  0
   -5.5128    4.7038    2.0361 O   0  0  0  0  0  0
   -4.0156    6.3896    1.9487 O   0  0  0  0  0  0
   -2.7460    5.4104    5.7077 C   0  0  0  0  0  0
   -2.9675    5.3336    6.9066 O   0  0  0  0  0  0
   -1.7727    6.1811    5.2033 O   0  0  0  0  0  0
    0.0500    1.7293    5.2869 O   0  0  0  0  0  0
   -0.4515    2.4309    6.3706 C   0  0  0  0  0  0
   -1.4993    3.0636    6.3660 O   0  0  0  0  0  0
    0.4584    2.3314    7.6021 C   0  0  0  0  0  0
    0.3247    3.4902    8.6384 C   0  0  0  0  0  0
    1.5372    3.8029    9.5342 C   0  0  0  0  0  0
    1.3470    5.0363   10.3692 C   0  0  0  0  0  0
    1.2802    6.1818    9.9450 O   0  0  0  0  0  0
    1.2332    4.7582   11.6768 O   0  0  0  0  0  0
   -0.1575    4.8211    8.0481 C   0  0  0  0  0  0
    0.2334    5.2501    6.9804 O   0  0  0  0  0  0
   -1.1329    5.4435    8.7426 O   0  0  0  0  0  0
    2.5678   -9.1558    1.3211 H   0  0  0  0  0  0
    2.5854   -7.5775    1.6810 H   0  0  0  0  0  0
   -1.4084   -7.7473    1.5532 H   0  0  0  0  0  0
   -2.1972   -7.8363    5.8571 H   0  0  0  0  0  0
   -3.8781   -1.9545    0.1083 H   0  0  0  0  0  0
   -3.4871    6.9848    2.5143 H   0  0  0  0  0  0
   -1.0513    6.4020    5.8433 H   0  0  0  0  0  0
    1.0970    5.6139   12.1356 H   0  0  0  0  0  0
   -1.8002    5.9163    8.1973 H   0  0  0  0  0  0
  1  2  1  0  0  0
  2  3  1  0  0  0
  3  4  1  0  0  0
  4  5  1  0  0  0
  5  6  1  0  0  0
  5  7  1  0  0  0
  7  8  1  0  0  0
  7 39  1  0  0  0
  8  9  1  0  0  0
  8 27  1  0  0  0
  9 10  1  0  0  0
 10 11  1  0  0  0
 10 12  1  0  0  0
 12 13  1  0  0  0
 13 14  1  0  0  0
 13 26  1  0  0  0
 14 15  1  0  0  0
 15 16  1  0  0  0
 16 17  1  0  0  0
 17 18  1  0  0  0
 18 19  1  0  0  0
 18 25  1  0  0  0
 19 20  1  0  0  0
 20 21  1  0  0  0
 20 24  1  0  0  0
 21 22  1  0  0  0
 21 23  1  0  0  0
 23 51  1  0  0  0
 23 52  1  0  0  0
 24 53  1  0  0  0
 25 54  1  0  0  0
 26 55  1  0  0  0
 27 28  1  0  0  0
 28 29  2  0  0  0
 28 30  1  0  0  0
 30 31  1  0  0  0
 31 32  1  0  0  0
 31 36  1  0  0  0
 32 33  1  0  0  0
 33 34  2  0  0  0
 33 35  1  0  0  0
 35 56  1  0  0  0
 36 37  2  0  0  0
 36 38  1  0  0  0
 38 57  1  0  0  0
 39 40  1  0  0  0
 40 41  2  0  0  0
 40 42  1  0  0  0
 42 43  1  0  0  0
 43 44  1  0  0  0
 43 48  1  0  0  0
 44 45  1  0  0  0
 45 46  2  0  0  0
 45 47  1  0  0  0
 47 58  1  0  0  0
 48 49  2  0  0  0
 48 50  1  0  0  0
 50 59  1  0  0  0
M  END
>  <AUTHOR>
    GENERATED BY OPEN BABEL 2.4.1

>  <CHROM.1>
-47.96560626,85.42432991,97.33894955,-96.87188731,73.45846209,152.68641949
-64.41997995,108.98893069,163.92125519,-98.47828159,60.78518461,-127.72449066
-60.80415433,2.26501819,158.20616658,-152.22631762,30.10294369,-105.37106608
-66.62583212,-64.80616314,66.57568474,-58.52776518,169.42826314,44.25567365
97.48167858,107.85647952,-105.61723958,-26.82338156,88.63065829,-0.29726419
-160.27020879,3.29550011,156.11389953,-154.34475381,173.07220947,-41.16369136
-67.81084093,-178.97569175,-144.04726717,-1.32419293,0.29683405,4.51617276
-1.55288965,0.70161137,-2.80561787

>  <COMPND>
    UNNAMED

>  <MASTER>
        0    0    0    0    0    0    0    0  109    0  109    0

>  <Name>
FB1.pdb

>  <RI>
0

>  <Rbt.Current_Directory>
/home/fc/tossine/F10/p3/1_clust04

>  <Rbt.Executable>
rbdock/0.1.0

>  <Rbt.Library>
librxdock.so/0.1.0

>  <Rbt.Parameter_File>
/cluster/rxdock/data/scripts/dock.prm

>  <Rbt.Receptor>
rx_2.prm

>  <SCORE>
19.4842

>  <SCORE.INTER>
-7.17541

>  <SCORE.INTER.CONST>
1

>  <SCORE.INTER.POLAR>
-4.7299

>  <SCORE.INTER.REPUL>
0.722426

>  <SCORE.INTER.ROT>
32

>  <SCORE.INTER.VDW>
-32.1059

>  <SCORE.INTER.norm>
-0.143508

>  <SCORE.INTRA>
26.5746

>  <SCORE.INTRA.DIHEDRAL>
49.9602

>  <SCORE.INTRA.DIHEDRAL.0>
47.3121

>  <SCORE.INTRA.POLAR>
0.289916

>  <SCORE.INTRA.POLAR.0>
-1.47808

>  <SCORE.INTRA.REPUL>
0

>  <SCORE.INTRA.REPUL.0>
0

>  <SCORE.INTRA.VDW>
0.608766

>  <SCORE.INTRA.VDW.0>
-2.78316

>  <SCORE.INTRA.norm>
0.531492

>  <SCORE.RESTR>
0.0849913

>  <SCORE.RESTR.CAVITY>
0.0849913

>  <SCORE.RESTR.norm>
0.00169983

>  <SCORE.SYSTEM>
0

>  <SCORE.SYSTEM.CONST>
0

>  <SCORE.SYSTEM.DIHEDRAL>
0

>  <SCORE.SYSTEM.norm>
0

>  <SCORE.heavy>
50

>  <SCORE.norm>
0.389683

$$$$
