FB1.pdb
  RxDock  10092020593D
librxdock.so/0.1.0
 59 58  0  0  0  0  0  0  0  0999 V2000
   -8.2264   -0.9513   11.9005 C   0  0  0  0  0  0
   -8.0316    0.5620   11.8423 C   0  0  0  0  0  0
   -6.6876    0.9386   11.1972 C   0  0  0  0  0  0
   -6.7839    1.1904    9.6717 C   0  0  0  0  0  0
   -5.4426    0.9933    8.8827 C   0  0  0  0  0  0
   -4.8998   -0.4207    9.1934 C   0  0  0  0  0  0
   -5.5900    1.2135    7.3182 C   0  0  0  0  0  0
   -4.2487    1.5246    6.4996 C   0  0  0  0  0  0
   -2.8143    0.9236    6.8309 C   0  0  0  0  0  0
   -1.7450    0.9325    5.5748 C   0  0  0  0  0  0
   -0.7415    2.0622    5.8000 C   0  0  0  0  0  0
   -0.9632   -0.4320    5.3073 C   0  0  0  0  0  0
   -0.8912   -1.1698    3.8688 C   0  0  0  0  0  0
   -0.0419   -2.4653    3.6307 C   0  0  0  0  0  0
   -0.4665   -3.8006    4.3961 C   0  0  0  0  0  0
   -1.7604   -4.6428    4.0627 C   0  0  0  0  0  0
   -1.7639   -5.5826    2.8282 C   0  0  0  0  0  0
   -2.9757   -6.5860    2.7087 C   0  0  0  0  0  0
   -3.3333   -7.3732    3.9755 C   0  0  0  0  0  0
   -2.5717   -8.6990    4.2593 C   0  0  0  0  0  0
   -1.0770   -8.8561    3.8509 C   0  0  0  0  0  0
   -0.4030  -10.1652    4.2373 C   0  0  0  0  0  0
   -0.8919   -8.5714    2.4152 N   0  0  0  0  0  0
   -2.5814   -8.8265    5.7041 O   0  0  0  0  0  0
   -4.1267   -5.8413    2.2960 O   0  0  0  0  0  0
   -2.2469   -1.5518    3.5811 O   0  0  0  0  0  0
   -4.5039    1.1120    5.1295 O   0  0  0  0  0  0
   -5.6046    1.6293    4.5244 C   0  0  0  0  0  0
   -6.5346    0.9973    4.0608 O   0  0  0  0  0  0
   -5.5348    3.1290    4.6110 C   0  0  0  0  0  0
   -4.4193    3.7197    3.7339 C   0  0  0  0  0  0
   -4.8706    3.9549    2.2867 C   0  0  0  0  0  0
   -5.9211    5.0385    2.2126 C   0  0  0  0  0  0
   -5.6827    6.2277    2.3932 O   0  0  0  0  0  0
   -7.1471    4.5756    1.9270 O   0  0  0  0  0  0
   -4.0313    5.0537    4.3865 C   0  0  0  0  0  0
   -2.8731    5.4168    4.5245 O   0  0  0  0  0  0
   -5.0693    5.7701    4.8398 O   0  0  0  0  0  0
   -6.3787    0.1224    6.6959 O   0  0  0  0  0  0
   -7.7003   -0.0364    7.0785 C   0  0  0  0  0  0
   -8.4224    0.8668    7.4797 O   0  0  0  0  0  0
   -8.1763   -1.4890    6.9447 C   0  0  0  0  0  0
   -9.1298   -1.7815    5.7447 C   0  0  0  0  0  0
  -10.5531   -2.2791    6.0564 C   0  0  0  0  0  0
  -11.5597   -1.8616    5.0235 C   0  0  0  0  0  0
  -11.8692   -2.5029    4.0288 O   0  0  0  0  0  0
  -12.1286   -0.6805    5.3093 O   0  0  0  0  0  0
   -9.2623   -0.6301    4.7402 C   0  0  0  0  0  0
   -9.0893   -0.7727    3.5459 O   0  0  0  0  0  0
   -9.6916    0.5412    5.2549 O   0  0  0  0  0  0
   -0.7408   -7.5714    2.2897 H   0  0  0  0  0  0
   -1.7686   -8.7686    1.9274 H   0  0  0  0  0  0
   -1.8125   -9.4003    5.9063 H   0  0  0  0  0  0
   -4.0272   -5.6270    1.3501 H   0  0  0  0  0  0
   -2.6880   -0.7974    3.1559 H   0  0  0  0  0  0
   -7.8327    5.2600    1.8046 H   0  0  0  0  0  0
   -4.8219    6.5123    5.4454 H   0  0  0  0  0  0
  -11.8236   -0.4313    6.2072 H   0  0  0  0  0  0
  -10.0214    0.4975    6.1799 H   0  0  0  0  0  0
  1  2  1  0  0  0
  2  3  1  0  0  0
  3  4  1  0  0  0
  4  5  1  0  0  0
  5  6  1  0  0  0
  5  7  1  0  0  0
  7  8  1  0  0  0
  7 39  1  0  0  0
  8  9  1  0  0  0
  8 27  1  0  0  0
  9 10  1  0  0  0
 10 11  1  0  0  0
 10 12  1  0  0  0
 12 13  1  0  0  0
 13 14  1  0  0  0
 13 26  1  0  0  0
 14 15  1  0  0  0
 15 16  1  0  0  0
 16 17  1  0  0  0
 17 18  1  0  0  0
 18 19  1  0  0  0
 18 25  1  0  0  0
 19 20  1  0  0  0
 20 21  1  0  0  0
 20 24  1  0  0  0
 21 22  1  0  0  0
 21 23  1  0  0  0
 23 51  1  0  0  0
 23 52  1  0  0  0
 24 53  1  0  0  0
 25 54  1  0  0  0
 26 55  1  0  0  0
 27 28  1  0  0  0
 28 29  2  0  0  0
 28 30  1  0  0  0
 30 31  1  0  0  0
 31 32  1  0  0  0
 31 36  1  0  0  0
 32 33  1  0  0  0
 33 34  2  0  0  0
 33 35  1  0  0  0
 35 56  1  0  0  0
 36 37  2  0  0  0
 36 38  1  0  0  0
 38 57  1  0  0  0
 39 40  1  0  0  0
 40 41  2  0  0  0
 40 42  1  0  0  0
 42 43  1  0  0  0
 43 44  1  0  0  0
 43 48  1  0  0  0
 44 45  1  0  0  0
 45 46  2  0  0  0
 45 47  1  0  0  0
 47 58  1  0  0  0
 48 49  2  0  0  0
 48 50  1  0  0  0
 50 59  1  0  0  0
M  END
>  <AUTHOR>
    GENERATED BY OPEN BABEL 2.4.1

>  <CHROM.1>
92.89762582,-155.98085969,54.42957729,159.94833646,34.28920193,63.07481359
158.45832564,53.91258484,104.09713968,127.85340398,176.32225079,65.26607722
85.96178459,70.91422872,77.84275221,168.95936143,-47.30356159,-85.79684263
74.54146547,33.87799544,176.93526405,-156.23910281,87.32850517,-121.22456244
69.33479811,85.79752222,66.79528137,136.85722221,71.46105450,-175.47316720
166.02274498,28.21594800,-105.81134618,-117.81829383,149.90371020,127.50962194
90.82707527,-7.48814483,-10.10949514,-5.17893961,-0.79306398,5.25955443,2.08691274
0.39660786,-0.03773681

>  <COMPND>
    UNNAMED

>  <MASTER>
        0    0    0    0    0    0    0    0  109    0  109    0

>  <Name>
FB1.pdb

>  <RI>
0

>  <Rbt.Current_Directory>
/home/fc/tossine/F10/p3/1_clust04

>  <Rbt.Executable>
rbdock/0.1.0

>  <Rbt.Library>
librxdock.so/0.1.0

>  <Rbt.Parameter_File>
/cluster/rxdock/data/scripts/dock.prm

>  <Rbt.Receptor>
rx_3.prm

>  <SCORE>
45.2238

>  <SCORE.INTER>
6.96078

>  <SCORE.INTER.CONST>
1

>  <SCORE.INTER.POLAR>
-4.13546

>  <SCORE.INTER.REPUL>
0.553489

>  <SCORE.INTER.ROT>
32

>  <SCORE.INTER.VDW>
-19.1461

>  <SCORE.INTER.norm>
0.139216

>  <SCORE.INTRA>
31.3478

>  <SCORE.INTRA.DIHEDRAL>
36.2094

>  <SCORE.INTRA.DIHEDRAL.0>
47.3121

>  <SCORE.INTRA.POLAR>
1.47808

>  <SCORE.INTRA.POLAR.0>
-1.47808

>  <SCORE.INTRA.REPUL>
0

>  <SCORE.INTRA.REPUL.0>
0

>  <SCORE.INTRA.VDW>
8.21768

>  <SCORE.INTRA.VDW.0>
-2.78316

>  <SCORE.INTRA.norm>
0.626956

>  <SCORE.RESTR>
6.91522

>  <SCORE.RESTR.CAVITY>
6.91522

>  <SCORE.RESTR.norm>
0.138304

>  <SCORE.SYSTEM>
0

>  <SCORE.SYSTEM.CONST>
0

>  <SCORE.SYSTEM.DIHEDRAL>
0

>  <SCORE.SYSTEM.norm>
0

>  <SCORE.heavy>
50

>  <SCORE.norm>
0.904476

$$$$
