FB1.pdb
  RxDock  10092019083D
librxdock.so/0.1.0
 59 58  0  0  0  0  0  0  0  0999 V2000
    0.3299    0.9107    0.1435 C   0  0  0  0  0  0
    1.5759    0.4899    0.9192 C   0  0  0  0  0  0
    1.9834    1.5469    1.9589 C   0  0  0  0  0  0
    1.0017    1.6493    3.1528 C   0  0  0  0  0  0
    1.1572    0.5249    4.2354 C   0  0  0  0  0  0
    2.4281    0.8215    5.0645 C   0  0  0  0  0  0
   -0.1114    0.3722    5.1764 C   0  0  0  0  0  0
   -0.8745    1.7186    5.5899 C   0  0  0  0  0  0
   -2.2081    1.7862    6.4531 C   0  0  0  0  0  0
   -3.5942    1.9963    5.5836 C   0  0  0  0  0  0
   -3.4898    1.1764    4.2987 C   0  0  0  0  0  0
   -4.9561    1.6420    6.3350 C   0  0  0  0  0  0
   -6.3228    1.2128    5.5824 C   0  0  0  0  0  0
   -6.3502    0.1472    4.4336 C   0  0  0  0  0  0
   -7.6944   -0.6828    4.2024 C   0  0  0  0  0  0
   -9.1453   -0.0630    4.2757 C   0  0  0  0  0  0
  -10.3810   -0.9977    4.1936 C   0  0  0  0  0  0
  -10.1669   -2.4923    4.6514 C   0  0  0  0  0  0
  -11.4062   -3.2250    5.1804 C   0  0  0  0  0  0
  -11.9815   -2.7987    6.5608 C   0  0  0  0  0  0
  -11.1382   -2.9752    7.8582 C   0  0  0  0  0  0
  -11.1499   -4.3598    8.4907 C   0  0  0  0  0  0
   -9.7565   -2.4997    7.6556 N   0  0  0  0  0  0
  -12.1960   -1.3690    6.4441 O   0  0  0  0  0  0
   -9.6464   -3.2252    3.5371 O   0  0  0  0  0  0
   -7.1599    0.6702    6.6175 O   0  0  0  0  0  0
    0.0819    2.5130    6.3425 O   0  0  0  0  0  0
    0.5420    3.6468    5.7524 C   0  0  0  0  0  0
    1.6952    4.0332    5.7378 O   0  0  0  0  0  0
   -0.5999    4.3023    5.0259 C   0  0  0  0  0  0
   -1.3648    5.3018    5.9081 C   0  0  0  0  0  0
   -0.9198    6.7516    5.6770 C   0  0  0  0  0  0
    0.4865    6.8090    5.1271 C   0  0  0  0  0  0
    1.4907    6.6698    5.8169 O   0  0  0  0  0  0
    0.5346    7.0263    3.8045 O   0  0  0  0  0  0
   -2.8463    5.1420    5.5396 C   0  0  0  0  0  0
   -3.6859    4.7195    6.3200 O   0  0  0  0  0  0
   -3.1377    5.4584    4.2704 O   0  0  0  0  0  0
   -1.0444   -0.6559    4.6546 O   0  0  0  0  0  0
   -0.5414   -1.9109    4.3544 C   0  0  0  0  0  0
    0.5941   -2.2866    4.6150 O   0  0  0  0  0  0
   -1.5735   -2.8000    3.6483 C   0  0  0  0  0  0
   -1.4190   -4.3348    3.8830 C   0  0  0  0  0  0
   -2.5882   -5.2501    3.4760 C   0  0  0  0  0  0
   -3.3045   -4.7743    2.2451 C   0  0  0  0  0  0
   -2.8888   -4.8640    1.0981 O   0  0  0  0  0  0
   -4.5012   -4.2353    2.5239 O   0  0  0  0  0  0
   -0.1405   -4.9443    3.2946 C   0  0  0  0  0  0
    0.7043   -5.4913    3.9757 O   0  0  0  0  0  0
   -0.0590   -4.9309    1.9476 O   0  0  0  0  0  0
   -9.2455   -2.5739    8.5342 H   0  0  0  0  0  0
   -9.7824   -1.4985    7.4497 H   0  0  0  0  0  0
  -11.3131   -0.9733    6.6028 H   0  0  0  0  0  0
   -9.4510   -4.1329    3.8346 H   0  0  0  0  0  0
   -7.3097    1.3663    7.2789 H   0  0  0  0  0  0
    1.4294    7.0213    3.4137 H   0  0  0  0  0  0
   -2.3726    5.8065    3.7486 H   0  0  0  0  0  0
   -4.6439   -4.3501    3.4871 H   0  0  0  0  0  0
    0.7330   -5.3745    1.5706 H   0  0  0  0  0  0
  1  2  1  0  0  0
  2  3  1  0  0  0
  3  4  1  0  0  0
  4  5  1  0  0  0
  5  6  1  0  0  0
  5  7  1  0  0  0
  7  8  1  0  0  0
  7 39  1  0  0  0
  8  9  1  0  0  0
  8 27  1  0  0  0
  9 10  1  0  0  0
 10 11  1  0  0  0
 10 12  1  0  0  0
 12 13  1  0  0  0
 13 14  1  0  0  0
 13 26  1  0  0  0
 14 15  1  0  0  0
 15 16  1  0  0  0
 16 17  1  0  0  0
 17 18  1  0  0  0
 18 19  1  0  0  0
 18 25  1  0  0  0
 19 20  1  0  0  0
 20 21  1  0  0  0
 20 24  1  0  0  0
 21 22  1  0  0  0
 21 23  1  0  0  0
 23 51  1  0  0  0
 23 52  1  0  0  0
 24 53  1  0  0  0
 25 54  1  0  0  0
 26 55  1  0  0  0
 27 28  1  0  0  0
 28 29  2  0  0  0
 28 30  1  0  0  0
 30 31  1  0  0  0
 31 32  1  0  0  0
 31 36  1  0  0  0
 32 33  1  0  0  0
 33 34  2  0  0  0
 33 35  1  0  0  0
 35 56  1  0  0  0
 36 37  2  0  0  0
 36 38  1  0  0  0
 38 57  1  0  0  0
 39 40  1  0  0  0
 40 41  2  0  0  0
 40 42  1  0  0  0
 42 43  1  0  0  0
 43 44  1  0  0  0
 43 48  1  0  0  0
 44 45  1  0  0  0
 45 46  2  0  0  0
 45 47  1  0  0  0
 47 58  1  0  0  0
 48 49  2  0  0  0
 48 50  1  0  0  0
 50 59  1  0  0  0
M  END
>  <AUTHOR>
    GENERATED BY OPEN BABEL 2.4.1

>  <CHROM.1>
69.99211084,78.34905537,74.68279494,-37.06175503,176.38479107,52.13208655
-99.89365197,110.60468395,38.57980913,-155.04925523,46.61968249,152.97489968
60.25862422,40.71153133,-173.05918776,25.35425922,153.06891795,-70.58964982
175.88308419,-63.61847629,-82.26858795,-81.23924990,176.56160702,-136.69714034
90.21296366,97.89233958,-24.17455685,114.47936392,-78.56690973,-176.90361985
-3.53229603,7.92654766,-151.12052289,166.41660559,34.98575896,118.98707938
74.92856740,-4.23595198,-176.15717937,-3.33649831,0.14642730,4.66370852,-0.46883093
-0.25668187,-2.86828295

>  <COMPND>
    UNNAMED

>  <MASTER>
        0    0    0    0    0    0    0    0  109    0  109    0

>  <Name>
FB1.pdb

>  <RI>
0

>  <Rbt.Current_Directory>
/home/fc/tossine/F10/p3/1_clust04

>  <Rbt.Executable>
rbdock/0.1.0

>  <Rbt.Library>
librxdock.so/0.1.0

>  <Rbt.Parameter_File>
/cluster/rxdock/data/scripts/dock.prm

>  <Rbt.Receptor>
rx_1.prm

>  <SCORE>
27.022

>  <SCORE.INTER>
0.859161

>  <SCORE.INTER.CONST>
1

>  <SCORE.INTER.POLAR>
-3.13675

>  <SCORE.INTER.REPUL>
0.331814

>  <SCORE.INTER.ROT>
32

>  <SCORE.INTER.VDW>
-27.535

>  <SCORE.INTER.norm>
0.0171832

>  <SCORE.INTRA>
20.8743

>  <SCORE.INTRA.DIHEDRAL>
19.1819

>  <SCORE.INTRA.DIHEDRAL.0>
47.3121

>  <SCORE.INTRA.POLAR>
1.47808

>  <SCORE.INTRA.POLAR.0>
-1.47808

>  <SCORE.INTRA.REPUL>
0

>  <SCORE.INTRA.REPUL.0>
0

>  <SCORE.INTRA.VDW>
6.25791

>  <SCORE.INTRA.VDW.0>
-2.78316

>  <SCORE.INTRA.norm>
0.417486

>  <SCORE.RESTR>
5.28849

>  <SCORE.RESTR.CAVITY>
5.28849

>  <SCORE.RESTR.norm>
0.10577

>  <SCORE.SYSTEM>
0

>  <SCORE.SYSTEM.CONST>
0

>  <SCORE.SYSTEM.DIHEDRAL>
0

>  <SCORE.SYSTEM.norm>
0

>  <SCORE.heavy>
50

>  <SCORE.norm>
0.540439

$$$$
