FB1.pdb
  RxDock  10092018163D
librxdock.so/0.1.0
 59 58  0  0  0  0  0  0  0  0999 V2000
   -5.4154   -8.0586    0.5952 C   0  0  0  0  0  0
   -4.6245   -7.6832    1.8461 C   0  0  0  0  0  0
   -3.1743   -7.2991    1.5089 C   0  0  0  0  0  0
   -3.0545   -5.9716    0.7196 C   0  0  0  0  0  0
   -1.8538   -5.0557    1.1437 C   0  0  0  0  0  0
   -1.7215   -3.9172    0.1060 C   0  0  0  0  0  0
   -1.9910   -4.4716    2.6126 C   0  0  0  0  0  0
   -2.8474   -3.1284    2.7824 C   0  0  0  0  0  0
   -2.3408   -1.6674    2.4122 C   0  0  0  0  0  0
   -0.8443   -1.2792    2.9875 C   0  0  0  0  0  0
   -0.2431   -0.2012    2.0872 C   0  0  0  0  0  0
   -0.7775   -0.8039    4.5089 C   0  0  0  0  0  0
   -1.6785    0.3895    5.1273 C   0  0  0  0  0  0
   -1.4648    0.9372    6.5801 C   0  0  0  0  0  0
   -0.1699    1.8243    6.8722 C   0  0  0  0  0  0
    0.0260    3.3059    6.3614 C   0  0  0  0  0  0
   -1.1039    4.3462    6.5814 C   0  0  0  0  0  0
   -0.6982    5.8657    6.4563 C   0  0  0  0  0  0
    0.4659    6.3330    7.3390 C   0  0  0  0  0  0
    0.2751    6.3135    8.8822 C   0  0  0  0  0  0
   -0.7695    7.2472    9.5622 C   0  0  0  0  0  0
   -0.9033    7.1266   11.0738 C   0  0  0  0  0  0
   -0.5586    8.6514    9.1618 N   0  0  0  0  0  0
   -0.1747    4.9671    9.1800 O   0  0  0  0  0  0
   -0.3630    6.1221    5.0882 O   0  0  0  0  0  0
   -1.4445    1.5148    4.2639 O   0  0  0  0  0  0
   -4.0468   -3.3072    1.9812 O   0  0  0  0  0  0
   -5.0061   -4.1285    2.4815 C   0  0  0  0  0  0
   -4.8531   -4.9704    3.3460 O   0  0  0  0  0  0
   -6.3235   -3.7560    1.8594 C   0  0  0  0  0  0
   -7.2836   -3.0950    2.8613 C   0  0  0  0  0  0
   -6.6970   -1.8233    3.4875 C   0  0  0  0  0  0
   -7.5481   -1.3399    4.6387 C   0  0  0  0  0  0
   -8.7396   -1.6038    4.7588 O   0  0  0  0  0  0
   -6.8740   -0.5915    5.5242 O   0  0  0  0  0  0
   -8.5518   -2.7527    2.0674 C   0  0  0  0  0  0
   -8.5279   -2.3382    0.9185 O   0  0  0  0  0  0
   -9.6919   -2.8991    2.7563 O   0  0  0  0  0  0
   -2.4135   -5.5230    3.5697 O   0  0  0  0  0  0
   -1.4554   -6.3993    4.0513 C   0  0  0  0  0  0
   -1.6815   -7.3242    4.8206 O   0  0  0  0  0  0
   -0.0538   -6.0866    3.5108 C   0  0  0  0  0  0
    0.6616   -7.2564    2.7663 C   0  0  0  0  0  0
   -0.2135   -8.3539    2.1338 C   0  0  0  0  0  0
    0.5477   -9.6143    1.8398 C   0  0  0  0  0  0
    0.0570  -10.7237    1.6814 O   0  0  0  0  0  0
    1.8695   -9.4049    1.7434 O   0  0  0  0  0  0
    1.6707   -6.8114    1.7004 C   0  0  0  0  0  0
    2.8733   -6.8726    1.8633 O   0  0  0  0  0  0
    1.1381   -6.4428    0.5164 O   0  0  0  0  0  0
    0.3667    8.7445    8.7450 H   0  0  0  0  0  0
   -0.5275    9.2301   10.0042 H   0  0  0  0  0  0
   -1.1311    4.9731    8.9639 H   0  0  0  0  0  0
   -1.0584    5.7331    4.5265 H   0  0  0  0  0  0
   -2.0674    2.2185    4.5115 H   0  0  0  0  0  0
   -5.9087   -0.5477    5.3834 H   0  0  0  0  0  0
  -10.5129   -2.7259    2.2321 H   0  0  0  0  0  0
    2.2914  -10.2885    1.6929 H   0  0  0  0  0  0
    1.7876   -6.2770   -0.2025 H   0  0  0  0  0  0
  1  2  1  0  0  0
  2  3  1  0  0  0
  3  4  1  0  0  0
  4  5  1  0  0  0
  5  6  1  0  0  0
  5  7  1  0  0  0
  7  8  1  0  0  0
  7 39  1  0  0  0
  8  9  1  0  0  0
  8 27  1  0  0  0
  9 10  1  0  0  0
 10 11  1  0  0  0
 10 12  1  0  0  0
 12 13  1  0  0  0
 13 14  1  0  0  0
 13 26  1  0  0  0
 14 15  1  0  0  0
 15 16  1  0  0  0
 16 17  1  0  0  0
 17 18  1  0  0  0
 18 19  1  0  0  0
 18 25  1  0  0  0
 19 20  1  0  0  0
 20 21  1  0  0  0
 20 24  1  0  0  0
 21 22  1  0  0  0
 21 23  1  0  0  0
 23 51  1  0  0  0
 23 52  1  0  0  0
 24 53  1  0  0  0
 25 54  1  0  0  0
 26 55  1  0  0  0
 27 28  1  0  0  0
 28 29  2  0  0  0
 28 30  1  0  0  0
 30 31  1  0  0  0
 31 32  1  0  0  0
 31 36  1  0  0  0
 32 33  1  0  0  0
 33 34  2  0  0  0
 33 35  1  0  0  0
 35 56  1  0  0  0
 36 37  2  0  0  0
 36 38  1  0  0  0
 38 57  1  0  0  0
 39 40  1  0  0  0
 40 41  2  0  0  0
 40 42  1  0  0  0
 42 43  1  0  0  0
 43 44  1  0  0  0
 43 48  1  0  0  0
 44 45  1  0  0  0
 45 46  2  0  0  0
 45 47  1  0  0  0
 47 58  1  0  0  0
 48 49  2  0  0  0
 48 50  1  0  0  0
 50 59  1  0  0  0
M  END
>  <AUTHOR>
    GENERATED BY OPEN BABEL 2.4.1

>  <CHROM.1>
68.34695107,140.36290891,169.78506059,-84.96540188,-76.87983651,79.98470247
-48.09693425,75.27724966,154.67794860,-53.16777622,-172.67288002,72.27461137
171.43197417,72.24529959,49.26101880,162.10960681,-54.56585315,-65.10036542
46.82379678,-65.36879736,178.52602019,-79.98138945,-15.76343616,-19.05571947
-110.00467408,58.47200304,-169.77081067,-38.61856802,-24.07005135,-7.55721515
-176.87408046,-178.37126638,-123.55777360,24.48091927,-161.73788594,105.32047922
159.36438892,171.32895981,-171.95019113,-2.37603478,-2.13277638,3.86022654
1.65442056,0.12505928,-2.71075614

>  <COMPND>
    UNNAMED

>  <MASTER>
        0    0    0    0    0    0    0    0  109    0  109    0

>  <Name>
FB1.pdb

>  <RI>
0

>  <Rbt.Current_Directory>
/home/fc/tossine/F10/p3/1_clust04

>  <Rbt.Executable>
rbdock/0.1.0

>  <Rbt.Library>
librxdock.so/0.1.0

>  <Rbt.Parameter_File>
/cluster/rxdock/data/scripts/dock.prm

>  <Rbt.Receptor>
rx_0.prm

>  <SCORE>
6.83358

>  <SCORE.INTER>
-3.44724

>  <SCORE.INTER.CONST>
1

>  <SCORE.INTER.POLAR>
-3.0138

>  <SCORE.INTER.REPUL>
0.703783

>  <SCORE.INTER.ROT>
32

>  <SCORE.INTER.VDW>
-34.1192

>  <SCORE.INTER.norm>
-0.0689448

>  <SCORE.INTRA>
9.81466

>  <SCORE.INTRA.DIHEDRAL>
-0.309647

>  <SCORE.INTRA.DIHEDRAL.0>
47.3121

>  <SCORE.INTRA.POLAR>
1.47808

>  <SCORE.INTRA.POLAR.0>
-1.47808

>  <SCORE.INTRA.REPUL>
0

>  <SCORE.INTRA.REPUL.0>
0

>  <SCORE.INTRA.VDW>
4.94402

>  <SCORE.INTRA.VDW.0>
-2.78316

>  <SCORE.INTRA.norm>
0.196293

>  <SCORE.RESTR>
0.466162

>  <SCORE.RESTR.CAVITY>
0.466162

>  <SCORE.RESTR.norm>
0.00932324

>  <SCORE.SYSTEM>
0

>  <SCORE.SYSTEM.CONST>
0

>  <SCORE.SYSTEM.DIHEDRAL>
0

>  <SCORE.SYSTEM.norm>
0

>  <SCORE.heavy>
50

>  <SCORE.norm>
0.136672

$$$$
