FB1.pdb
  RxDock  10092021003D
librxdock.so/0.1.0
 59 58  0  0  0  0  0  0  0  0999 V2000
  -13.5009   -5.9379    4.8299 C   0  0  0  0  0  0
  -13.7420   -5.2249    6.1584 C   0  0  0  0  0  0
  -13.8203   -3.6996    5.9800 C   0  0  0  0  0  0
  -12.5324   -3.0810    5.3813 C   0  0  0  0  0  0
  -11.4611   -2.6340    6.4362 C   0  0  0  0  0  0
  -10.7513   -3.8984    6.9731 C   0  0  0  0  0  0
  -10.4091   -1.5910    5.8675 C   0  0  0  0  0  0
   -8.9461   -1.6068    6.5199 C   0  0  0  0  0  0
   -7.8815   -0.4311    6.4076 C   0  0  0  0  0  0
   -6.7416   -0.6297    5.2318 C   0  0  0  0  0  0
   -7.3804   -1.3680    4.0566 C   0  0  0  0  0  0
   -6.0337    0.7001    4.7070 C   0  0  0  0  0  0
   -4.9903    1.5775    5.5787 C   0  0  0  0  0  0
   -3.5035    1.7990    5.1357 C   0  0  0  0  0  0
   -2.7161    0.5715    4.4856 C   0  0  0  0  0  0
   -1.2095    0.6312    4.0153 C   0  0  0  0  0  0
   -0.0922    0.8920    5.0598 C   0  0  0  0  0  0
    0.8383    2.1396    4.8010 C   0  0  0  0  0  0
    2.3080    1.8367    4.4833 C   0  0  0  0  0  0
    2.6239    0.8660    3.3103 C   0  0  0  0  0  0
    2.9982    1.4199    1.9037 C   0  0  0  0  0  0
    2.4403    0.6624    0.7068 C   0  0  0  0  0  0
    2.6904    2.8594    1.8068 N   0  0  0  0  0  0
    3.7946    0.1297    3.7475 O   0  0  0  0  0  0
    0.2827    2.8870    3.7136 O   0  0  0  0  0  0
   -5.5666    2.8935    5.6299 O   0  0  0  0  0  0
   -9.1407   -1.7806    7.9497 O   0  0  0  0  0  0
   -8.0443   -2.0944    8.6878 C   0  0  0  0  0  0
   -6.9609   -1.5439    8.6365 O   0  0  0  0  0  0
   -8.4198   -3.1776    9.6610 C   0  0  0  0  0  0
   -8.9917   -2.6195   10.9739 C   0  0  0  0  0  0
   -8.2960   -1.3257   11.4161 C   0  0  0  0  0  0
   -7.0038   -1.6220   12.1412 C   0  0  0  0  0  0
   -6.8170   -1.3670   13.3260 O   0  0  0  0  0  0
   -6.0740   -2.1957   11.3632 O   0  0  0  0  0  0
  -10.4790   -2.3509   10.7056 C   0  0  0  0  0  0
  -10.9279   -2.1402    9.5892 O   0  0  0  0  0  0
  -11.2422   -2.3171   11.8067 O   0  0  0  0  0  0
  -10.3558   -1.6380    4.3860 O   0  0  0  0  0  0
  -10.1365   -2.8603    3.7728 C   0  0  0  0  0  0
   -9.6564   -3.8408    4.3263 O   0  0  0  0  0  0
  -10.5660   -2.8599    2.2998 C   0  0  0  0  0  0
   -9.4983   -2.3495    1.2830 C   0  0  0  0  0  0
   -8.9725   -0.9117    1.4469 C   0  0  0  0  0  0
   -9.2331   -0.0511    0.2445 C   0  0  0  0  0  0
   -9.9457   -0.3481   -0.7046 O   0  0  0  0  0  0
   -8.6032    1.1316    0.3136 O   0  0  0  0  0  0
   -8.2766   -3.2636    1.1285 C   0  0  0  0  0  0
   -8.3663   -4.4473    0.8686 O   0  0  0  0  0  0
   -7.0786   -2.6457    1.1941 O   0  0  0  0  0  0
    3.2626    3.3693    2.4784 H   0  0  0  0  0  0
    1.7268    3.0089    2.1145 H   0  0  0  0  0  0
    3.4741   -0.4249    4.4899 H   0  0  0  0  0  0
    0.6782    3.7780    3.7235 H   0  0  0  0  0  0
   -5.0121    3.4423    6.2095 H   0  0  0  0  0  0
   -5.2552   -2.4648   11.8221 H   0  0  0  0  0  0
  -11.3667   -1.4143   12.1918 H   0  0  0  0  0  0
   -8.8689    1.6387   -0.4823 H   0  0  0  0  0  0
   -6.2987   -3.2255    1.0462 H   0  0  0  0  0  0
  1  2  1  0  0  0
  2  3  1  0  0  0
  3  4  1  0  0  0
  4  5  1  0  0  0
  5  6  1  0  0  0
  5  7  1  0  0  0
  7  8  1  0  0  0
  7 39  1  0  0  0
  8  9  1  0  0  0
  8 27  1  0  0  0
  9 10  1  0  0  0
 10 11  1  0  0  0
 10 12  1  0  0  0
 12 13  1  0  0  0
 13 14  1  0  0  0
 13 26  1  0  0  0
 14 15  1  0  0  0
 15 16  1  0  0  0
 16 17  1  0  0  0
 17 18  1  0  0  0
 18 19  1  0  0  0
 18 25  1  0  0  0
 19 20  1  0  0  0
 20 21  1  0  0  0
 20 24  1  0  0  0
 21 22  1  0  0  0
 21 23  1  0  0  0
 23 51  1  0  0  0
 23 52  1  0  0  0
 24 53  1  0  0  0
 25 54  1  0  0  0
 26 55  1  0  0  0
 27 28  1  0  0  0
 28 29  2  0  0  0
 28 30  1  0  0  0
 30 31  1  0  0  0
 31 32  1  0  0  0
 31 36  1  0  0  0
 32 33  1  0  0  0
 33 34  2  0  0  0
 33 35  1  0  0  0
 35 56  1  0  0  0
 36 37  2  0  0  0
 36 38  1  0  0  0
 38 57  1  0  0  0
 39 40  1  0  0  0
 40 41  2  0  0  0
 40 42  1  0  0  0
 42 43  1  0  0  0
 43 44  1  0  0  0
 43 48  1  0  0  0
 44 45  1  0  0  0
 45 46  2  0  0  0
 45 47  1  0  0  0
 47 58  1  0  0  0
 48 49  2  0  0  0
 48 50  1  0  0  0
 50 59  1  0  0  0
M  END
>  <AUTHOR>
    GENERATED BY OPEN BABEL 2.4.1

>  <CHROM.1>
-59.79059798,-90.11731151,75.77292192,-150.87705292,-162.28042032,-53.47228934
-97.59591596,167.05797122,33.32810461,70.26555819,118.27893043,-39.61459288
175.23284459,-178.82682554,63.10212901,-122.73821153,-113.46622700,54.34946671
162.95583292,98.04839580,-141.43794855,68.16318619,63.11776691,47.70488792
-87.27386339,-36.92662390,-82.12800511,-24.79167710,-114.59995417,-175.23589339
92.93759462,-19.24043207,86.07470558,-59.66931915,-120.06520534,53.34995885
10.14109952,-176.99151973,-176.82086007,-6.68295125,-1.11416246,5.38612924
2.83529202,0.35167871,1.59981864

>  <COMPND>
    UNNAMED

>  <MASTER>
        0    0    0    0    0    0    0    0  109    0  109    0

>  <Name>
FB1.pdb

>  <RI>
0

>  <Rbt.Current_Directory>
/home/fc/tossine/F10/p3/1_clust04

>  <Rbt.Executable>
rbdock/0.1.0

>  <Rbt.Library>
librxdock.so/0.1.0

>  <Rbt.Parameter_File>
/cluster/rxdock/data/scripts/dock.prm

>  <Rbt.Receptor>
rx_3.prm

>  <SCORE>
50.7488

>  <SCORE.INTER>
10.4707

>  <SCORE.INTER.CONST>
1

>  <SCORE.INTER.POLAR>
-1.83132

>  <SCORE.INTER.REPUL>
0.0621238

>  <SCORE.INTER.ROT>
32

>  <SCORE.INTER.VDW>
-21.0135

>  <SCORE.INTER.norm>
0.209414

>  <SCORE.INTRA>
38.5282

>  <SCORE.INTRA.DIHEDRAL>
56.4839

>  <SCORE.INTRA.DIHEDRAL.0>
47.3121

>  <SCORE.INTRA.POLAR>
1.0906

>  <SCORE.INTRA.POLAR.0>
-1.47808

>  <SCORE.INTRA.REPUL>
0

>  <SCORE.INTRA.REPUL.0>
0

>  <SCORE.INTRA.VDW>
6.57821

>  <SCORE.INTRA.VDW.0>
-2.78316

>  <SCORE.INTRA.norm>
0.770564

>  <SCORE.RESTR>
1.74991

>  <SCORE.RESTR.CAVITY>
1.74991

>  <SCORE.RESTR.norm>
0.0349982

>  <SCORE.SYSTEM>
0

>  <SCORE.SYSTEM.CONST>
0

>  <SCORE.SYSTEM.DIHEDRAL>
0

>  <SCORE.SYSTEM.norm>
0

>  <SCORE.heavy>
50

>  <SCORE.norm>
1.01498

$$$$
