FB1.pdb
  RxDock  10092020103D
librxdock.so/0.1.0
 59 58  0  0  0  0  0  0  0  0999 V2000
    1.6426    2.3555   12.6521 C   0  0  0  0  0  0
    2.2798    1.9497   11.3253 C   0  0  0  0  0  0
    1.8087    2.8474   10.1692 C   0  0  0  0  0  0
    0.3354    2.6026    9.7581 C   0  0  0  0  0  0
   -0.3053    3.7376    8.8853 C   0  0  0  0  0  0
   -0.2684    5.0533    9.6967 C   0  0  0  0  0  0
    0.3946    3.9220    7.4732 C   0  0  0  0  0  0
    0.7439    2.5887    6.6568 C   0  0  0  0  0  0
   -0.3120    1.6876    5.8813 C   0  0  0  0  0  0
   -1.6888    2.4676    5.4154 C   0  0  0  0  0  0
   -2.3093    1.7013    4.2484 C   0  0  0  0  0  0
   -2.7867    2.6945    6.5503 C   0  0  0  0  0  0
   -4.3330    3.0696    6.2553 C   0  0  0  0  0  0
   -5.4515    1.9797    6.1236 C   0  0  0  0  0  0
   -5.4390    1.0332    4.8378 C   0  0  0  0  0  0
   -6.4277   -0.1784    4.6167 C   0  0  0  0  0  0
   -7.9339    0.0993    4.3686 C   0  0  0  0  0  0
   -8.8632   -1.1625    4.1852 C   0  0  0  0  0  0
   -8.1860   -2.4342    3.6592 C   0  0  0  0  0  0
   -7.0962   -2.2884    2.5595 C   0  0  0  0  0  0
   -6.0287   -3.4029    2.3505 C   0  0  0  0  0  0
   -4.7880   -3.0128    1.5594 C   0  0  0  0  0  0
   -5.6602   -4.0254    3.6363 N   0  0  0  0  0  0
   -7.8361   -2.2386    1.3130 O   0  0  0  0  0  0
   -9.4629   -1.4571    5.4514 O   0  0  0  0  0  0
   -4.7340    3.8862    7.3683 O   0  0  0  0  0  0
    1.7039    2.9765    5.6368 O   0  0  0  0  0  0
    2.4588    1.9872    5.0922 C   0  0  0  0  0  0
    2.4990    0.8282    5.4589 O   0  0  0  0  0  0
    3.1680    2.5387    3.8862 C   0  0  0  0  0  0
    3.7166    1.4349    2.9679 C   0  0  0  0  0  0
    2.6268    0.4607    2.5026 C   0  0  0  0  0  0
    1.3947    1.2022    2.0386 C   0  0  0  0  0  0
    0.4908    1.5525    2.7897 O   0  0  0  0  0  0
    1.3822    1.4450    0.7196 O   0  0  0  0  0  0
    4.3269    2.1569    1.7587 C   0  0  0  0  0  0
    5.5140    2.0983    1.4763 O   0  0  0  0  0  0
    3.4569    2.9009    1.0619 O   0  0  0  0  0  0
   -0.3346    4.9078    6.6388 O   0  0  0  0  0  0
    0.3740    5.6115    5.6793 C   0  0  0  0  0  0
    1.5750    5.4929    5.4742 O   0  0  0  0  0  0
   -0.5178    6.5736    4.8835 C   0  0  0  0  0  0
   -0.1765    8.0893    5.0273 C   0  0  0  0  0  0
   -0.6776    8.8278    6.2818 C   0  0  0  0  0  0
   -0.4349    8.0612    7.5499 C   0  0  0  0  0  0
   -1.1654    7.1950    8.0110 O   0  0  0  0  0  0
    0.7131    8.4117    8.1497 O   0  0  0  0  0  0
    1.3114    8.4257    4.8677 C   0  0  0  0  0  0
    2.1893    7.8382    5.4684 O   0  0  0  0  0  0
    1.5985    9.3526    3.9298 O   0  0  0  0  0  0
   -6.3203   -4.7726    3.8470 H   0  0  0  0  0  0
   -5.7932   -3.3384    4.3818 H   0  0  0  0  0  0
   -8.2370   -3.1294    1.2284 H   0  0  0  0  0  0
  -10.1994   -2.0782    5.3020 H   0  0  0  0  0  0
   -4.6340    3.3596    8.1790 H   0  0  0  0  0  0
    0.6665    2.0332    0.4111 H   0  0  0  0  0  0
    3.8726    3.4954    0.3891 H   0  0  0  0  0  0
    0.9945    9.2593    7.7451 H   0  0  0  0  0  0
    0.8192    9.7692    3.4991 H   0  0  0  0  0  0
  1  2  1  0  0  0
  2  3  1  0  0  0
  3  4  1  0  0  0
  4  5  1  0  0  0
  5  6  1  0  0  0
  5  7  1  0  0  0
  7  8  1  0  0  0
  7 39  1  0  0  0
  8  9  1  0  0  0
  8 27  1  0  0  0
  9 10  1  0  0  0
 10 11  1  0  0  0
 10 12  1  0  0  0
 12 13  1  0  0  0
 13 14  1  0  0  0
 13 26  1  0  0  0
 14 15  1  0  0  0
 15 16  1  0  0  0
 16 17  1  0  0  0
 17 18  1  0  0  0
 18 19  1  0  0  0
 18 25  1  0  0  0
 19 20  1  0  0  0
 20 21  1  0  0  0
 20 24  1  0  0  0
 21 22  1  0  0  0
 21 23  1  0  0  0
 23 51  1  0  0  0
 23 52  1  0  0  0
 24 53  1  0  0  0
 25 54  1  0  0  0
 26 55  1  0  0  0
 27 28  1  0  0  0
 28 29  2  0  0  0
 28 30  1  0  0  0
 30 31  1  0  0  0
 31 32  1  0  0  0
 31 36  1  0  0  0
 32 33  1  0  0  0
 33 34  2  0  0  0
 33 35  1  0  0  0
 35 56  1  0  0  0
 36 37  2  0  0  0
 36 38  1  0  0  0
 38 57  1  0  0  0
 39 40  1  0  0  0
 40 41  2  0  0  0
 40 42  1  0  0  0
 42 43  1  0  0  0
 43 44  1  0  0  0
 43 48  1  0  0  0
 44 45  1  0  0  0
 45 46  2  0  0  0
 45 47  1  0  0  0
 47 58  1  0  0  0
 48 49  2  0  0  0
 48 50  1  0  0  0
 50 59  1  0  0  0
M  END
>  <AUTHOR>
    GENERATED BY OPEN BABEL 2.4.1

>  <CHROM.1>
-71.38904223,163.61897489,-60.11575769,43.94649448,75.27099654,152.79657191
24.19366836,160.17286015,157.22866290,-163.19859999,92.60883553,-70.14926815
-60.28376373,175.11013155,68.62627500,-178.81584178,-26.08839930,-38.74682971
165.75458299,157.59684583,-162.74609627,-66.41938372,85.85719417,-7.26983150
-163.39687547,56.37987021,45.98836004,117.29073853,-86.81933423,-171.46289100
169.23643150,-0.91635527,116.86944912,-80.10590672,45.82388585,-49.88362386
-84.93734787,15.44184453,4.85322595,-1.12673409,2.67829767,5.26563900,0.63366645
0.37472281,0.81050375

>  <COMPND>
    UNNAMED

>  <MASTER>
        0    0    0    0    0    0    0    0  109    0  109    0

>  <Name>
FB1.pdb

>  <RI>
0

>  <Rbt.Current_Directory>
/home/fc/tossine/F10/p3/1_clust04

>  <Rbt.Executable>
rbdock/0.1.0

>  <Rbt.Library>
librxdock.so/0.1.0

>  <Rbt.Parameter_File>
/cluster/rxdock/data/scripts/dock.prm

>  <Rbt.Receptor>
rx_2.prm

>  <SCORE>
17.8036

>  <SCORE.INTER>
9.1695

>  <SCORE.INTER.CONST>
1

>  <SCORE.INTER.POLAR>
-1.72981

>  <SCORE.INTER.REPUL>
1.56408

>  <SCORE.INTER.ROT>
32

>  <SCORE.INTER.VDW>
-30.1695

>  <SCORE.INTER.norm>
0.18339

>  <SCORE.INTRA>
7.51877

>  <SCORE.INTRA.DIHEDRAL>
2.27111

>  <SCORE.INTRA.DIHEDRAL.0>
47.3121

>  <SCORE.INTRA.POLAR>
1.47808

>  <SCORE.INTRA.POLAR.0>
-1.47808

>  <SCORE.INTRA.REPUL>
0

>  <SCORE.INTRA.REPUL.0>
0

>  <SCORE.INTRA.VDW>
1.35775

>  <SCORE.INTRA.VDW.0>
-2.78316

>  <SCORE.INTRA.norm>
0.150375

>  <SCORE.RESTR>
1.1153

>  <SCORE.RESTR.CAVITY>
1.1153

>  <SCORE.RESTR.norm>
0.022306

>  <SCORE.SYSTEM>
0

>  <SCORE.SYSTEM.CONST>
0

>  <SCORE.SYSTEM.DIHEDRAL>
0

>  <SCORE.SYSTEM.norm>
0

>  <SCORE.heavy>
50

>  <SCORE.norm>
0.356071

$$$$
