FB1.pdb
  RxDock  10092018153D
librxdock.so/0.1.0
 59 58  0  0  0  0  0  0  0  0999 V2000
    1.8301    3.9516   12.1050 C   0  0  0  0  0  0
    1.3458    4.8651   10.9815 C   0  0  0  0  0  0
    0.7574    4.0629    9.8091 C   0  0  0  0  0  0
   -0.4670    4.7435    9.1479 C   0  0  0  0  0  0
   -1.0512    3.9890    7.9030 C   0  0  0  0  0  0
   -2.4521    4.5678    7.5978 C   0  0  0  0  0  0
   -0.1163    4.0608    6.6229 C   0  0  0  0  0  0
   -0.0912    2.7737    5.6695 C   0  0  0  0  0  0
   -1.3239    2.2417    4.8177 C   0  0  0  0  0  0
   -1.2375    0.6540    4.3785 C   0  0  0  0  0  0
   -2.6489    0.0694    4.3919 C   0  0  0  0  0  0
   -0.5459    0.3498    2.9735 C   0  0  0  0  0  0
   -0.0093   -1.1088    2.5229 C   0  0  0  0  0  0
   -0.8163   -2.4234    2.8002 C   0  0  0  0  0  0
   -0.0414   -3.6691    3.4303 C   0  0  0  0  0  0
   -0.5412   -5.1646    3.3401 C   0  0  0  0  0  0
    0.0670   -6.1109    2.2715 C   0  0  0  0  0  0
   -0.8350   -7.3171    1.8018 C   0  0  0  0  0  0
   -0.7647   -7.6785    0.3129 C   0  0  0  0  0  0
   -1.7189   -8.7830   -0.2236 C   0  0  0  0  0  0
   -1.6162  -10.2437    0.3068 C   0  0  0  0  0  0
   -2.1496  -11.3362   -0.6093 C   0  0  0  0  0  0
   -0.2408  -10.5480    0.7452 N   0  0  0  0  0  0
   -3.0463   -8.3382    0.1560 O   0  0  0  0  0  0
   -0.4657   -8.4692    2.5674 O   0  0  0  0  0  0
    0.1063   -1.0343    1.0919 O   0  0  0  0  0  0
    0.9484    3.0185    4.6837 O   0  0  0  0  0  0
    2.1421    2.4003    4.8796 C   0  0  0  0  0  0
    2.3207    1.3505    5.4674 O   0  0  0  0  0  0
    3.2060    3.1799    4.1574 C   0  0  0  0  0  0
    3.9451    2.3364    3.1063 C   0  0  0  0  0  0
    4.7148    1.1639    3.7277 C   0  0  0  0  0  0
    6.0026    0.9009    2.9822 C   0  0  0  0  0  0
    7.0661    0.6432    3.5354 O   0  0  0  0  0  0
    5.8729    0.9744    1.6493 O   0  0  0  0  0  0
    2.8642    1.8088    2.1528 C   0  0  0  0  0  0
    1.6694    1.8689    2.4004 O   0  0  0  0  0  0
    3.3411    1.2291    1.0427 O   0  0  0  0  0  0
   -0.3484    5.3113    5.8599 O   0  0  0  0  0  0
    0.0775    6.5084    6.4111 C   0  0  0  0  0  0
    0.6344    6.6164    7.4958 O   0  0  0  0  0  0
   -0.2253    7.7089    5.5048 C   0  0  0  0  0  0
    1.0058    8.3412    4.7843 C   0  0  0  0  0  0
    0.7486    9.4686    3.7678 C   0  0  0  0  0  0
    0.5163    8.9602    2.3743 C   0  0  0  0  0  0
    0.7545    9.5726    1.3423 O   0  0  0  0  0  0
    0.0201    7.7137    2.3588 O   0  0  0  0  0  0
    2.1165    8.8244    5.7252 C   0  0  0  0  0  0
    1.9339    9.0378    6.9075 O   0  0  0  0  0  0
    3.3481    8.8974    5.1783 O   0  0  0  0  0  0
   -0.2460  -11.4119    1.2857 H   0  0  0  0  0  0
    0.0590   -9.8265    1.4047 H   0  0  0  0  0  0
   -3.0415   -8.3563    1.1363 H   0  0  0  0  0  0
   -0.6439   -8.2799    3.5070 H   0  0  0  0  0  0
    0.5199   -1.8567    0.7804 H   0  0  0  0  0  0
    6.6893    0.8044    1.1413 H   0  0  0  0  0  0
    4.3248    1.1254    1.0244 H   0  0  0  0  0  0
   -0.0639    7.4560    1.4166 H   0  0  0  0  0  0
    3.4131    8.5877    4.2477 H   0  0  0  0  0  0
  1  2  1  0  0  0
  2  3  1  0  0  0
  3  4  1  0  0  0
  4  5  1  0  0  0
  5  6  1  0  0  0
  5  7  1  0  0  0
  7  8  1  0  0  0
  7 39  1  0  0  0
  8  9  1  0  0  0
  8 27  1  0  0  0
  9 10  1  0  0  0
 10 11  1  0  0  0
 10 12  1  0  0  0
 12 13  1  0  0  0
 13 14  1  0  0  0
 13 26  1  0  0  0
 14 15  1  0  0  0
 15 16  1  0  0  0
 16 17  1  0  0  0
 17 18  1  0  0  0
 18 19  1  0  0  0
 18 25  1  0  0  0
 19 20  1  0  0  0
 20 21  1  0  0  0
 20 24  1  0  0  0
 21 22  1  0  0  0
 21 23  1  0  0  0
 23 51  1  0  0  0
 23 52  1  0  0  0
 24 53  1  0  0  0
 25 54  1  0  0  0
 26 55  1  0  0  0
 27 28  1  0  0  0
 28 29  2  0  0  0
 28 30  1  0  0  0
 30 31  1  0  0  0
 31 32  1  0  0  0
 31 36  1  0  0  0
 32 33  1  0  0  0
 33 34  2  0  0  0
 33 35  1  0  0  0
 35 56  1  0  0  0
 36 37  2  0  0  0
 36 38  1  0  0  0
 38 57  1  0  0  0
 39 40  1  0  0  0
 40 41  2  0  0  0
 40 42  1  0  0  0
 42 43  1  0  0  0
 43 44  1  0  0  0
 43 48  1  0  0  0
 44 45  1  0  0  0
 45 46  2  0  0  0
 45 47  1  0  0  0
 47 58  1  0  0  0
 48 49  2  0  0  0
 48 50  1  0  0  0
 50 59  1  0  0  0
M  END
>  <AUTHOR>
    GENERATED BY OPEN BABEL 2.4.1

>  <CHROM.1>
142.96494187,177.13002847,165.24395392,145.32093805,65.66483717,70.59249230
-158.38589190,101.23696503,145.16945876,163.32006857,41.95272550,-132.28501732
173.82431033,-159.16827342,99.36169756,-154.32645497,142.03200661,-175.12945089
61.79144743,-62.72235045,-156.29855989,-64.80346204,166.56919896,27.59178262
-121.07878313,-63.29316452,-144.85443726,-12.68901399,138.17613910,-179.71629735
6.39515806,-0.25244429,-107.02643895,174.75100985,-88.99549737,-18.84625691
-152.46723523,-177.79628690,-3.12004983,0.74918818,1.19989713,4.04849769
1.36229678,0.89651119,0.48255785

>  <COMPND>
    UNNAMED

>  <MASTER>
        0    0    0    0    0    0    0    0  109    0  109    0

>  <Name>
FB1.pdb

>  <RI>
0

>  <Rbt.Current_Directory>
/home/fc/tossine/F10/p3/1_clust04

>  <Rbt.Executable>
rbdock/0.1.0

>  <Rbt.Library>
librxdock.so/0.1.0

>  <Rbt.Parameter_File>
/cluster/rxdock/data/scripts/dock.prm

>  <Rbt.Receptor>
rx_0.prm

>  <SCORE>
17.0586

>  <SCORE.INTER>
8.85345

>  <SCORE.INTER.CONST>
1

>  <SCORE.INTER.POLAR>
-1.43157

>  <SCORE.INTER.REPUL>
0.190606

>  <SCORE.INTER.ROT>
32

>  <SCORE.INTER.VDW>
-24.6322

>  <SCORE.INTER.norm>
0.177069

>  <SCORE.INTRA>
7.47487

>  <SCORE.INTRA.DIHEDRAL>
18.5654

>  <SCORE.INTRA.DIHEDRAL.0>
47.3121

>  <SCORE.INTRA.POLAR>
-0.452633

>  <SCORE.INTRA.POLAR.0>
-1.47808

>  <SCORE.INTRA.REPUL>
0.0850713

>  <SCORE.INTRA.REPUL.0>
0

>  <SCORE.INTRA.VDW>
-0.694247

>  <SCORE.INTRA.VDW.0>
-2.78316

>  <SCORE.INTRA.norm>
0.149497

>  <SCORE.RESTR>
0.730266

>  <SCORE.RESTR.CAVITY>
0.730266

>  <SCORE.RESTR.norm>
0.0146053

>  <SCORE.SYSTEM>
0

>  <SCORE.SYSTEM.CONST>
0

>  <SCORE.SYSTEM.DIHEDRAL>
0

>  <SCORE.SYSTEM.norm>
0

>  <SCORE.heavy>
50

>  <SCORE.norm>
0.341172

$$$$
