FB1.pdb
  RxDock  10092019073D
librxdock.so/0.1.0
 59 58  0  0  0  0  0  0  0  0999 V2000
   -4.5082    4.9502    3.2410 C   0  0  0  0  0  0
   -4.0779    3.9941    4.3509 C   0  0  0  0  0  0
   -3.4251    2.7220    3.7853 C   0  0  0  0  0  0
   -3.0706    1.6749    4.8705 C   0  0  0  0  0  0
   -1.8878    2.0788    5.8182 C   0  0  0  0  0  0
   -2.1279    1.4265    7.1994 C   0  0  0  0  0  0
   -0.4587    1.6907    5.2481 C   0  0  0  0  0  0
   -0.1573    0.1304    5.0461 C   0  0  0  0  0  0
   -1.2372   -0.9659    4.6460 C   0  0  0  0  0  0
   -1.6307   -1.0084    3.0446 C   0  0  0  0  0  0
   -1.2288    0.3223    2.4108 C   0  0  0  0  0  0
   -1.0113   -2.2118    2.2001 C   0  0  0  0  0  0
   -1.8054   -3.0061    1.0351 C   0  0  0  0  0  0
   -1.3172   -4.3867    0.4767 C   0  0  0  0  0  0
    0.0825   -4.9588    0.9893 C   0  0  0  0  0  0
    0.5717   -6.4436    0.7643 C   0  0  0  0  0  0
    0.4151   -7.4817    1.9067 C   0  0  0  0  0  0
   -0.9423   -7.4471    2.7102 C   0  0  0  0  0  0
   -1.3136   -8.7255    3.4720 C   0  0  0  0  0  0
   -2.8053   -9.1642    3.4933 C   0  0  0  0  0  0
   -3.8818   -8.2754    4.1836 C   0  0  0  0  0  0
   -4.0756   -6.8783    3.6109 C   0  0  0  0  0  0
   -5.1694   -8.9890    4.2800 N   0  0  0  0  0  0
   -3.1951   -9.2096    2.0969 O   0  0  0  0  0  0
   -0.8751   -6.3643    3.6445 O   0  0  0  0  0  0
   -3.1083   -3.2635    1.5853 O   0  0  0  0  0  0
    0.8486    0.0429    4.0005 O   0  0  0  0  0  0
    2.1399    0.2499    4.3680 C   0  0  0  0  0  0
    2.7799   -0.4203    5.1558 O   0  0  0  0  0  0
    2.6875    1.3931    3.5590 C   0  0  0  0  0  0
    2.8746    1.0312    2.0769 C   0  0  0  0  0  0
    1.5429    0.9377    1.3211 C   0  0  0  0  0  0
    1.7617    0.5504   -0.1230 C   0  0  0  0  0  0
    0.9040    0.6610   -0.9923 O   0  0  0  0  0  0
    2.9908    0.0726   -0.3677 O   0  0  0  0  0  0
    3.7421    2.1462    1.4767 C   0  0  0  0  0  0
    4.9505    2.0446    1.3288 O   0  0  0  0  0  0
    3.0710    3.2654    1.1716 O   0  0  0  0  0  0
   -0.1340    2.4796    4.0348 O   0  0  0  0  0  0
    0.5270    3.6865    4.1908 C   0  0  0  0  0  0
    1.4958    4.0402    3.5315 O   0  0  0  0  0  0
   -0.0919    4.5525    5.2960 C   0  0  0  0  0  0
    0.6186    5.9151    5.5666 C   0  0  0  0  0  0
    0.8642    6.8529    4.3705 C   0  0  0  0  0  0
   -0.3305    7.6971    4.0321 C   0  0  0  0  0  0
   -0.7024    8.6866    4.6479 O   0  0  0  0  0  0
   -0.9718    7.2631    2.9364 O   0  0  0  0  0  0
   -0.0191    6.7569    6.6787 C   0  0  0  0  0  0
   -1.1964    7.0582    6.6862 O   0  0  0  0  0  0
    0.7913    7.0572    7.7152 O   0  0  0  0  0  0
   -5.8885   -8.3395    4.5954 H   0  0  0  0  0  0
   -5.1009   -9.6875    5.0236 H   0  0  0  0  0  0
   -3.0659   -8.2926    1.7748 H   0  0  0  0  0  0
   -0.1635   -6.5568    4.2826 H   0  0  0  0  0  0
   -3.5995   -2.4250    1.6000 H   0  0  0  0  0  0
    3.1337   -0.2658   -1.2725 H   0  0  0  0  0  0
    2.1847    3.3429    1.6043 H   0  0  0  0  0  0
   -1.7983    7.7862    2.8684 H   0  0  0  0  0  0
    0.3486    7.4754    8.4867 H   0  0  0  0  0  0
  1  2  1  0  0  0
  2  3  1  0  0  0
  3  4  1  0  0  0
  4  5  1  0  0  0
  5  6  1  0  0  0
  5  7  1  0  0  0
  7  8  1  0  0  0
  7 39  1  0  0  0
  8  9  1  0  0  0
  8 27  1  0  0  0
  9 10  1  0  0  0
 10 11  1  0  0  0
 10 12  1  0  0  0
 12 13  1  0  0  0
 13 14  1  0  0  0
 13 26  1  0  0  0
 14 15  1  0  0  0
 15 16  1  0  0  0
 16 17  1  0  0  0
 17 18  1  0  0  0
 18 19  1  0  0  0
 18 25  1  0  0  0
 19 20  1  0  0  0
 20 21  1  0  0  0
 20 24  1  0  0  0
 21 22  1  0  0  0
 21 23  1  0  0  0
 23 51  1  0  0  0
 23 52  1  0  0  0
 24 53  1  0  0  0
 25 54  1  0  0  0
 26 55  1  0  0  0
 27 28  1  0  0  0
 28 29  2  0  0  0
 28 30  1  0  0  0
 30 31  1  0  0  0
 31 32  1  0  0  0
 31 36  1  0  0  0
 32 33  1  0  0  0
 33 34  2  0  0  0
 33 35  1  0  0  0
 35 56  1  0  0  0
 36 37  2  0  0  0
 36 38  1  0  0  0
 38 57  1  0  0  0
 39 40  1  0  0  0
 40 41  2  0  0  0
 40 42  1  0  0  0
 42 43  1  0  0  0
 43 44  1  0  0  0
 43 48  1  0  0  0
 44 45  1  0  0  0
 45 46  2  0  0  0
 45 47  1  0  0  0
 47 58  1  0  0  0
 48 49  2  0  0  0
 48 50  1  0  0  0
 50 59  1  0  0  0
M  END
>  <AUTHOR>
    GENERATED BY OPEN BABEL 2.4.1

>  <CHROM.1>
-175.59233051,-70.08482202,149.65970271,-63.41367047,32.72748300,90.30977772
78.99620248,81.21820403,-19.50262954,141.47217235,-164.47629728,-5.54294810
73.18252845,166.78385059,-98.82474222,41.82313261,159.21380250,-141.30090080
-64.07382022,-64.27381182,61.49442002,-60.67722743,-171.02395478,62.01216596
-69.79131030,73.31453277,-178.72275897,97.60989299,-165.26234166,174.36342046
17.30322001,133.38309658,178.30185494,52.50557146,83.36154729,-53.93482560
76.49045049,172.02348810,-171.02692945,-0.43283268,0.08883400,3.36084556
1.37521155,0.58921810,0.26040661

>  <COMPND>
    UNNAMED

>  <MASTER>
        0    0    0    0    0    0    0    0  109    0  109    0

>  <Name>
FB1.pdb

>  <RI>
0

>  <Rbt.Current_Directory>
/home/fc/tossine/F10/p3/1_clust04

>  <Rbt.Executable>
rbdock/0.1.0

>  <Rbt.Library>
librxdock.so/0.1.0

>  <Rbt.Parameter_File>
/cluster/rxdock/data/scripts/dock.prm

>  <Rbt.Receptor>
rx_1.prm

>  <SCORE>
31.2322

>  <SCORE.INTER>
0.635251

>  <SCORE.INTER.CONST>
1

>  <SCORE.INTER.POLAR>
-2.93326

>  <SCORE.INTER.REPUL>
0.951625

>  <SCORE.INTER.ROT>
32

>  <SCORE.INTER.VDW>
-31.5498

>  <SCORE.INTER.norm>
0.012705

>  <SCORE.INTRA>
28.6728

>  <SCORE.INTRA.DIHEDRAL>
44.7742

>  <SCORE.INTRA.DIHEDRAL.0>
47.3121

>  <SCORE.INTRA.POLAR>
0.812526

>  <SCORE.INTRA.POLAR.0>
-1.47808

>  <SCORE.INTRA.REPUL>
0

>  <SCORE.INTRA.REPUL.0>
0

>  <SCORE.INTRA.VDW>
3.52315

>  <SCORE.INTRA.VDW.0>
-2.78316

>  <SCORE.INTRA.norm>
0.573457

>  <SCORE.RESTR>
1.92409

>  <SCORE.RESTR.CAVITY>
1.92409

>  <SCORE.RESTR.norm>
0.0384818

>  <SCORE.SYSTEM>
0

>  <SCORE.SYSTEM.CONST>
0

>  <SCORE.SYSTEM.DIHEDRAL>
0

>  <SCORE.SYSTEM.norm>
0

>  <SCORE.heavy>
50

>  <SCORE.norm>
0.624644

$$$$
