FB1.pdb
  RxDock  10092020083D
librxdock.so/0.1.0
 59 58  0  0  0  0  0  0  0  0999 V2000
   -5.0025    1.9781    5.8502 C   0  0  0  0  0  0
   -4.4518    3.3401    5.4342 C   0  0  0  0  0  0
   -3.6678    4.0097    6.5749 C   0  0  0  0  0  0
   -2.9349    5.3045    6.1435 C   0  0  0  0  0  0
   -2.4581    6.2197    7.3249 C   0  0  0  0  0  0
   -3.5994    6.3045    8.3645 C   0  0  0  0  0  0
   -1.1094    5.7287    8.0016 C   0  0  0  0  0  0
   -0.8316    4.1511    8.0051 C   0  0  0  0  0  0
   -0.7471    3.2339    6.7090 C   0  0  0  0  0  0
   -0.7680    1.6101    6.9986 C   0  0  0  0  0  0
   -0.9922    1.3867    8.4933 C   0  0  0  0  0  0
   -1.8308    0.7609    6.1655 C   0  0  0  0  0  0
   -2.0241    0.8703    4.5626 C   0  0  0  0  0  0
   -0.8912    0.4829    3.5514 C   0  0  0  0  0  0
   -0.2276   -0.9640    3.6754 C   0  0  0  0  0  0
   -1.0336   -2.3204    3.6042 C   0  0  0  0  0  0
   -0.4561   -3.5895    4.2848 C   0  0  0  0  0  0
   -1.4645   -4.7770    4.5344 C   0  0  0  0  0  0
   -1.9161   -5.5570    3.2934 C   0  0  0  0  0  0
   -2.7528   -6.8514    3.5002 C   0  0  0  0  0  0
   -4.2251   -6.7703    4.0015 C   0  0  0  0  0  0
   -4.9879   -8.0854    4.0786 C   0  0  0  0  0  0
   -4.3053   -6.0385    5.2800 N   0  0  0  0  0  0
   -2.8377   -7.4489    2.1812 O   0  0  0  0  0  0
   -0.8512   -5.6924    5.4487 O   0  0  0  0  0  0
   -3.1155   -0.0153    4.2607 O   0  0  0  0  0  0
    0.4520    3.9659    8.6612 O   0  0  0  0  0  0
    0.5342    4.3261    9.9684 C   0  0  0  0  0  0
   -0.2670    5.0081   10.5785 O   0  0  0  0  0  0
    1.7366    3.6546   10.5724 C   0  0  0  0  0  0
    1.3588    2.4775   11.4858 C   0  0  0  0  0  0
    2.3390    1.3033   11.3688 C   0  0  0  0  0  0
    3.7634    1.7925   11.2462 C   0  0  0  0  0  0
    4.5876    1.2971   10.4853 O   0  0  0  0  0  0
    4.0441    2.8276   12.0515 O   0  0  0  0  0  0
    1.3726    3.0327   12.9168 C   0  0  0  0  0  0
    0.6235    2.6323   13.7948 O   0  0  0  0  0  0
    2.2437    4.0318   13.1139 O   0  0  0  0  0  0
    0.0544    6.4953    7.4938 O   0  0  0  0  0  0
    0.1103    7.8552    7.7499 C   0  0  0  0  0  0
   -0.7498    8.4868    8.3496 O   0  0  0  0  0  0
    1.3863    8.5019    7.1948 C   0  0  0  0  0  0
    1.4605    8.6290    5.6414 C   0  0  0  0  0  0
    2.8134    9.0056    5.0104 C   0  0  0  0  0  0
    3.0302   10.4891    4.9292 C   0  0  0  0  0  0
    3.7116   11.1538    5.6977 O   0  0  0  0  0  0
    2.3984   11.0436    3.8834 O   0  0  0  0  0  0
    0.9268    7.4119    4.8758 C   0  0  0  0  0  0
    0.0291    7.4867    4.0601 O   0  0  0  0  0  0
    1.5927    6.2572    5.0865 O   0  0  0  0  0  0
   -3.8128   -6.5669    5.9988 H   0  0  0  0  0  0
   -5.2806   -6.0225    5.5866 H   0  0  0  0  0  0
   -1.9050   -7.5594    1.9000 H   0  0  0  0  0  0
   -0.1633   -6.1880    4.9674 H   0  0  0  0  0  0
   -3.2953    0.0432    3.3074 H   0  0  0  0  0  0
    4.9851    3.0864   12.0848 H   0  0  0  0  0  0
    2.2451    4.3994   14.0324 H   0  0  0  0  0  0
    2.0510   10.3047    3.3406 H   0  0  0  0  0  0
    2.3534    6.3184    5.7060 H   0  0  0  0  0  0
  1  2  1  0  0  0
  2  3  1  0  0  0
  3  4  1  0  0  0
  4  5  1  0  0  0
  5  6  1  0  0  0
  5  7  1  0  0  0
  7  8  1  0  0  0
  7 39  1  0  0  0
  8  9  1  0  0  0
  8 27  1  0  0  0
  9 10  1  0  0  0
 10 11  1  0  0  0
 10 12  1  0  0  0
 12 13  1  0  0  0
 13 14  1  0  0  0
 13 26  1  0  0  0
 14 15  1  0  0  0
 15 16  1  0  0  0
 16 17  1  0  0  0
 17 18  1  0  0  0
 18 19  1  0  0  0
 18 25  1  0  0  0
 19 20  1  0  0  0
 20 21  1  0  0  0
 20 24  1  0  0  0
 21 22  1  0  0  0
 21 23  1  0  0  0
 23 51  1  0  0  0
 23 52  1  0  0  0
 24 53  1  0  0  0
 25 54  1  0  0  0
 26 55  1  0  0  0
 27 28  1  0  0  0
 28 29  2  0  0  0
 28 30  1  0  0  0
 30 31  1  0  0  0
 31 32  1  0  0  0
 31 36  1  0  0  0
 32 33  1  0  0  0
 33 34  2  0  0  0
 33 35  1  0  0  0
 35 56  1  0  0  0
 36 37  2  0  0  0
 36 38  1  0  0  0
 38 57  1  0  0  0
 39 40  1  0  0  0
 40 41  2  0  0  0
 40 42  1  0  0  0
 42 43  1  0  0  0
 43 44  1  0  0  0
 43 48  1  0  0  0
 44 45  1  0  0  0
 45 46  2  0  0  0
 45 47  1  0  0  0
 47 58  1  0  0  0
 48 49  2  0  0  0
 48 50  1  0  0  0
 50 59  1  0  0  0
M  END
>  <AUTHOR>
    GENERATED BY OPEN BABEL 2.4.1

>  <CHROM.1>
172.42122334,164.08069604,-43.63909290,-30.95671960,58.15245319,63.77998365
-167.70152543,63.96613982,4.95480473,49.14213011,63.32672306,53.48874124
177.70563765,57.18329332,-155.15138947,163.19214758,72.09026776,171.84649875
-74.42080546,70.78860186,175.87672630,56.25949443,-64.96482513,-14.53937941
-105.38686623,142.30681400,39.32140507,147.42006105,-139.01551250,171.98622789
179.18830714,-1.43721245,71.28045779,-168.09525366,-87.01155254,122.67588517
100.55816947,-8.41643410,-0.26886037,-0.38819492,2.50022314,6.93159380,2.29091475
1.10493899,2.74139025

>  <COMPND>
    UNNAMED

>  <MASTER>
        0    0    0    0    0    0    0    0  109    0  109    0

>  <Name>
FB1.pdb

>  <RI>
0

>  <Rbt.Current_Directory>
/home/fc/tossine/F10/p3/1_clust04

>  <Rbt.Executable>
rbdock/0.1.0

>  <Rbt.Library>
librxdock.so/0.1.0

>  <Rbt.Parameter_File>
/cluster/rxdock/data/scripts/dock.prm

>  <Rbt.Receptor>
rx_2.prm

>  <SCORE>
8.17341

>  <SCORE.INTER>
-0.354294

>  <SCORE.INTER.CONST>
1

>  <SCORE.INTER.POLAR>
-3.38608

>  <SCORE.INTER.REPUL>
0.331301

>  <SCORE.INTER.ROT>
32

>  <SCORE.INTER.VDW>
-27.8981

>  <SCORE.INTER.norm>
-0.00708587

>  <SCORE.INTRA>
8.43107

>  <SCORE.INTRA.DIHEDRAL>
-6.3366

>  <SCORE.INTRA.DIHEDRAL.0>
47.3121

>  <SCORE.INTRA.POLAR>
1.47808

>  <SCORE.INTRA.POLAR.0>
-1.47808

>  <SCORE.INTRA.REPUL>
0.00722984

>  <SCORE.INTRA.REPUL.0>
0

>  <SCORE.INTRA.VDW>
6.53776

>  <SCORE.INTRA.VDW.0>
-2.78316

>  <SCORE.INTRA.norm>
0.168621

>  <SCORE.RESTR>
0.0966316

>  <SCORE.RESTR.CAVITY>
0.0966316

>  <SCORE.RESTR.norm>
0.00193263

>  <SCORE.SYSTEM>
0

>  <SCORE.SYSTEM.CONST>
0

>  <SCORE.SYSTEM.DIHEDRAL>
0

>  <SCORE.SYSTEM.norm>
0

>  <SCORE.heavy>
50

>  <SCORE.norm>
0.163468

$$$$
