FB1.pdb
  RxDock  10092020123D
librxdock.so/0.1.0
 59 58  0  0  0  0  0  0  0  0999 V2000
   -2.0393   -5.7059    4.9622 C   0  0  0  0  0  0
   -1.0990   -4.5030    4.9487 C   0  0  0  0  0  0
    0.0564   -4.6947    3.9524 C   0  0  0  0  0  0
   -0.1984   -4.0312    2.5760 C   0  0  0  0  0  0
   -1.4498   -4.5740    1.8015 C   0  0  0  0  0  0
   -1.2763   -6.0979    1.6060 C   0  0  0  0  0  0
   -2.8280   -4.2468    2.5165 C   0  0  0  0  0  0
   -3.1578   -2.7023    2.7845 C   0  0  0  0  0  0
   -2.2095   -1.4845    2.4026 C   0  0  0  0  0  0
   -1.0517   -1.1222    3.5205 C   0  0  0  0  0  0
   -0.0472   -0.1624    2.8850 C   0  0  0  0  0  0
   -1.5726   -0.5147    4.9006 C   0  0  0  0  0  0
   -2.3349    0.9062    5.0365 C   0  0  0  0  0  0
   -3.7484    1.1645    4.4111 C   0  0  0  0  0  0
   -4.4619    2.5627    4.7032 C   0  0  0  0  0  0
   -4.0712    3.9232    4.0025 C   0  0  0  0  0  0
   -3.4686    5.0744    4.8504 C   0  0  0  0  0  0
   -2.0513    4.8113    5.4915 C   0  0  0  0  0  0
   -1.3049    6.0431    6.0188 C   0  0  0  0  0  0
   -0.9431    7.1726    5.0130 C   0  0  0  0  0  0
   -0.1104    8.4055    5.4734 C   0  0  0  0  0  0
    0.1287    9.4890    4.4312 C   0  0  0  0  0  0
   -0.6643    8.9801    6.7141 N   0  0  0  0  0  0
   -0.1254    6.5214    4.0075 O   0  0  0  0  0  0
   -2.2195    3.8852    6.5702 O   0  0  0  0  0  0
   -2.5095    1.0981    6.4505 O   0  0  0  0  0  0
   -4.4002   -2.4244    2.0833 O   0  0  0  0  0  0
   -5.4577   -2.0249    2.8366 C   0  0  0  0  0  0
   -5.4049   -1.3732    3.8623 O   0  0  0  0  0  0
   -6.7233   -2.4362    2.1364 C   0  0  0  0  0  0
   -7.9159   -1.5351    2.4948 C   0  0  0  0  0  0
   -9.1207   -1.7585    1.5719 C   0  0  0  0  0  0
   -9.5609   -3.2040    1.5903 C   0  0  0  0  0  0
  -10.5849   -3.5942    2.1407 O   0  0  0  0  0  0
   -8.7223   -4.0262    0.9426 O   0  0  0  0  0  0
   -8.2901   -1.8862    3.9414 C   0  0  0  0  0  0
   -9.1594   -2.6953    4.2279 O   0  0  0  0  0  0
   -7.6168   -1.1936    4.8704 O   0  0  0  0  0  0
   -3.9548   -4.9472    1.8533 O   0  0  0  0  0  0
   -5.0586   -5.2896    2.6163 C   0  0  0  0  0  0
   -5.1796   -5.0532    3.8113 O   0  0  0  0  0  0
   -6.1361   -6.0091    1.7944 C   0  0  0  0  0  0
   -5.8661   -7.5165    1.4955 C   0  0  0  0  0  0
   -5.5941   -8.4528    2.6871 C   0  0  0  0  0  0
   -4.4400   -8.0024    3.5355 C   0  0  0  0  0  0
   -3.3453   -7.6474    3.1206 O   0  0  0  0  0  0
   -4.7335   -8.0058    4.8447 O   0  0  0  0  0  0
   -6.9287   -8.1935    0.6210 C   0  0  0  0  0  0
   -6.7228   -8.5266   -0.5294 O   0  0  0  0  0  0
   -8.0858   -8.4971    1.2458 O   0  0  0  0  0  0
   -0.6301    8.2779    7.4518 H   0  0  0  0  0  0
   -1.6599    9.1651    6.5723 H   0  0  0  0  0  0
   -0.0300    7.1897    3.2964 H   0  0  0  0  0  0
   -1.3363    3.5860    6.8548 H   0  0  0  0  0  0
   -3.0906    0.3924    6.7802 H   0  0  0  0  0  0
   -8.8900   -4.9793    1.0727 H   0  0  0  0  0  0
   -7.8839   -1.3907    5.8024 H   0  0  0  0  0  0
   -3.9387   -7.6723    5.3120 H   0  0  0  0  0  0
   -8.1146   -8.2804    2.2041 H   0  0  0  0  0  0
  1  2  1  0  0  0
  2  3  1  0  0  0
  3  4  1  0  0  0
  4  5  1  0  0  0
  5  6  1  0  0  0
  5  7  1  0  0  0
  7  8  1  0  0  0
  7 39  1  0  0  0
  8  9  1  0  0  0
  8 27  1  0  0  0
  9 10  1  0  0  0
 10 11  1  0  0  0
 10 12  1  0  0  0
 12 13  1  0  0  0
 13 14  1  0  0  0
 13 26  1  0  0  0
 14 15  1  0  0  0
 15 16  1  0  0  0
 16 17  1  0  0  0
 17 18  1  0  0  0
 18 19  1  0  0  0
 18 25  1  0  0  0
 19 20  1  0  0  0
 20 21  1  0  0  0
 20 24  1  0  0  0
 21 22  1  0  0  0
 21 23  1  0  0  0
 23 51  1  0  0  0
 23 52  1  0  0  0
 24 53  1  0  0  0
 25 54  1  0  0  0
 26 55  1  0  0  0
 27 28  1  0  0  0
 28 29  2  0  0  0
 28 30  1  0  0  0
 30 31  1  0  0  0
 31 32  1  0  0  0
 31 36  1  0  0  0
 32 33  1  0  0  0
 33 34  2  0  0  0
 33 35  1  0  0  0
 35 56  1  0  0  0
 36 37  2  0  0  0
 36 38  1  0  0  0
 38 57  1  0  0  0
 39 40  1  0  0  0
 40 41  2  0  0  0
 40 42  1  0  0  0
 42 43  1  0  0  0
 43 44  1  0  0  0
 43 48  1  0  0  0
 44 45  1  0  0  0
 45 46  2  0  0  0
 45 47  1  0  0  0
 47 58  1  0  0  0
 48 49  2  0  0  0
 48 50  1  0  0  0
 50 59  1  0  0  0
M  END
>  <AUTHOR>
    GENERATED BY OPEN BABEL 2.4.1

>  <CHROM.1>
96.49592267,-60.89108264,-57.63892498,58.02819908,-0.57669735,151.06398382
-85.09252532,118.61407580,167.54354927,-63.80695540,65.60385791,175.17767644
-63.71637414,76.41257068,-114.55654668,65.55428454,165.02779420,-60.80755036
169.07502580,-176.25293313,-176.93965609,170.35412560,60.82760301,31.87718826
-153.54578933,167.87965434,56.89866127,-94.87350809,107.42286503,169.38708355
177.52177466,0.17403942,78.23994892,54.88301425,-56.49713273,109.07594640
-47.13246719,-178.16802800,-2.01412489,-4.09017293,-1.67566578,3.46467272
-1.92470890,-0.15060188,0.18983831

>  <COMPND>
    UNNAMED

>  <MASTER>
        0    0    0    0    0    0    0    0  109    0  109    0

>  <Name>
FB1.pdb

>  <RI>
0

>  <Rbt.Current_Directory>
/home/fc/tossine/F10/p3/1_clust04

>  <Rbt.Executable>
rbdock/0.1.0

>  <Rbt.Library>
librxdock.so/0.1.0

>  <Rbt.Parameter_File>
/cluster/rxdock/data/scripts/dock.prm

>  <Rbt.Receptor>
rx_2.prm

>  <SCORE>
4.83436

>  <SCORE.INTER>
0.41971

>  <SCORE.INTER.CONST>
1

>  <SCORE.INTER.POLAR>
-2.03535

>  <SCORE.INTER.REPUL>
1.44351

>  <SCORE.INTER.ROT>
32

>  <SCORE.INTER.VDW>
-37.2777

>  <SCORE.INTER.norm>
0.0083942

>  <SCORE.INTRA>
3.91125

>  <SCORE.INTRA.DIHEDRAL>
3.28135

>  <SCORE.INTRA.DIHEDRAL.0>
47.3121

>  <SCORE.INTRA.POLAR>
1.47808

>  <SCORE.INTRA.POLAR.0>
-1.47808

>  <SCORE.INTRA.REPUL>
0

>  <SCORE.INTRA.REPUL.0>
0

>  <SCORE.INTRA.VDW>
-2.75488

>  <SCORE.INTRA.VDW.0>
-2.78316

>  <SCORE.INTRA.norm>
0.0782251

>  <SCORE.RESTR>
0.5034

>  <SCORE.RESTR.CAVITY>
0.5034

>  <SCORE.RESTR.norm>
0.010068

>  <SCORE.SYSTEM>
0

>  <SCORE.SYSTEM.CONST>
0

>  <SCORE.SYSTEM.DIHEDRAL>
0

>  <SCORE.SYSTEM.norm>
0

>  <SCORE.heavy>
50

>  <SCORE.norm>
0.0966873

$$$$
