FB1.pdb
  RxDock  10092020163D
librxdock.so/0.1.0
 59 58  0  0  0  0  0  0  0  0999 V2000
   -3.3521    5.7351    9.9534 C   0  0  0  0  0  0
   -3.1685    6.0537    8.4715 C   0  0  0  0  0  0
   -4.5160    6.2822    7.7671 C   0  0  0  0  0  0
   -5.3578    4.9912    7.6105 C   0  0  0  0  0  0
   -5.0780    4.1737    6.3014 C   0  0  0  0  0  0
   -4.7704    5.1724    5.1618 C   0  0  0  0  0  0
   -3.9095    3.1113    6.4558 C   0  0  0  0  0  0
   -4.0202    1.7778    5.5751 C   0  0  0  0  0  0
   -5.2438    1.4034    4.6313 C   0  0  0  0  0  0
   -6.1491    0.1199    5.1358 C   0  0  0  0  0  0
   -7.0286    0.5742    6.2996 C   0  0  0  0  0  0
   -7.0530   -0.5829    4.0249 C   0  0  0  0  0  0
   -8.6159   -0.2436    3.7785 C   0  0  0  0  0  0
   -9.7200   -0.5449    4.8492 C   0  0  0  0  0  0
   -9.7145   -1.9740    5.5611 C   0  0  0  0  0  0
  -11.0068   -2.8468    5.8120 C   0  0  0  0  0  0
  -11.9581   -2.4851    6.9832 C   0  0  0  0  0  0
  -12.8342   -3.6593    7.5688 C   0  0  0  0  0  0
  -12.2349   -4.4289    8.7525 C   0  0  0  0  0  0
  -12.9684   -4.3632   10.1221 C   0  0  0  0  0  0
  -13.1574   -3.0016   10.8540 C   0  0  0  0  0  0
  -14.4566   -2.2580   10.5770 C   0  0  0  0  0  0
  -12.9334   -3.1492   12.3047 N   0  0  0  0  0  0
  -14.3133   -4.8285    9.8416 O   0  0  0  0  0  0
  -14.0935   -3.1114    7.9734 O   0  0  0  0  0  0
   -8.6590    1.1804    3.5857 O   0  0  0  0  0  0
   -2.8690    1.7802    4.6878 O   0  0  0  0  0  0
   -1.9581    0.7866    4.8565 C   0  0  0  0  0  0
   -2.2031   -0.3843    5.0763 O   0  0  0  0  0  0
   -0.5853    1.3552    4.6248 C   0  0  0  0  0  0
    0.0264    0.8962    3.2915 C   0  0  0  0  0  0
   -0.9316    1.0851    2.1083 C   0  0  0  0  0  0
   -0.3574    0.4931    0.8422 C   0  0  0  0  0  0
    0.1802   -0.6079    0.7912 O   0  0  0  0  0  0
   -0.4929    1.2888   -0.2290 O   0  0  0  0  0  0
    1.2858    1.7500    3.0892 C   0  0  0  0  0  0
    1.6026    2.6598    3.8404 O   0  0  0  0  0  0
    1.9879    1.4478    1.9884 O   0  0  0  0  0  0
   -2.5798    3.7548    6.3227 O   0  0  0  0  0  0
   -1.6590    3.5821    7.3427 C   0  0  0  0  0  0
   -1.9066    3.0646    8.4240 O   0  0  0  0  0  0
   -0.2693    4.1157    6.9712 C   0  0  0  0  0  0
    0.4408    4.9745    8.0633 C   0  0  0  0  0  0
   -0.1143    6.3813    8.3514 C   0  0  0  0  0  0
    0.0680    7.3304    7.2023 C   0  0  0  0  0  0
    1.1399    7.6700    6.7204 O   0  0  0  0  0  0
   -1.0998    7.7789    6.7169 O   0  0  0  0  0  0
    0.6144    4.2706    9.4149 C   0  0  0  0  0  0
   -0.0978    4.4965   10.3732 O   0  0  0  0  0  0
    1.5484    3.2970    9.4453 O   0  0  0  0  0  0
  -13.7870   -3.4951   12.7410 H   0  0  0  0  0  0
  -12.7882   -2.2213   12.7089 H   0  0  0  0  0  0
  -14.1952   -5.7501    9.5287 H   0  0  0  0  0  0
  -14.5782   -2.8391    7.1725 H   0  0  0  0  0  0
   -8.0021    1.4121    2.9080 H   0  0  0  0  0  0
   -0.9905    2.1146   -0.0743 H   0  0  0  0  0  0
    2.7742    2.0273    1.8316 H   0  0  0  0  0  0
   -0.8820    8.4243    6.0117 H   0  0  0  0  0  0
    1.9960    3.1178    8.5887 H   0  0  0  0  0  0
  1  2  1  0  0  0
  2  3  1  0  0  0
  3  4  1  0  0  0
  4  5  1  0  0  0
  5  6  1  0  0  0
  5  7  1  0  0  0
  7  8  1  0  0  0
  7 39  1  0  0  0
  8  9  1  0  0  0
  8 27  1  0  0  0
  9 10  1  0  0  0
 10 11  1  0  0  0
 10 12  1  0  0  0
 12 13  1  0  0  0
 13 14  1  0  0  0
 13 26  1  0  0  0
 14 15  1  0  0  0
 15 16  1  0  0  0
 16 17  1  0  0  0
 17 18  1  0  0  0
 18 19  1  0  0  0
 18 25  1  0  0  0
 19 20  1  0  0  0
 20 21  1  0  0  0
 20 24  1  0  0  0
 21 22  1  0  0  0
 21 23  1  0  0  0
 23 51  1  0  0  0
 23 52  1  0  0  0
 24 53  1  0  0  0
 25 54  1  0  0  0
 26 55  1  0  0  0
 27 28  1  0  0  0
 28 29  2  0  0  0
 28 30  1  0  0  0
 30 31  1  0  0  0
 31 32  1  0  0  0
 31 36  1  0  0  0
 32 33  1  0  0  0
 33 34  2  0  0  0
 33 35  1  0  0  0
 35 56  1  0  0  0
 36 37  2  0  0  0
 36 38  1  0  0  0
 38 57  1  0  0  0
 39 40  1  0  0  0
 40 41  2  0  0  0
 40 42  1  0  0  0
 42 43  1  0  0  0
 43 44  1  0  0  0
 43 48  1  0  0  0
 44 45  1  0  0  0
 45 46  2  0  0  0
 45 47  1  0  0  0
 47 58  1  0  0  0
 48 49  2  0  0  0
 48 50  1  0  0  0
 50 59  1  0  0  0
M  END
>  <AUTHOR>
    GENERATED BY OPEN BABEL 2.4.1

>  <CHROM.1>
-70.18744152,-88.65501401,-35.09351558,148.85339665,-3.77945965,125.21172316
-111.66420637,115.42771430,75.58542379,-95.64769657,-65.25690506,-46.32998873
51.16980063,-136.08972536,-77.84864762,-154.78822691,91.99071403,116.10932542
68.37964653,-61.28066394,92.73093759,61.87082718,-82.80282785,41.25921645
-106.99500579,49.64789026,-174.05480749,-4.89997717,44.74900898,-3.81218729
177.01934552,-8.86807780,134.53648055,-71.06607380,-67.10869582,-102.22700697
-60.88315046,176.85743212,-2.22085918,-4.69927900,1.52522224,6.32441967,0.12145413
0.52694799,0.94377745

>  <COMPND>
    UNNAMED

>  <MASTER>
        0    0    0    0    0    0    0    0  109    0  109    0

>  <Name>
FB1.pdb

>  <RI>
0

>  <Rbt.Current_Directory>
/home/fc/tossine/F10/p3/1_clust04

>  <Rbt.Executable>
rbdock/0.1.0

>  <Rbt.Library>
librxdock.so/0.1.0

>  <Rbt.Parameter_File>
/cluster/rxdock/data/scripts/dock.prm

>  <Rbt.Receptor>
rx_2.prm

>  <SCORE>
31.3845

>  <SCORE.INTER>
1.05758

>  <SCORE.INTER.CONST>
1

>  <SCORE.INTER.POLAR>
-2.58671

>  <SCORE.INTER.REPUL>
0.38297

>  <SCORE.INTER.ROT>
32

>  <SCORE.INTER.VDW>
-29.4625

>  <SCORE.INTER.norm>
0.0211515

>  <SCORE.INTRA>
28.2153

>  <SCORE.INTRA.DIHEDRAL>
38.4256

>  <SCORE.INTRA.DIHEDRAL.0>
47.3121

>  <SCORE.INTRA.POLAR>
1.47808

>  <SCORE.INTRA.POLAR.0>
-1.47808

>  <SCORE.INTRA.REPUL>
0

>  <SCORE.INTRA.REPUL.0>
0

>  <SCORE.INTRA.VDW>
3.97707

>  <SCORE.INTRA.VDW.0>
-2.78316

>  <SCORE.INTRA.norm>
0.564306

>  <SCORE.RESTR>
2.11162

>  <SCORE.RESTR.CAVITY>
2.11162

>  <SCORE.RESTR.norm>
0.0422325

>  <SCORE.SYSTEM>
0

>  <SCORE.SYSTEM.CONST>
0

>  <SCORE.SYSTEM.DIHEDRAL>
0

>  <SCORE.SYSTEM.norm>
0

>  <SCORE.heavy>
50

>  <SCORE.norm>
0.62769

$$$$
