FB1.pdb
  RxDock  10092021023D
librxdock.so/0.1.0
 59 58  0  0  0  0  0  0  0  0999 V2000
    1.1014   -7.5680    2.2341 C   0  0  0  0  0  0
    1.0079   -6.0597    2.0161 C   0  0  0  0  0  0
    0.1014   -5.7118    0.8238 C   0  0  0  0  0  0
   -0.1289   -4.1902    0.6464 C   0  0  0  0  0  0
   -0.8233   -3.4802    1.8605 C   0  0  0  0  0  0
   -1.2283   -2.0539    1.4220 C   0  0  0  0  0  0
   -2.0733   -4.2756    2.4288 C   0  0  0  0  0  0
   -1.8362   -5.1539    3.7473 C   0  0  0  0  0  0
   -1.4162   -4.5766    5.1681 C   0  0  0  0  0  0
   -0.7177   -3.0825    5.1373 C   0  0  0  0  0  0
    0.6127   -3.1842    4.3933 C   0  0  0  0  0  0
   -1.5951   -1.9090    4.5064 C   0  0  0  0  0  0
   -1.1939   -0.3425    4.5671 C   0  0  0  0  0  0
   -2.0214    0.7659    3.8303 C   0  0  0  0  0  0
   -1.3950    2.2302    3.7187 C   0  0  0  0  0  0
   -0.8791    3.0724    4.9512 C   0  0  0  0  0  0
    0.6431    3.3156    5.1277 C   0  0  0  0  0  0
    1.0846    4.7842    5.4984 C   0  0  0  0  0  0
    0.6528    5.8893    4.5263 C   0  0  0  0  0  0
    1.2679    7.3068    4.7011 C   0  0  0  0  0  0
    0.6034    8.5459    4.0313 C   0  0  0  0  0  0
    0.4530    8.4983    2.5172 C   0  0  0  0  0  0
   -0.6825    8.8670    4.6791 N   0  0  0  0  0  0
    1.1948    7.5661    6.1263 O   0  0  0  0  0  0
    0.5604    5.0890    6.7953 O   0  0  0  0  0  0
   -1.2621    0.0026    5.9610 O   0  0  0  0  0  0
   -3.0843   -5.8550    3.9984 O   0  0  0  0  0  0
   -3.0102   -7.0124    4.7057 C   0  0  0  0  0  0
   -3.3196   -7.1636    5.8723 O   0  0  0  0  0  0
   -2.5746   -8.1113    3.7761 C   0  0  0  0  0  0
   -2.9244   -7.8164    2.3087 C   0  0  0  0  0  0
   -2.2846   -8.8178    1.3385 C   0  0  0  0  0  0
   -2.4266   -8.3562   -0.0933 C   0  0  0  0  0  0
   -2.2137   -7.2053   -0.4592 O   0  0  0  0  0  0
   -2.8081   -9.3297   -0.9333 O   0  0  0  0  0  0
   -4.4542   -7.8983    2.2151 C   0  0  0  0  0  0
   -5.0496   -8.0734    1.1628 O   0  0  0  0  0  0
   -5.0904   -7.7120    3.3798 O   0  0  0  0  0  0
   -3.2572   -3.3914    2.5573 O   0  0  0  0  0  0
   -4.5088   -3.9240    2.2969 C   0  0  0  0  0  0
   -4.8233   -5.0908    2.4915 O   0  0  0  0  0  0
   -5.4804   -2.8810    1.7290 C   0  0  0  0  0  0
   -6.6798   -2.4996    2.6512 C   0  0  0  0  0  0
   -6.4067   -1.5647    3.8436 C   0  0  0  0  0  0
   -7.5366   -1.5291    4.8319 C   0  0  0  0  0  0
   -8.6483   -2.0106    4.6623 O   0  0  0  0  0  0
   -7.1995   -0.9120    5.9746 O   0  0  0  0  0  0
   -7.9022   -1.9435    1.9104 C   0  0  0  0  0  0
   -8.3898   -0.8592    2.1620 O   0  0  0  0  0  0
   -8.3445   -2.6924    0.8785 O   0  0  0  0  0  0
   -1.3472    8.1176    4.4918 H   0  0  0  0  0  0
   -1.0804    9.6918    4.2243 H   0  0  0  0  0  0
    0.2442    7.7345    6.2979 H   0  0  0  0  0  0
    0.7765    4.3492    7.3923 H   0  0  0  0  0  0
   -2.1892   -0.0688    6.2434 H   0  0  0  0  0  0
   -2.8940   -9.0630   -1.8687 H   0  0  0  0  0  0
   -6.0713   -7.8326    3.3351 H   0  0  0  0  0  0
   -7.9367   -1.0620    6.6034 H   0  0  0  0  0  0
   -7.6748   -3.2883    0.4751 H   0  0  0  0  0  0
  1  2  1  0  0  0
  2  3  1  0  0  0
  3  4  1  0  0  0
  4  5  1  0  0  0
  5  6  1  0  0  0
  5  7  1  0  0  0
  7  8  1  0  0  0
  7 39  1  0  0  0
  8  9  1  0  0  0
  8 27  1  0  0  0
  9 10  1  0  0  0
 10 11  1  0  0  0
 10 12  1  0  0  0
 12 13  1  0  0  0
 13 14  1  0  0  0
 13 26  1  0  0  0
 14 15  1  0  0  0
 15 16  1  0  0  0
 16 17  1  0  0  0
 17 18  1  0  0  0
 18 19  1  0  0  0
 18 25  1  0  0  0
 19 20  1  0  0  0
 20 21  1  0  0  0
 20 24  1  0  0  0
 21 22  1  0  0  0
 21 23  1  0  0  0
 23 51  1  0  0  0
 23 52  1  0  0  0
 24 53  1  0  0  0
 25 54  1  0  0  0
 26 55  1  0  0  0
 27 28  1  0  0  0
 28 29  2  0  0  0
 28 30  1  0  0  0
 30 31  1  0  0  0
 31 32  1  0  0  0
 31 36  1  0  0  0
 32 33  1  0  0  0
 33 34  2  0  0  0
 33 35  1  0  0  0
 35 56  1  0  0  0
 36 37  2  0  0  0
 36 38  1  0  0  0
 38 57  1  0  0  0
 39 40  1  0  0  0
 40 41  2  0  0  0
 40 42  1  0  0  0
 42 43  1  0  0  0
 43 44  1  0  0  0
 43 48  1  0  0  0
 44 45  1  0  0  0
 45 46  2  0  0  0
 45 47  1  0  0  0
 47 58  1  0  0  0
 48 49  2  0  0  0
 48 50  1  0  0  0
 50 59  1  0  0  0
M  END
>  <AUTHOR>
    GENERATED BY OPEN BABEL 2.4.1

>  <CHROM.1>
174.61541465,-60.86113743,-169.01451221,100.04439140,63.02734137,144.23629347
-20.59999209,155.25025295,-64.92356406,170.93961397,174.70229922,-168.49150490
-65.83179866,-53.87226755,109.78261951,135.04225224,-57.27937161,-169.28176210
48.67676789,-162.94731446,-58.28063156,-73.17420696,-67.03166124,104.14633208
-24.88522922,170.68026831,-169.25400399,-159.73187751,44.82941509,-179.06219552
-175.55892224,30.98290475,-112.91935890,76.16257999,-166.37145889,-123.64168856
-10.40331002,-171.11384020,-23.70233721,-2.56079481,-2.13501806,3.30903632
-1.82713670,0.01186379,0.21886375

>  <COMPND>
    UNNAMED

>  <MASTER>
        0    0    0    0    0    0    0    0  109    0  109    0

>  <Name>
FB1.pdb

>  <RI>
0

>  <Rbt.Current_Directory>
/home/fc/tossine/F10/p3/1_clust04

>  <Rbt.Executable>
rbdock/0.1.0

>  <Rbt.Library>
librxdock.so/0.1.0

>  <Rbt.Parameter_File>
/cluster/rxdock/data/scripts/dock.prm

>  <Rbt.Receptor>
rx_3.prm

>  <SCORE>
25.0153

>  <SCORE.INTER>
-0.503031

>  <SCORE.INTER.CONST>
1

>  <SCORE.INTER.POLAR>
-0.776696

>  <SCORE.INTER.REPUL>
0.328502

>  <SCORE.INTER.ROT>
32

>  <SCORE.INTER.VDW>
-36.9048

>  <SCORE.INTER.norm>
-0.0100606

>  <SCORE.INTRA>
24.5856

>  <SCORE.INTRA.DIHEDRAL>
34.0169

>  <SCORE.INTRA.DIHEDRAL.0>
47.3121

>  <SCORE.INTRA.POLAR>
1.24255

>  <SCORE.INTRA.POLAR.0>
-1.47808

>  <SCORE.INTRA.REPUL>
0.00167089

>  <SCORE.INTRA.REPUL.0>
0

>  <SCORE.INTRA.VDW>
3.3441

>  <SCORE.INTRA.VDW.0>
-2.78316

>  <SCORE.INTRA.norm>
0.491711

>  <SCORE.RESTR>
0.932766

>  <SCORE.RESTR.CAVITY>
0.932766

>  <SCORE.RESTR.norm>
0.0186553

>  <SCORE.SYSTEM>
0

>  <SCORE.SYSTEM.CONST>
0

>  <SCORE.SYSTEM.DIHEDRAL>
0

>  <SCORE.SYSTEM.norm>
0

>  <SCORE.heavy>
50

>  <SCORE.norm>
0.500306

$$$$
