FB1.pdb
  RxDock  10092021593D
librxdock.so/0.1.0
 59 58  0  0  0  0  0  0  0  0999 V2000
  -10.3571   -3.1142   -0.4950 C   0  0  0  0  0  0
   -8.9703   -2.5888   -0.1316 C   0  0  0  0  0  0
   -8.1845   -3.5982    0.7217 C   0  0  0  0  0  0
   -6.8472   -3.0373    1.2665 C   0  0  0  0  0  0
   -6.2500   -3.8202    2.4875 C   0  0  0  0  0  0
   -6.1031   -5.3063    2.0865 C   0  0  0  0  0  0
   -4.8691   -3.2322    3.0025 C   0  0  0  0  0  0
   -3.5342   -3.8775    2.3960 C   0  0  0  0  0  0
   -2.8240   -3.4153    1.0506 C   0  0  0  0  0  0
   -1.3871   -2.6303    1.2521 C   0  0  0  0  0  0
   -0.3763   -3.2070    0.2623 C   0  0  0  0  0  0
   -1.4278   -1.0419    1.1107 C   0  0  0  0  0  0
   -0.4309   -0.0352    1.8926 C   0  0  0  0  0  0
    1.0870    0.0971    1.5256 C   0  0  0  0  0  0
    2.0983    0.5984    2.6548 C   0  0  0  0  0  0
    1.8884    0.3652    4.2028 C   0  0  0  0  0  0
    3.0519    0.6619    5.1854 C   0  0  0  0  0  0
    4.0766    1.7792    4.7487 C   0  0  0  0  0  0
    5.1600    1.3544    3.7496 C   0  0  0  0  0  0
    5.9517    0.0462    4.0323 C   0  0  0  0  0  0
    7.0412   -0.4504    3.0364 C   0  0  0  0  0  0
    8.0385    0.5912    2.5486 C   0  0  0  0  0  0
    7.7366   -1.6381    3.5676 N   0  0  0  0  0  0
    6.6641    0.3075    5.2685 O   0  0  0  0  0  0
    3.3331    2.8626    4.1801 O   0  0  0  0  0  0
   -0.9844    1.2740    1.6776 O   0  0  0  0  0  0
   -2.5093   -3.7240    3.4150 O   0  0  0  0  0  0
   -1.4598   -4.5852    3.3690 C   0  0  0  0  0  0
   -0.3025   -4.3240    3.6369 O   0  0  0  0  0  0
   -1.9816   -5.9536    3.0273 C   0  0  0  0  0  0
   -1.5747   -7.0157    4.0612 C   0  0  0  0  0  0
   -2.7786   -7.7844    4.6205 C   0  0  0  0  0  0
   -3.7925   -6.8426    5.2275 C   0  0  0  0  0  0
   -3.6924   -6.3740    6.3563 O   0  0  0  0  0  0
   -4.8187   -6.5634    4.4103 O   0  0  0  0  0  0
   -0.6313   -7.9789    3.3275 C   0  0  0  0  0  0
    0.3744   -7.6095    2.7404 O   0  0  0  0  0  0
   -1.0279   -9.2589    3.3409 O   0  0  0  0  0  0
   -4.8546   -1.7513    2.9227 O   0  0  0  0  0  0
   -5.5690   -1.0333    3.8672 C   0  0  0  0  0  0
   -6.5902   -1.4273    4.4154 O   0  0  0  0  0  0
   -4.9369    0.3332    4.1627 C   0  0  0  0  0  0
   -5.8411    1.3458    4.9318 C   0  0  0  0  0  0
   -6.0560    1.1229    6.4400 C   0  0  0  0  0  0
   -7.3780    0.4851    6.7561 C   0  0  0  0  0  0
   -8.1437   -0.0116    5.9414 O   0  0  0  0  0  0
   -7.6496    0.4912    8.0701 O   0  0  0  0  0  0
   -5.4544    2.8178    4.7421 C   0  0  0  0  0  0
   -5.0204    3.5079    5.6433 O   0  0  0  0  0  0
   -5.5256    3.2768    3.4750 O   0  0  0  0  0  0
    8.3499   -1.3530    4.3299 H   0  0  0  0  0  0
    8.3641   -1.9993    2.8457 H   0  0  0  0  0  0
    7.2758    1.0420    5.0502 H   0  0  0  0  0  0
    3.9566    3.4445    3.7077 H   0  0  0  0  0  0
   -0.8135    1.8069    2.4722 H   0  0  0  0  0  0
   -5.5370   -6.0355    4.8090 H   0  0  0  0  0  0
   -0.4270   -9.8795    2.8587 H   0  0  0  0  0  0
   -6.8969    0.9389    8.5109 H   0  0  0  0  0  0
   -5.5350    4.2554    3.3831 H   0  0  0  0  0  0
  1  2  1  0  0  0
  2  3  1  0  0  0
  3  4  1  0  0  0
  4  5  1  0  0  0
  5  6  1  0  0  0
  5  7  1  0  0  0
  7  8  1  0  0  0
  7 39  1  0  0  0
  8  9  1  0  0  0
  8 27  1  0  0  0
  9 10  1  0  0  0
 10 11  1  0  0  0
 10 12  1  0  0  0
 12 13  1  0  0  0
 13 14  1  0  0  0
 13 26  1  0  0  0
 14 15  1  0  0  0
 15 16  1  0  0  0
 16 17  1  0  0  0
 17 18  1  0  0  0
 18 19  1  0  0  0
 18 25  1  0  0  0
 19 20  1  0  0  0
 20 21  1  0  0  0
 20 24  1  0  0  0
 21 22  1  0  0  0
 21 23  1  0  0  0
 23 51  1  0  0  0
 23 52  1  0  0  0
 24 53  1  0  0  0
 25 54  1  0  0  0
 26 55  1  0  0  0
 27 28  1  0  0  0
 28 29  2  0  0  0
 28 30  1  0  0  0
 30 31  1  0  0  0
 31 32  1  0  0  0
 31 36  1  0  0  0
 32 33  1  0  0  0
 33 34  2  0  0  0
 33 35  1  0  0  0
 35 56  1  0  0  0
 36 37  2  0  0  0
 36 38  1  0  0  0
 38 57  1  0  0  0
 39 40  1  0  0  0
 40 41  2  0  0  0
 40 42  1  0  0  0
 42 43  1  0  0  0
 43 44  1  0  0  0
 43 48  1  0  0  0
 44 45  1  0  0  0
 45 46  2  0  0  0
 45 47  1  0  0  0
 47 58  1  0  0  0
 48 49  2  0  0  0
 48 50  1  0  0  0
 50 59  1  0  0  0
M  END
>  <AUTHOR>
    GENERATED BY OPEN BABEL 2.4.1

>  <CHROM.1>
-172.56560825,160.95741757,55.34139428,-93.00208090,86.94302492,75.36416273
109.22232675,156.59441563,134.26045533,150.13371614,71.60548814,-154.89988585
146.34094043,28.82594564,168.81278310,28.72543101,-80.38707553,-48.26477667
-165.74491726,178.64698541,46.95029551,-63.55998313,-72.64820230,143.77118824
-124.67882583,125.74275295,-56.40445679,54.80849755,-81.15417238,173.67752856
179.26724490,-30.32833417,165.45180524,75.30526901,-100.98313003,-113.23307034
10.96495860,0.88870194,163.08158647,-2.04811464,-1.97502569,3.46321484,-2.92823975
0.01828589,0.16805472

>  <COMPND>
    UNNAMED

>  <MASTER>
        0    0    0    0    0    0    0    0  109    0  109    0

>  <Name>
FB1.pdb

>  <RI>
0

>  <Rbt.Current_Directory>
/home/fc/tossine/F10/p3/1_clust04

>  <Rbt.Executable>
rbdock/0.1.0

>  <Rbt.Library>
librxdock.so/0.1.0

>  <Rbt.Parameter_File>
/cluster/rxdock/data/scripts/dock.prm

>  <Rbt.Receptor>
rx_4.prm

>  <SCORE>
44.306

>  <SCORE.INTER>
12.1364

>  <SCORE.INTER.CONST>
1

>  <SCORE.INTER.POLAR>
-1.68002

>  <SCORE.INTER.REPUL>
0.521395

>  <SCORE.INTER.ROT>
32

>  <SCORE.INTER.VDW>
-22.1586

>  <SCORE.INTER.norm>
0.242727

>  <SCORE.INTRA>
31.177

>  <SCORE.INTRA.DIHEDRAL>
36.1336

>  <SCORE.INTRA.DIHEDRAL.0>
47.3121

>  <SCORE.INTRA.POLAR>
1.47808

>  <SCORE.INTRA.POLAR.0>
-1.47808

>  <SCORE.INTRA.REPUL>
0

>  <SCORE.INTRA.REPUL.0>
0

>  <SCORE.INTRA.VDW>
8.08472

>  <SCORE.INTRA.VDW.0>
-2.78316

>  <SCORE.INTRA.norm>
0.62354

>  <SCORE.RESTR>
0.992634

>  <SCORE.RESTR.CAVITY>
0.992634

>  <SCORE.RESTR.norm>
0.0198527

>  <SCORE.SYSTEM>
0

>  <SCORE.SYSTEM.CONST>
0

>  <SCORE.SYSTEM.DIHEDRAL>
0

>  <SCORE.SYSTEM.norm>
0

>  <SCORE.heavy>
50

>  <SCORE.norm>
0.88612

$$$$
