FB1.pdb
  RxDock  10092019083D
librxdock.so/0.1.0
 59 58  0  0  0  0  0  0  0  0999 V2000
   -4.6684    5.3553    3.0305 C   0  0  0  0  0  0
   -5.0491    3.8988    3.2856 C   0  0  0  0  0  0
   -4.7206    3.4680    4.7246 C   0  0  0  0  0  0
   -5.1684    2.0220    5.0538 C   0  0  0  0  0  0
   -4.2424    0.8951    4.4768 C   0  0  0  0  0  0
   -3.3133    0.4024    5.6101 C   0  0  0  0  0  0
   -5.0429   -0.3144    3.8331 C   0  0  0  0  0  0
   -4.1939   -1.6085    3.4199 C   0  0  0  0  0  0
   -4.6283   -2.6767    2.3252 C   0  0  0  0  0  0
   -5.3180   -4.0506    2.9236 C   0  0  0  0  0  0
   -6.4763   -4.4493    2.0106 C   0  0  0  0  0  0
   -4.3426   -5.2966    3.1254 C   0  0  0  0  0  0
   -4.8450   -6.7970    3.4644 C   0  0  0  0  0  0
   -4.0858   -8.0716    2.9591 C   0  0  0  0  0  0
   -3.9731   -8.3115    1.3847 C   0  0  0  0  0  0
   -2.8403   -9.1695    0.6954 C   0  0  0  0  0  0
   -2.8652  -10.7154    0.8267 C   0  0  0  0  0  0
   -1.5135  -11.4710    0.5248 C   0  0  0  0  0  0
   -1.6380  -12.9301    0.0687 C   0  0  0  0  0  0
   -1.8069  -14.0302    1.1547 C   0  0  0  0  0  0
   -1.0917  -15.4056    1.0058 C   0  0  0  0  0  0
   -1.1926  -16.3537    2.1925 C   0  0  0  0  0  0
   -1.5000  -16.0778   -0.2424 N   0  0  0  0  0  0
   -1.2498  -13.4459    2.3597 O   0  0  0  0  0  0
   -0.8132  -10.7369   -0.4854 O   0  0  0  0  0  0
   -4.8096   -6.8833    4.8990 O   0  0  0  0  0  0
   -2.9073   -1.1186    2.9539 O   0  0  0  0  0  0
   -1.8147   -1.4639    3.6834 C   0  0  0  0  0  0
   -1.8163   -2.0639    4.7414 O   0  0  0  0  0  0
   -0.5844   -1.0692    2.9140 C   0  0  0  0  0  0
   -0.0364    0.3022    3.3399 C   0  0  0  0  0  0
    0.1851    0.4031    4.8545 C   0  0  0  0  0  0
    0.1591    1.8422    5.3146 C   0  0  0  0  0  0
   -0.4317    2.2223    6.3197 O   0  0  0  0  0  0
    0.8486    2.6708    4.5167 O   0  0  0  0  0  0
    1.2986    0.4709    2.6015 C   0  0  0  0  0  0
    1.3847    0.5303    1.3843 O   0  0  0  0  0  0
    2.3735    0.4985    3.4014 O   0  0  0  0  0  0
   -6.2287   -0.6674    4.6511 O   0  0  0  0  0  0
   -7.4567   -0.7745    4.0198 C   0  0  0  0  0  0
   -7.8913    0.0258    3.2019 O   0  0  0  0  0  0
   -8.2317   -2.0240    4.4585 C   0  0  0  0  0  0
   -9.5876   -1.7601    5.1840 C   0  0  0  0  0  0
   -9.7454   -2.2671    6.6292 C   0  0  0  0  0  0
  -10.6993   -3.4208    6.7452 C   0  0  0  0  0  0
  -11.1779   -3.8490    7.7864 O   0  0  0  0  0  0
  -11.0089   -3.9526    5.5528 O   0  0  0  0  0  0
  -10.0469   -0.2969    5.1647 C   0  0  0  0  0  0
   -9.3396    0.6220    5.5284 O   0  0  0  0  0  0
  -11.2590   -0.0773    4.6137 O   0  0  0  0  0  0
   -1.1982  -17.0507   -0.2119 H   0  0  0  0  0  0
   -0.9807  -15.6651   -1.0205 H   0  0  0  0  0  0
   -0.3135  -13.2616    2.1344 H   0  0  0  0  0  0
   -0.1620  -10.1598   -0.0457 H   0  0  0  0  0  0
   -3.9184   -6.6312    5.1935 H   0  0  0  0  0  0
    0.8818    3.6012    4.8113 H   0  0  0  0  0  0
    3.2099    0.7804    2.9547 H   0  0  0  0  0  0
  -10.2076   -3.8743    4.9933 H   0  0  0  0  0  0
  -11.5503    0.8614    4.6006 H   0  0  0  0  0  0
  1  2  1  0  0  0
  2  3  1  0  0  0
  3  4  1  0  0  0
  4  5  1  0  0  0
  5  6  1  0  0  0
  5  7  1  0  0  0
  7  8  1  0  0  0
  7 39  1  0  0  0
  8  9  1  0  0  0
  8 27  1  0  0  0
  9 10  1  0  0  0
 10 11  1  0  0  0
 10 12  1  0  0  0
 12 13  1  0  0  0
 13 14  1  0  0  0
 13 26  1  0  0  0
 14 15  1  0  0  0
 15 16  1  0  0  0
 16 17  1  0  0  0
 17 18  1  0  0  0
 18 19  1  0  0  0
 18 25  1  0  0  0
 19 20  1  0  0  0
 20 21  1  0  0  0
 20 24  1  0  0  0
 21 22  1  0  0  0
 21 23  1  0  0  0
 23 51  1  0  0  0
 23 52  1  0  0  0
 24 53  1  0  0  0
 25 54  1  0  0  0
 26 55  1  0  0  0
 27 28  1  0  0  0
 28 29  2  0  0  0
 28 30  1  0  0  0
 30 31  1  0  0  0
 31 32  1  0  0  0
 31 36  1  0  0  0
 32 33  1  0  0  0
 33 34  2  0  0  0
 33 35  1  0  0  0
 35 56  1  0  0  0
 36 37  2  0  0  0
 36 38  1  0  0  0
 38 57  1  0  0  0
 39 40  1  0  0  0
 40 41  2  0  0  0
 40 42  1  0  0  0
 42 43  1  0  0  0
 43 44  1  0  0  0
 43 48  1  0  0  0
 44 45  1  0  0  0
 45 46  2  0  0  0
 45 47  1  0  0  0
 47 58  1  0  0  0
 48 49  2  0  0  0
 48 50  1  0  0  0
 50 59  1  0  0  0
M  END
>  <AUTHOR>
    GENERATED BY OPEN BABEL 2.4.1

>  <CHROM.1>
176.52467543,77.14425327,99.83406148,-170.99346998,-156.47435447,129.28708555
-98.82372049,115.34282037,140.14658118,-169.54600532,147.58710500,-62.47197186
-53.91169595,155.65710476,72.84940801,-161.43558942,-154.83931487,-82.87822120
96.74998262,-141.12480038,173.34303511,-60.50923827,-166.81521875,-5.58169383
95.71638618,52.65571512,-156.45274261,63.64600835,136.17264118,-177.42934026
-168.70300379,-45.05761013,117.16114856,-118.90273572,-109.74223062,-52.52118930
-166.28513229,33.93474828,-179.86758961,-4.09048060,-3.57772416,3.48549810
-1.78279175,-0.23624851,-2.94959296

>  <COMPND>
    UNNAMED

>  <MASTER>
        0    0    0    0    0    0    0    0  109    0  109    0

>  <Name>
FB1.pdb

>  <RI>
0

>  <Rbt.Current_Directory>
/home/fc/tossine/F10/p3/1_clust04

>  <Rbt.Executable>
rbdock/0.1.0

>  <Rbt.Library>
librxdock.so/0.1.0

>  <Rbt.Parameter_File>
/cluster/rxdock/data/scripts/dock.prm

>  <Rbt.Receptor>
rx_1.prm

>  <SCORE>
71.188

>  <SCORE.INTER>
34.4257

>  <SCORE.INTER.CONST>
1

>  <SCORE.INTER.POLAR>
-1.54294

>  <SCORE.INTER.REPUL>
0.867927

>  <SCORE.INTER.ROT>
32

>  <SCORE.INTER.VDW>
-2.068

>  <SCORE.INTER.norm>
0.688513

>  <SCORE.INTRA>
33.716

>  <SCORE.INTRA.DIHEDRAL>
52.6673

>  <SCORE.INTRA.DIHEDRAL.0>
47.3121

>  <SCORE.INTRA.POLAR>
1.47808

>  <SCORE.INTRA.POLAR.0>
-1.47808

>  <SCORE.INTRA.REPUL>
0

>  <SCORE.INTRA.REPUL.0>
0

>  <SCORE.INTRA.VDW>
2.35688

>  <SCORE.INTRA.VDW.0>
-2.78316

>  <SCORE.INTRA.norm>
0.67432

>  <SCORE.RESTR>
3.04638

>  <SCORE.RESTR.CAVITY>
3.04638

>  <SCORE.RESTR.norm>
0.0609276

>  <SCORE.SYSTEM>
0

>  <SCORE.SYSTEM.CONST>
0

>  <SCORE.SYSTEM.DIHEDRAL>
0

>  <SCORE.SYSTEM.norm>
0

>  <SCORE.heavy>
50

>  <SCORE.norm>
1.42376

$$$$
