FB1.pdb
  RxDock  10092018123D
librxdock.so/0.1.0
 59 58  0  0  0  0  0  0  0  0999 V2000
   -6.5547    7.3139    1.7071 C   0  0  0  0  0  0
   -5.2732    6.4903    1.6025 C   0  0  0  0  0  0
   -5.5713    4.9877    1.4698 C   0  0  0  0  0  0
   -5.5277    4.2279    2.8190 C   0  0  0  0  0  0
   -4.1371    4.2473    3.5445 C   0  0  0  0  0  0
   -4.0100    5.5819    4.3148 C   0  0  0  0  0  0
   -3.9102    3.0101    4.5118 C   0  0  0  0  0  0
   -2.8566    3.2037    5.7029 C   0  0  0  0  0  0
   -2.2049    2.0255    6.5486 C   0  0  0  0  0  0
   -1.0265    1.1739    5.7692 C   0  0  0  0  0  0
   -1.4926    0.8967    4.3408 C   0  0  0  0  0  0
    0.4213    1.8429    5.7390 C   0  0  0  0  0  0
    1.7008    1.2041    4.9817 C   0  0  0  0  0  0
    3.1626    1.3600    5.5247 C   0  0  0  0  0  0
    3.3676    1.6009    7.0897 C   0  0  0  0  0  0
    4.4490    0.8580    7.9690 C   0  0  0  0  0  0
    4.7918    1.4025    9.3808 C   0  0  0  0  0  0
    3.6109    1.4459   10.4262 C   0  0  0  0  0  0
    3.9094    2.1423   11.7598 C   0  0  0  0  0  0
    3.8969    3.6968   11.7989 C   0  0  0  0  0  0
    2.6393    4.4901   11.3359 C   0  0  0  0  0  0
    1.4031    4.3744   12.2167 C   0  0  0  0  0  0
    2.9743    5.9039   11.0804 N   0  0  0  0  0  0
    4.0560    4.0305   13.2015 O   0  0  0  0  0  0
    2.4986    2.1030    9.8090 O   0  0  0  0  0  0
    1.4540   -0.2121    4.9699 O   0  0  0  0  0  0
   -1.7207    3.9067    5.1302 O   0  0  0  0  0  0
   -1.1660    4.8954    5.8786 C   0  0  0  0  0  0
   -1.5143    5.2355    6.9932 O   0  0  0  0  0  0
    0.0254    5.4400    5.1401 C   0  0  0  0  0  0
    0.0752    6.9762    5.1511 C   0  0  0  0  0  0
    1.3982    7.5183    5.7071 C   0  0  0  0  0  0
    1.3941    7.5212    7.2182 C   0  0  0  0  0  0
    1.3773    6.5010    7.8984 O   0  0  0  0  0  0
    1.4125    8.7522    7.7502 O   0  0  0  0  0  0
   -0.0997    7.4144    3.6905 C   0  0  0  0  0  0
   -0.9464    8.2189    3.3324 O   0  0  0  0  0  0
    0.7234    6.8032    2.8274 O   0  0  0  0  0  0
   -5.2018    2.4660    4.9972 O   0  0  0  0  0  0
   -5.5151    1.1496    4.7021 C   0  0  0  0  0  0
   -4.7711    0.3702    4.1212 O   0  0  0  0  0  0
   -6.9175    0.7602    5.1878 C   0  0  0  0  0  0
   -7.4771   -0.5862    4.6324 C   0  0  0  0  0  0
   -6.5114   -1.5108    3.8687 C   0  0  0  0  0  0
   -7.2106   -2.4095    2.8900 C   0  0  0  0  0  0
   -7.3856   -3.6127    3.0252 O   0  0  0  0  0  0
   -7.6630   -1.7450    1.8157 O   0  0  0  0  0  0
   -8.2060   -1.4499    5.6692 C   0  0  0  0  0  0
   -7.8794   -1.4940    6.8389 O   0  0  0  0  0  0
   -9.3105   -2.0834    5.2220 O   0  0  0  0  0  0
    2.2039    6.3445   10.5796 H   0  0  0  0  0  0
    3.7646    5.9404   10.4326 H   0  0  0  0  0  0
    3.3167    3.5687   13.6503 H   0  0  0  0  0  0
    2.8258    2.9129    9.3760 H   0  0  0  0  0  0
    2.1958   -0.6428    4.5130 H   0  0  0  0  0  0
    1.2396    9.4799    7.1225 H   0  0  0  0  0  0
    1.4216    6.2453    3.2517 H   0  0  0  0  0  0
   -7.4881   -0.7942    1.9788 H   0  0  0  0  0  0
   -9.5155   -1.9482    4.2702 H   0  0  0  0  0  0
  1  2  1  0  0  0
  2  3  1  0  0  0
  3  4  1  0  0  0
  4  5  1  0  0  0
  5  6  1  0  0  0
  5  7  1  0  0  0
  7  8  1  0  0  0
  7 39  1  0  0  0
  8  9  1  0  0  0
  8 27  1  0  0  0
  9 10  1  0  0  0
 10 11  1  0  0  0
 10 12  1  0  0  0
 12 13  1  0  0  0
 13 14  1  0  0  0
 13 26  1  0  0  0
 14 15  1  0  0  0
 15 16  1  0  0  0
 16 17  1  0  0  0
 17 18  1  0  0  0
 18 19  1  0  0  0
 18 25  1  0  0  0
 19 20  1  0  0  0
 20 21  1  0  0  0
 20 24  1  0  0  0
 21 22  1  0  0  0
 21 23  1  0  0  0
 23 51  1  0  0  0
 23 52  1  0  0  0
 24 53  1  0  0  0
 25 54  1  0  0  0
 26 55  1  0  0  0
 27 28  1  0  0  0
 28 29  2  0  0  0
 28 30  1  0  0  0
 30 31  1  0  0  0
 31 32  1  0  0  0
 31 36  1  0  0  0
 32 33  1  0  0  0
 33 34  2  0  0  0
 33 35  1  0  0  0
 35 56  1  0  0  0
 36 37  2  0  0  0
 36 38  1  0  0  0
 38 57  1  0  0  0
 39 40  1  0  0  0
 40 41  2  0  0  0
 40 42  1  0  0  0
 42 43  1  0  0  0
 43 44  1  0  0  0
 43 48  1  0  0  0
 44 45  1  0  0  0
 45 46  2  0  0  0
 45 47  1  0  0  0
 47 58  1  0  0  0
 48 49  2  0  0  0
 48 50  1  0  0  0
 50 59  1  0  0  0
M  END
>  <AUTHOR>
    GENERATED BY OPEN BABEL 2.4.1

>  <CHROM.1>
-95.44972429,-61.87146541,82.01479736,-156.15456948,-163.73913916,119.75626453
75.30132633,138.35185848,-43.54744062,-177.60036810,-146.25143504,25.44832270
179.36605683,135.36292225,165.34881366,61.03218164,-172.72154511,78.31340146
-46.78407335,55.88108428,68.62994345,-56.47042731,166.99080715,1.31864559
135.34984448,124.74151044,-81.35921341,126.88662345,66.94191275,12.17845874
-8.18274972,3.84615673,167.08363810,10.53941010,-154.26545644,-33.91789101
-106.97179788,-5.01156239,1.92160815,-1.62195415,2.97225042,5.99991811,3.02933908
0.60694370,2.71972891

>  <COMPND>
    UNNAMED

>  <MASTER>
        0    0    0    0    0    0    0    0  109    0  109    0

>  <Name>
FB1.pdb

>  <RI>
0

>  <Rbt.Current_Directory>
/home/fc/tossine/F10/p3/1_clust04

>  <Rbt.Executable>
rbdock/0.1.0

>  <Rbt.Library>
librxdock.so/0.1.0

>  <Rbt.Parameter_File>
/cluster/rxdock/data/scripts/dock.prm

>  <Rbt.Receptor>
rx_0.prm

>  <SCORE>
29.6509

>  <SCORE.INTER>
5.88889

>  <SCORE.INTER.CONST>
1

>  <SCORE.INTER.POLAR>
-1.40566

>  <SCORE.INTER.REPUL>
0.847201

>  <SCORE.INTER.ROT>
32

>  <SCORE.INTER.VDW>
-30.9679

>  <SCORE.INTER.norm>
0.117778

>  <SCORE.INTRA>
21.4973

>  <SCORE.INTRA.DIHEDRAL>
17.8025

>  <SCORE.INTRA.DIHEDRAL.0>
47.3121

>  <SCORE.INTRA.POLAR>
1.47808

>  <SCORE.INTRA.POLAR.0>
-1.47808

>  <SCORE.INTRA.REPUL>
0

>  <SCORE.INTRA.REPUL.0>
0

>  <SCORE.INTRA.VDW>
7.5706

>  <SCORE.INTRA.VDW.0>
-2.78316

>  <SCORE.INTRA.norm>
0.429946

>  <SCORE.RESTR>
2.26468

>  <SCORE.RESTR.CAVITY>
2.26468

>  <SCORE.RESTR.norm>
0.0452936

>  <SCORE.SYSTEM>
0

>  <SCORE.SYSTEM.CONST>
0

>  <SCORE.SYSTEM.DIHEDRAL>
0

>  <SCORE.SYSTEM.norm>
0

>  <SCORE.heavy>
50

>  <SCORE.norm>
0.593018

$$$$
