FB1.pdb
  RxDock  10092021583D
librxdock.so/0.1.0
 59 58  0  0  0  0  0  0  0  0999 V2000
   -6.3547    3.8333    1.6679 C   0  0  0  0  0  0
   -5.9467    5.2025    2.2068 C   0  0  0  0  0  0
   -4.9512    5.0820    3.3725 C   0  0  0  0  0  0
   -5.3246    3.9768    4.3917 C   0  0  0  0  0  0
   -4.3203    2.7739    4.4607 C   0  0  0  0  0  0
   -2.8819    3.3409    4.4456 C   0  0  0  0  0  0
   -4.5458    1.8320    5.7176 C   0  0  0  0  0  0
   -5.8173    0.8585    5.6761 C   0  0  0  0  0  0
   -6.5261    0.2242    6.9503 C   0  0  0  0  0  0
   -5.9219    0.7164    8.4042 C   0  0  0  0  0  0
   -6.0051    2.2404    8.4733 C   0  0  0  0  0  0
   -6.6049    0.0842    9.6998 C   0  0  0  0  0  0
   -7.1521   -1.4362    9.7870 C   0  0  0  0  0  0
   -7.4619   -2.1407   11.1522 C   0  0  0  0  0  0
   -8.9814   -2.4890   11.4970 C   0  0  0  0  0  0
  -10.0542   -2.9396   10.4291 C   0  0  0  0  0  0
  -11.3966   -3.5543   10.9062 C   0  0  0  0  0  0
  -12.7024   -3.0471   10.1802 C   0  0  0  0  0  0
  -12.6459   -2.9801    8.6489 C   0  0  0  0  0  0
  -11.4760   -3.7020    7.9219 C   0  0  0  0  0  0
  -11.7427   -4.5542    6.6460 C   0  0  0  0  0  0
  -13.1987   -4.8725    6.3360 C   0  0  0  0  0  0
  -11.0698   -3.9670    5.4717 N   0  0  0  0  0  0
  -10.6002   -2.6324    7.4828 O   0  0  0  0  0  0
  -13.7811   -3.9092   10.5582 O   0  0  0  0  0  0
   -8.4042   -1.4193    9.0808 O   0  0  0  0  0  0
   -6.8744    1.5990    5.0077 O   0  0  0  0  0  0
   -7.4966    0.9837    3.9687 C   0  0  0  0  0  0
   -8.0581    1.5323    3.0396 O   0  0  0  0  0  0
   -7.2897   -0.4999    4.1011 C   0  0  0  0  0  0
   -8.3819   -1.3140    3.3892 C   0  0  0  0  0  0
   -7.9689   -2.7724    3.1525 C   0  0  0  0  0  0
   -8.5629   -3.3058    1.8695 C   0  0  0  0  0  0
   -7.9960   -3.2469    0.7837 O   0  0  0  0  0  0
   -9.7758   -3.8551    2.0302 O   0  0  0  0  0  0
   -9.6131   -1.2587    4.3041 C   0  0  0  0  0  0
  -10.6650   -0.7315    3.9755 O   0  0  0  0  0  0
   -9.4249   -1.7949    5.5178 O   0  0  0  0  0  0
   -3.3024    1.1051    6.0719 O   0  0  0  0  0  0
   -2.6521    0.3894    5.0804 C   0  0  0  0  0  0
   -2.9802    0.3775    3.9011 O   0  0  0  0  0  0
   -1.4544   -0.4022    5.6218 C   0  0  0  0  0  0
   -0.7563   -1.3557    4.6030 C   0  0  0  0  0  0
   -1.6438   -2.1274    3.6094 C   0  0  0  0  0  0
   -1.0450   -3.4365    3.1823 C   0  0  0  0  0  0
   -1.4603   -4.1505    2.2799 O   0  0  0  0  0  0
    0.0441   -3.7598    3.8962 O   0  0  0  0  0  0
    0.3725   -0.7067    3.7924 C   0  0  0  0  0  0
    0.4017   -0.7144    2.5776 O   0  0  0  0  0  0
    1.2872   -0.0265    4.5147 O   0  0  0  0  0  0
  -10.2281   -3.4807    5.7776 H   0  0  0  0  0  0
  -11.6698   -3.2359    5.0831 H   0  0  0  0  0  0
  -10.7733   -1.8987    8.1098 H   0  0  0  0  0  0
  -13.7545   -4.0232   11.5261 H   0  0  0  0  0  0
   -9.0487   -0.9346    9.6231 H   0  0  0  0  0  0
   -9.7795   -4.8197    2.1821 H   0  0  0  0  0  0
  -10.0063   -1.4214    6.2257 H   0  0  0  0  0  0
    0.8207   -3.5418    3.3388 H   0  0  0  0  0  0
    1.6775   -0.5203    5.2697 H   0  0  0  0  0  0
  1  2  1  0  0  0
  2  3  1  0  0  0
  3  4  1  0  0  0
  4  5  1  0  0  0
  5  6  1  0  0  0
  5  7  1  0  0  0
  7  8  1  0  0  0
  7 39  1  0  0  0
  8  9  1  0  0  0
  8 27  1  0  0  0
  9 10  1  0  0  0
 10 11  1  0  0  0
 10 12  1  0  0  0
 12 13  1  0  0  0
 13 14  1  0  0  0
 13 26  1  0  0  0
 14 15  1  0  0  0
 15 16  1  0  0  0
 16 17  1  0  0  0
 17 18  1  0  0  0
 18 19  1  0  0  0
 18 25  1  0  0  0
 19 20  1  0  0  0
 20 21  1  0  0  0
 20 24  1  0  0  0
 21 22  1  0  0  0
 21 23  1  0  0  0
 23 51  1  0  0  0
 23 52  1  0  0  0
 24 53  1  0  0  0
 25 54  1  0  0  0
 26 55  1  0  0  0
 27 28  1  0  0  0
 28 29  2  0  0  0
 28 30  1  0  0  0
 30 31  1  0  0  0
 31 32  1  0  0  0
 31 36  1  0  0  0
 32 33  1  0  0  0
 33 34  2  0  0  0
 33 35  1  0  0  0
 35 56  1  0  0  0
 36 37  2  0  0  0
 36 38  1  0  0  0
 38 57  1  0  0  0
 39 40  1  0  0  0
 40 41  2  0  0  0
 40 42  1  0  0  0
 42 43  1  0  0  0
 43 44  1  0  0  0
 43 48  1  0  0  0
 44 45  1  0  0  0
 45 46  2  0  0  0
 45 47  1  0  0  0
 47 58  1  0  0  0
 48 49  2  0  0  0
 48 50  1  0  0  0
 50 59  1  0  0  0
M  END
>  <AUTHOR>
    GENERATED BY OPEN BABEL 2.4.1

>  <CHROM.1>
-43.34444509,114.11867517,43.47526300,74.08916544,-157.62761142,-52.53868115
3.98032476,128.42991933,56.65646723,35.64119890,163.35659759,112.47825464
-71.35234228,35.37344805,166.32646337,136.14557387,46.28062799,13.74259722
47.27222954,136.14797350,-12.33307474,25.80926956,29.90765003,-154.45846052
155.67824443,162.67315088,-146.85483285,116.36583995,91.17668670,-93.32365450
153.29235471,4.88537353,173.74699040,-38.42017437,-151.38760827,-125.32363187
-170.01211748,-101.33506893,51.38918028,-6.64383976,-0.88722625,5.62347846
0.39653202,-0.39195559,-1.66571267

>  <COMPND>
    UNNAMED

>  <MASTER>
        0    0    0    0    0    0    0    0  109    0  109    0

>  <Name>
FB1.pdb

>  <RI>
0

>  <Rbt.Current_Directory>
/home/fc/tossine/F10/p3/1_clust04

>  <Rbt.Executable>
rbdock/0.1.0

>  <Rbt.Library>
librxdock.so/0.1.0

>  <Rbt.Parameter_File>
/cluster/rxdock/data/scripts/dock.prm

>  <Rbt.Receptor>
rx_4.prm

>  <SCORE>
86.4241

>  <SCORE.INTER>
11.8678

>  <SCORE.INTER.CONST>
1

>  <SCORE.INTER.POLAR>
-2.27275

>  <SCORE.INTER.REPUL>
0.614777

>  <SCORE.INTER.ROT>
32

>  <SCORE.INTER.VDW>
-20.8787

>  <SCORE.INTER.norm>
0.237356

>  <SCORE.INTRA>
71.1619

>  <SCORE.INTRA.DIHEDRAL>
98.9411

>  <SCORE.INTRA.DIHEDRAL.0>
47.3121

>  <SCORE.INTRA.POLAR>
0.340272

>  <SCORE.INTRA.POLAR.0>
-1.47808

>  <SCORE.INTRA.REPUL>
0

>  <SCORE.INTRA.REPUL.0>
0

>  <SCORE.INTRA.VDW>
20.5344

>  <SCORE.INTRA.VDW.0>
-2.78316

>  <SCORE.INTRA.norm>
1.42324

>  <SCORE.RESTR>
3.39443

>  <SCORE.RESTR.CAVITY>
3.39443

>  <SCORE.RESTR.norm>
0.0678886

>  <SCORE.SYSTEM>
0

>  <SCORE.SYSTEM.CONST>
0

>  <SCORE.SYSTEM.DIHEDRAL>
0

>  <SCORE.SYSTEM.norm>
0

>  <SCORE.heavy>
50

>  <SCORE.norm>
1.72848

$$$$
