FB1.pdb
  RxDock  10092021063D
librxdock.so/0.1.0
 59 58  0  0  0  0  0  0  0  0999 V2000
    0.2101    7.5898    5.7541 C   0  0  0  0  0  0
   -1.0592    6.8262    6.1243 C   0  0  0  0  0  0
   -1.1982    5.5262    5.3149 C   0  0  0  0  0  0
   -0.0740    4.4989    5.5988 C   0  0  0  0  0  0
    0.6706    3.9644    4.3258 C   0  0  0  0  0  0
    2.0262    4.6993    4.2119 C   0  0  0  0  0  0
    0.8764    2.3910    4.3265 C   0  0  0  0  0  0
   -0.3429    1.4994    3.7931 C   0  0  0  0  0  0
   -0.2140    0.0217    3.2204 C   0  0  0  0  0  0
   -1.1543   -0.3030    1.9044 C   0  0  0  0  0  0
   -1.1976    0.9421    1.0201 C   0  0  0  0  0  0
   -0.7265   -1.5662    1.0291 C   0  0  0  0  0  0
    0.0493   -2.8582    1.6187 C   0  0  0  0  0  0
    0.6011   -2.9102    3.0846 C   0  0  0  0  0  0
   -0.4315   -3.1732    4.2736 C   0  0  0  0  0  0
   -1.6959   -4.1130    4.1610 C   0  0  0  0  0  0
   -1.8425   -5.3166    5.1291 C   0  0  0  0  0  0
   -2.2683   -6.6924    4.4849 C   0  0  0  0  0  0
   -1.1371   -7.6885    4.2008 C   0  0  0  0  0  0
   -1.5100   -9.1794    3.9628 C   0  0  0  0  0  0
   -0.4322  -10.1987    3.4887 C   0  0  0  0  0  0
    0.2406   -9.9024    2.1557 C   0  0  0  0  0  0
    0.5707  -10.4326    4.5451 N   0  0  0  0  0  0
   -1.9386   -9.6630    5.2614 O   0  0  0  0  0  0
   -3.2143   -7.3160    5.3601 O   0  0  0  0  0  0
   -0.9049   -3.9305    1.5386 O   0  0  0  0  0  0
   -1.2719    1.3751    4.9039 O   0  0  0  0  0  0
   -2.5355    0.9727    4.6093 C   0  0  0  0  0  0
   -2.8511   -0.0726    4.0735 O   0  0  0  0  0  0
   -3.4983    1.9939    5.1493 C   0  0  0  0  0  0
   -4.8699    1.3898    5.4901 C   0  0  0  0  0  0
   -5.3394    1.7557    6.9040 C   0  0  0  0  0  0
   -6.2281    0.6775    7.4794 C   0  0  0  0  0  0
   -7.4494    0.6744    7.3685 O   0  0  0  0  0  0
   -5.5520   -0.2837    8.1258 O   0  0  0  0  0  0
   -5.8486    1.9518    4.4497 C   0  0  0  0  0  0
   -5.6582    3.0008    3.8533 O   0  0  0  0  0  0
   -6.9589    1.2201    4.2831 O   0  0  0  0  0  0
    2.1591    2.0185    3.6818 O   0  0  0  0  0  0
    3.2329    1.6894    4.4922 C   0  0  0  0  0  0
    3.1378    1.2774    5.6409 O   0  0  0  0  0  0
    4.5805    1.8974    3.7887 C   0  0  0  0  0  0
    4.6186    1.5248    2.2740 C   0  0  0  0  0  0
    3.6704    2.2748    1.3206 C   0  0  0  0  0  0
    2.7821    1.3551    0.5335 C   0  0  0  0  0  0
    3.1590    0.4266   -0.1682 O   0  0  0  0  0  0
    1.4805    1.6419    0.6885 O   0  0  0  0  0  0
    6.0162    1.5606    1.6435 C   0  0  0  0  0  0
    6.5001    2.5684    1.1671 O   0  0  0  0  0  0
    6.7274    0.4182    1.7457 O   0  0  0  0  0  0
    1.2477   -9.6710    4.5374 H   0  0  0  0  0  0
    1.1102  -11.2671    4.3043 H   0  0  0  0  0  0
   -2.8503   -9.3173    5.3647 H   0  0  0  0  0  0
   -2.8107   -7.3847    6.2450 H   0  0  0  0  0  0
   -1.3637   -3.8616    0.6847 H   0  0  0  0  0  0
   -5.9196   -1.1838    8.0362 H   0  0  0  0  0  0
   -7.0032    0.4080    4.8463 H   0  0  0  0  0  0
    1.4348    2.5406    1.0778 H   0  0  0  0  0  0
    6.3234   -0.2786    2.3092 H   0  0  0  0  0  0
  1  2  1  0  0  0
  2  3  1  0  0  0
  3  4  1  0  0  0
  4  5  1  0  0  0
  5  6  1  0  0  0
  5  7  1  0  0  0
  7  8  1  0  0  0
  7 39  1  0  0  0
  8  9  1  0  0  0
  8 27  1  0  0  0
  9 10  1  0  0  0
 10 11  1  0  0  0
 10 12  1  0  0  0
 12 13  1  0  0  0
 13 14  1  0  0  0
 13 26  1  0  0  0
 14 15  1  0  0  0
 15 16  1  0  0  0
 16 17  1  0  0  0
 17 18  1  0  0  0
 18 19  1  0  0  0
 18 25  1  0  0  0
 19 20  1  0  0  0
 20 21  1  0  0  0
 20 24  1  0  0  0
 21 22  1  0  0  0
 21 23  1  0  0  0
 23 51  1  0  0  0
 23 52  1  0  0  0
 24 53  1  0  0  0
 25 54  1  0  0  0
 26 55  1  0  0  0
 27 28  1  0  0  0
 28 29  2  0  0  0
 28 30  1  0  0  0
 30 31  1  0  0  0
 31 32  1  0  0  0
 31 36  1  0  0  0
 32 33  1  0  0  0
 33 34  2  0  0  0
 33 35  1  0  0  0
 35 56  1  0  0  0
 36 37  2  0  0  0
 36 38  1  0  0  0
 38 57  1  0  0  0
 39 40  1  0  0  0
 40 41  2  0  0  0
 40 42  1  0  0  0
 42 43  1  0  0  0
 43 44  1  0  0  0
 43 48  1  0  0  0
 44 45  1  0  0  0
 45 46  2  0  0  0
 45 47  1  0  0  0
 47 58  1  0  0  0
 48 49  2  0  0  0
 48 50  1  0  0  0
 50 59  1  0  0  0
M  END
>  <AUTHOR>
    GENERATED BY OPEN BABEL 2.4.1

>  <CHROM.1>
63.90082073,-127.32734661,101.73430761,84.22881930,157.00988306,101.58098239
-139.71875419,163.01660552,37.00186082,28.36515898,-7.31530195,77.44401011
42.02943930,35.06814130,121.53882946,-134.30926718,98.63833848,162.58788967
-55.09416534,171.99443270,-60.08143522,77.98337522,-80.62471133,59.38489347
-152.49641744,129.43051697,-150.72522631,-24.18365680,-91.57557890,-144.37683916
-0.44452179,23.90173479,-37.88115379,60.22417423,-124.23699521,-87.47536970
-54.69381253,15.78637048,-7.34730795,-0.54025381,-0.53214877,3.87094104,1.33930033
0.40337321,0.07199531

>  <COMPND>
    UNNAMED

>  <MASTER>
        0    0    0    0    0    0    0    0  109    0  109    0

>  <Name>
FB1.pdb

>  <RI>
0

>  <Rbt.Current_Directory>
/home/fc/tossine/F10/p3/1_clust04

>  <Rbt.Executable>
rbdock/0.1.0

>  <Rbt.Library>
librxdock.so/0.1.0

>  <Rbt.Parameter_File>
/cluster/rxdock/data/scripts/dock.prm

>  <Rbt.Receptor>
rx_3.prm

>  <SCORE>
47.0896

>  <SCORE.INTER>
3.49397

>  <SCORE.INTER.CONST>
1

>  <SCORE.INTER.POLAR>
-5.03526

>  <SCORE.INTER.REPUL>
1.60394

>  <SCORE.INTER.ROT>
32

>  <SCORE.INTER.VDW>
-24.8059

>  <SCORE.INTER.norm>
0.0698793

>  <SCORE.INTRA>
42.1796

>  <SCORE.INTRA.DIHEDRAL>
69.1672

>  <SCORE.INTRA.DIHEDRAL.0>
47.3121

>  <SCORE.INTRA.POLAR>
1.24812

>  <SCORE.INTRA.POLAR.0>
-1.47808

>  <SCORE.INTRA.REPUL>
0

>  <SCORE.INTRA.REPUL.0>
0

>  <SCORE.INTRA.VDW>
3.35238

>  <SCORE.INTRA.VDW.0>
-2.78316

>  <SCORE.INTRA.norm>
0.843591

>  <SCORE.RESTR>
1.41609

>  <SCORE.RESTR.CAVITY>
1.41609

>  <SCORE.RESTR.norm>
0.0283218

>  <SCORE.SYSTEM>
0

>  <SCORE.SYSTEM.CONST>
0

>  <SCORE.SYSTEM.DIHEDRAL>
0

>  <SCORE.SYSTEM.norm>
0

>  <SCORE.heavy>
50

>  <SCORE.norm>
0.941793

$$$$
