FB1.pdb
  RxDock  10092020133D
librxdock.so/0.1.0
 59 58  0  0  0  0  0  0  0  0999 V2000
    0.5382    3.5675   12.4644 C   0  0  0  0  0  0
    0.3857    4.0061   11.0098 C   0  0  0  0  0  0
    0.5088    2.8184   10.0411 C   0  0  0  0  0  0
    0.3578    3.2178    8.5520 C   0  0  0  0  0  0
   -1.0977    3.6072    8.1158 C   0  0  0  0  0  0
   -1.3783    5.0504    8.5945 C   0  0  0  0  0  0
   -1.3497    3.4679    6.5554 C   0  0  0  0  0  0
   -0.1100    2.9911    5.6598 C   0  0  0  0  0  0
   -0.2035    2.5226    4.1432 C   0  0  0  0  0  0
    1.1515    1.7900    3.5527 C   0  0  0  0  0  0
    0.7381    0.8343    2.4347 C   0  0  0  0  0  0
    2.3037    2.7606    3.0280 C   0  0  0  0  0  0
    3.1293    2.5302    1.6555 C   0  0  0  0  0  0
    4.1326    1.3409    1.4681 C   0  0  0  0  0  0
    3.5435   -0.0952    1.0941 C   0  0  0  0  0  0
    2.8085   -0.4281   -0.2636 C   0  0  0  0  0  0
    3.6177   -0.4433   -1.5874 C   0  0  0  0  0  0
    4.9087   -1.3499   -1.6148 C   0  0  0  0  0  0
    5.4156   -1.7685   -3.0005 C   0  0  0  0  0  0
    6.7279   -2.5985   -3.0858 C   0  0  0  0  0  0
    6.7043   -4.1407   -2.8705 C   0  0  0  0  0  0
    8.0562   -4.8392   -2.8253 C   0  0  0  0  0  0
    5.8883   -4.4946   -1.6936 N   0  0  0  0  0  0
    7.1899   -2.4166   -4.4487 O   0  0  0  0  0  0
    5.9572   -0.6459   -0.9405 O   0  0  0  0  0  0
    2.1233    2.3347    0.6474 O   0  0  0  0  0  0
    0.8255    4.1032    5.6358 O   0  0  0  0  0  0
    0.3773    5.2752    5.1154 C   0  0  0  0  0  0
   -0.7822    5.5660    4.8910 O   0  0  0  0  0  0
    1.5494    6.2033    4.9539 C   0  0  0  0  0  0
    1.1599    7.6808    5.1205 C   0  0  0  0  0  0
    0.0716    8.1177    4.1315 C   0  0  0  0  0  0
    0.1299    9.6065    3.8796 C   0  0  0  0  0  0
    1.0610   10.3192    4.2383 O   0  0  0  0  0  0
   -0.9385   10.0792    3.2208 O   0  0  0  0  0  0
    0.6483    7.8223    6.5607 C   0  0  0  0  0  0
    1.3551    8.1912    7.4863 O   0  0  0  0  0  0
   -0.6305    7.4595    6.7315 O   0  0  0  0  0  0
   -2.5712    2.6732    6.2791 O   0  0  0  0  0  0
   -3.8017    3.2248    6.5946 C   0  0  0  0  0  0
   -3.9690    4.3668    7.0022 O   0  0  0  0  0  0
   -4.9569    2.2388    6.3760 C   0  0  0  0  0  0
   -5.1175    1.6952    4.9223 C   0  0  0  0  0  0
   -6.4702    1.0752    4.5272 C   0  0  0  0  0  0
   -6.5067   -0.4152    4.7053 C   0  0  0  0  0  0
   -7.0574   -1.0112    5.6208 O   0  0  0  0  0  0
   -5.8704   -1.0656    3.7192 O   0  0  0  0  0  0
   -4.7388    2.6946    3.8223 C   0  0  0  0  0  0
   -5.5621    3.2437    3.1171 O   0  0  0  0  0  0
   -3.4289    3.0122    3.7539 O   0  0  0  0  0  0
    4.9154   -4.2526   -1.8766 H   0  0  0  0  0  0
    6.1659   -3.8967   -0.9119 H   0  0  0  0  0  0
    6.4353   -2.7030   -5.0052 H   0  0  0  0  0  0
    6.7094   -1.2558   -0.8276 H   0  0  0  0  0  0
    2.5413    2.4544   -0.2218 H   0  0  0  0  0  0
   -1.6126    9.4124    2.9874 H   0  0  0  0  0  0
   -0.9592    7.5412    7.6611 H   0  0  0  0  0  0
   -5.9364   -2.0221    3.9247 H   0  0  0  0  0  0
   -3.1966    3.6932    3.0843 H   0  0  0  0  0  0
  1  2  1  0  0  0
  2  3  1  0  0  0
  3  4  1  0  0  0
  4  5  1  0  0  0
  5  6  1  0  0  0
  5  7  1  0  0  0
  7  8  1  0  0  0
  7 39  1  0  0  0
  8  9  1  0  0  0
  8 27  1  0  0  0
  9 10  1  0  0  0
 10 11  1  0  0  0
 10 12  1  0  0  0
 12 13  1  0  0  0
 13 14  1  0  0  0
 13 26  1  0  0  0
 14 15  1  0  0  0
 15 16  1  0  0  0
 16 17  1  0  0  0
 17 18  1  0  0  0
 18 19  1  0  0  0
 18 25  1  0  0  0
 19 20  1  0  0  0
 20 21  1  0  0  0
 20 24  1  0  0  0
 21 22  1  0  0  0
 21 23  1  0  0  0
 23 51  1  0  0  0
 23 52  1  0  0  0
 24 53  1  0  0  0
 25 54  1  0  0  0
 26 55  1  0  0  0
 27 28  1  0  0  0
 28 29  2  0  0  0
 28 30  1  0  0  0
 30 31  1  0  0  0
 31 32  1  0  0  0
 31 36  1  0  0  0
 32 33  1  0  0  0
 33 34  2  0  0  0
 33 35  1  0  0  0
 35 56  1  0  0  0
 36 37  2  0  0  0
 36 38  1  0  0  0
 38 57  1  0  0  0
 39 40  1  0  0  0
 40 41  2  0  0  0
 40 42  1  0  0  0
 42 43  1  0  0  0
 43 44  1  0  0  0
 43 48  1  0  0  0
 44 45  1  0  0  0
 45 46  2  0  0  0
 45 47  1  0  0  0
 47 58  1  0  0  0
 48 49  2  0  0  0
 48 50  1  0  0  0
 50 59  1  0  0  0
M  END
>  <AUTHOR>
    GENERATED BY OPEN BABEL 2.4.1

>  <CHROM.1>
179.90371162,-71.85581886,78.49310209,-1.19037571,167.74277405,69.32027362
-167.78883984,-60.22235484,152.75870829,-136.46144639,-68.09892518,81.03520836
163.45531746,65.47254282,68.72541273,53.30088516,158.83121764,176.76902902
170.95072923,82.37898244,-173.62209487,-55.79637227,65.76880474,14.27537556
-148.88940678,-57.72676893,-155.03641960,95.39217498,11.53736993,-0.06538854
179.39581415,5.40921463,-59.34660357,-161.20566449,-93.83162592,-107.30151315
103.28147592,179.30500855,-176.47278824,0.34158418,2.63272211,3.74649770
-2.25201607,-0.45763160,-2.58952379

>  <COMPND>
    UNNAMED

>  <MASTER>
        0    0    0    0    0    0    0    0  109    0  109    0

>  <Name>
FB1.pdb

>  <RI>
0

>  <Rbt.Current_Directory>
/home/fc/tossine/F10/p3/1_clust04

>  <Rbt.Executable>
rbdock/0.1.0

>  <Rbt.Library>
librxdock.so/0.1.0

>  <Rbt.Parameter_File>
/cluster/rxdock/data/scripts/dock.prm

>  <Rbt.Receptor>
rx_2.prm

>  <SCORE>
13.7959

>  <SCORE.INTER>
7.41509

>  <SCORE.INTER.CONST>
1

>  <SCORE.INTER.POLAR>
-0.980208

>  <SCORE.INTER.REPUL>
0.738969

>  <SCORE.INTER.ROT>
32

>  <SCORE.INTER.VDW>
-30.347

>  <SCORE.INTER.norm>
0.148302

>  <SCORE.INTRA>
4.05661

>  <SCORE.INTRA.DIHEDRAL>
-4.42228

>  <SCORE.INTRA.DIHEDRAL.0>
47.3121

>  <SCORE.INTRA.POLAR>
1.47808

>  <SCORE.INTRA.POLAR.0>
-1.47808

>  <SCORE.INTRA.REPUL>
0.00440597

>  <SCORE.INTRA.REPUL.0>
0

>  <SCORE.INTRA.VDW>
1.22026

>  <SCORE.INTRA.VDW.0>
-2.78316

>  <SCORE.INTRA.norm>
0.0811322

>  <SCORE.RESTR>
2.32417

>  <SCORE.RESTR.CAVITY>
2.32417

>  <SCORE.RESTR.norm>
0.0464834

>  <SCORE.SYSTEM>
0

>  <SCORE.SYSTEM.CONST>
0

>  <SCORE.SYSTEM.DIHEDRAL>
0

>  <SCORE.SYSTEM.norm>
0

>  <SCORE.heavy>
50

>  <SCORE.norm>
0.275917

$$$$
