FB1.pdb
  RxDock  10092018163D
librxdock.so/0.1.0
 59 58  0  0  0  0  0  0  0  0999 V2000
    4.8428    2.3313    3.5328 C   0  0  0  0  0  0
    3.5990    1.4593    3.6876 C   0  0  0  0  0  0
    3.3398    1.0932    5.1583 C   0  0  0  0  0  0
    1.9454    0.4638    5.4015 C   0  0  0  0  0  0
    0.7626    1.4902    5.4898 C   0  0  0  0  0  0
    0.9976    2.3972    6.7197 C   0  0  0  0  0  0
    0.5762    2.3564    4.1734 C   0  0  0  0  0  0
    0.1507    1.5721    2.8429 C   0  0  0  0  0  0
    0.2946    0.0045    2.6192 C   0  0  0  0  0  0
   -0.0278   -0.5160    1.0873 C   0  0  0  0  0  0
    0.9090    0.2080    0.1218 C   0  0  0  0  0  0
    0.0664   -2.0899    0.8451 C   0  0  0  0  0  0
   -0.8390   -3.1835    1.6214 C   0  0  0  0  0  0
   -2.3846   -3.3086    1.3938 C   0  0  0  0  0  0
   -3.3632   -2.5786    2.4227 C   0  0  0  0  0  0
   -4.8704   -2.9876    2.6582 C   0  0  0  0  0  0
   -5.8396   -3.0649    1.4490 C   0  0  0  0  0  0
   -7.3690   -3.2624    1.7821 C   0  0  0  0  0  0
   -8.0718   -2.0857    2.4707 C   0  0  0  0  0  0
   -7.9973   -1.9873    4.0209 C   0  0  0  0  0  0
   -7.6402   -0.6381    4.7119 C   0  0  0  0  0  0
   -7.7881   -0.5926    6.2263 C   0  0  0  0  0  0
   -6.3023   -0.1738    4.2985 N   0  0  0  0  0  0
   -9.3398   -2.2974    4.4739 O   0  0  0  0  0  0
   -8.0544   -3.5481    0.5580 O   0  0  0  0  0  0
   -0.2979   -4.4564    1.2297 O   0  0  0  0  0  0
   -1.2662    1.8342    2.6523 O   0  0  0  0  0  0
   -2.1070    1.4268    3.6385 C   0  0  0  0  0  0
   -1.9369    0.4806    4.3836 O   0  0  0  0  0  0
   -3.2454    2.4053    3.7276 C   0  0  0  0  0  0
   -3.2285    3.2131    5.0352 C   0  0  0  0  0  0
   -4.2691    4.3402    5.0442 C   0  0  0  0  0  0
   -4.4666    4.8886    6.4384 C   0  0  0  0  0  0
   -3.6916    5.6730    6.9748 O   0  0  0  0  0  0
   -5.5774    4.4357    7.0383 O   0  0  0  0  0  0
   -3.5323    2.2087    6.1555 C   0  0  0  0  0  0
   -4.5252    1.4971    6.1621 O   0  0  0  0  0  0
   -2.6409    2.2102    7.1562 O   0  0  0  0  0  0
   -0.2915    3.5328    4.4248 O   0  0  0  0  0  0
    0.2978    4.7015    4.8774 C   0  0  0  0  0  0
    1.5047    4.9010    4.9220 O   0  0  0  0  0  0
   -0.7374    5.7417    5.3255 C   0  0  0  0  0  0
   -0.3863    6.5305    6.6251 C   0  0  0  0  0  0
   -0.5946    8.0559    6.6240 C   0  0  0  0  0  0
    0.2266    8.7608    7.6648 C   0  0  0  0  0  0
    1.4483    8.8187    7.6910 O   0  0  0  0  0  0
   -0.5305    9.3638    8.5941 O   0  0  0  0  0  0
   -1.0429    5.9846    7.8992 C   0  0  0  0  0  0
   -1.5932    6.6970    8.7156 O   0  0  0  0  0  0
   -1.0663    4.6397    8.0085 O   0  0  0  0  0  0
   -5.7705    0.0921    5.1262 H   0  0  0  0  0  0
   -6.4076    0.6914    3.7638 H   0  0  0  0  0  0
   -9.5164   -3.1965    4.1249 H   0  0  0  0  0  0
   -7.6000   -3.0743   -0.1628 H   0  0  0  0  0  0
   -0.8171   -5.1515    1.6676 H   0  0  0  0  0  0
   -5.7113    4.7445    7.9549 H   0  0  0  0  0  0
   -1.9448    2.9095    7.0842 H   0  0  0  0  0  0
   -1.3033    8.7806    8.7491 H   0  0  0  0  0  0
   -1.4853    4.2924    8.8270 H   0  0  0  0  0  0
  1  2  1  0  0  0
  2  3  1  0  0  0
  3  4  1  0  0  0
  4  5  1  0  0  0
  5  6  1  0  0  0
  5  7  1  0  0  0
  7  8  1  0  0  0
  7 39  1  0  0  0
  8  9  1  0  0  0
  8 27  1  0  0  0
  9 10  1  0  0  0
 10 11  1  0  0  0
 10 12  1  0  0  0
 12 13  1  0  0  0
 13 14  1  0  0  0
 13 26  1  0  0  0
 14 15  1  0  0  0
 15 16  1  0  0  0
 16 17  1  0  0  0
 17 18  1  0  0  0
 18 19  1  0  0  0
 18 25  1  0  0  0
 19 20  1  0  0  0
 20 21  1  0  0  0
 20 24  1  0  0  0
 21 22  1  0  0  0
 21 23  1  0  0  0
 23 51  1  0  0  0
 23 52  1  0  0  0
 24 53  1  0  0  0
 25 54  1  0  0  0
 26 55  1  0  0  0
 27 28  1  0  0  0
 28 29  2  0  0  0
 28 30  1  0  0  0
 30 31  1  0  0  0
 31 32  1  0  0  0
 31 36  1  0  0  0
 32 33  1  0  0  0
 33 34  2  0  0  0
 33 35  1  0  0  0
 35 56  1  0  0  0
 36 37  2  0  0  0
 36 38  1  0  0  0
 38 57  1  0  0  0
 39 40  1  0  0  0
 40 41  2  0  0  0
 40 42  1  0  0  0
 42 43  1  0  0  0
 43 44  1  0  0  0
 43 48  1  0  0  0
 44 45  1  0  0  0
 45 46  2  0  0  0
 45 47  1  0  0  0
 47 58  1  0  0  0
 48 49  2  0  0  0
 48 50  1  0  0  0
 50 59  1  0  0  0
M  END
>  <AUTHOR>
    GENERATED BY OPEN BABEL 2.4.1

>  <CHROM.1>
168.09783453,-80.09858514,-63.60416026,64.83594303,-18.17150772,87.74685539
-172.06656929,-60.69563273,57.82168218,60.13342115,68.32219076,-96.86770981
-179.53114093,-157.67801415,-54.33137705,-170.96901870,68.02972080,-86.08243905
-32.17371285,133.07027212,171.48441071,58.77851382,-131.87713662,-29.47066217
-112.24677920,172.11467425,166.00902468,-55.13297897,78.44351532,177.55531905
4.95330727,10.12305819,139.06458346,134.64044676,-158.14700407,-133.76270691
64.99462404,36.61135494,179.83380516,-2.15429716,1.78232739,4.56774514,-1.04251265
-0.19050774,-2.56231560

>  <COMPND>
    UNNAMED

>  <MASTER>
        0    0    0    0    0    0    0    0  109    0  109    0

>  <Name>
FB1.pdb

>  <RI>
0

>  <Rbt.Current_Directory>
/home/fc/tossine/F10/p3/1_clust04

>  <Rbt.Executable>
rbdock/0.1.0

>  <Rbt.Library>
librxdock.so/0.1.0

>  <Rbt.Parameter_File>
/cluster/rxdock/data/scripts/dock.prm

>  <Rbt.Receptor>
rx_0.prm

>  <SCORE>
5.87071

>  <SCORE.INTER>
1.02063

>  <SCORE.INTER.CONST>
1

>  <SCORE.INTER.POLAR>
-1.12448

>  <SCORE.INTER.REPUL>
0.36773

>  <SCORE.INTER.ROT>
32

>  <SCORE.INTER.VDW>
-34.3948

>  <SCORE.INTER.norm>
0.0204126

>  <SCORE.INTRA>
4.07682

>  <SCORE.INTRA.DIHEDRAL>
21.3668

>  <SCORE.INTRA.DIHEDRAL.0>
47.3121

>  <SCORE.INTRA.POLAR>
-1.00828

>  <SCORE.INTRA.POLAR.0>
-1.47808

>  <SCORE.INTRA.REPUL>
0

>  <SCORE.INTRA.REPUL.0>
0

>  <SCORE.INTRA.VDW>
-3.17846

>  <SCORE.INTRA.VDW.0>
-2.78316

>  <SCORE.INTRA.norm>
0.0815364

>  <SCORE.RESTR>
0.773261

>  <SCORE.RESTR.CAVITY>
0.773261

>  <SCORE.RESTR.norm>
0.0154652

>  <SCORE.SYSTEM>
0

>  <SCORE.SYSTEM.CONST>
0

>  <SCORE.SYSTEM.DIHEDRAL>
0

>  <SCORE.SYSTEM.norm>
0

>  <SCORE.heavy>
50

>  <SCORE.norm>
0.117414

$$$$
