FB1.pdb
  RxDock  10092021043D
librxdock.so/0.1.0
 59 58  0  0  0  0  0  0  0  0999 V2000
   -6.0426   -8.9671    0.1020 C   0  0  0  0  0  0
   -4.9007   -8.0078    0.4294 C   0  0  0  0  0  0
   -4.5932   -7.9818    1.9358 C   0  0  0  0  0  0
   -3.7626   -6.7503    2.3753 C   0  0  0  0  0  0
   -4.3495   -5.3645    1.9332 C   0  0  0  0  0  0
   -5.7412   -5.1962    2.5855 C   0  0  0  0  0  0
   -3.4067   -4.1369    2.2829 C   0  0  0  0  0  0
   -1.9308   -4.1550    1.6603 C   0  0  0  0  0  0
   -0.6792   -3.3716    2.2502 C   0  0  0  0  0  0
   -0.4049   -1.8880    1.5832 C   0  0  0  0  0  0
   -1.7496   -1.1930    1.3762 C   0  0  0  0  0  0
    0.5764   -0.9243    2.3915 C   0  0  0  0  0  0
    0.4289   -0.5946    3.9688 C   0  0  0  0  0  0
    1.2647    0.5279    4.6743 C   0  0  0  0  0  0
    1.1258    2.0254    4.1384 C   0  0  0  0  0  0
   -0.1153    2.9598    4.4235 C   0  0  0  0  0  0
    0.0612    4.2129    5.3211 C   0  0  0  0  0  0
    0.3676    5.5727    4.5820 C   0  0  0  0  0  0
    0.9439    6.7010    5.4465 C   0  0  0  0  0  0
   -0.0292    7.5034    6.3562 C   0  0  0  0  0  0
    0.4256    7.9945    7.7624 C   0  0  0  0  0  0
   -0.6220    8.7141    8.6003 C   0  0  0  0  0  0
    1.0488    6.8969    8.5262 N   0  0  0  0  0  0
   -0.3159    8.7139    5.6103 O   0  0  0  0  0  0
    1.2864    5.3001    3.5184 O   0  0  0  0  0  0
   -0.9438   -0.2024    4.1376 O   0  0  0  0  0  0
   -1.5116   -5.5466    1.6491 O   0  0  0  0  0  0
   -0.9779   -6.0394    2.7969 C   0  0  0  0  0  0
   -0.9937   -5.5002    3.8871 O   0  0  0  0  0  0
   -0.4474   -7.4192    2.5212 C   0  0  0  0  0  0
   -0.6688   -8.3829    3.6980 C   0  0  0  0  0  0
   -2.1361   -8.8064    3.8440 C   0  0  0  0  0  0
   -2.5320   -8.9077    5.2987 C   0  0  0  0  0  0
   -2.2139   -9.8434    6.0247 O   0  0  0  0  0  0
   -3.2677   -7.8708    5.7257 O   0  0  0  0  0  0
    0.2058   -9.6105    3.4083 C   0  0  0  0  0  0
    0.1758  -10.2154    2.3474 O   0  0  0  0  0  0
    0.9738   -9.9974    4.4362 O   0  0  0  0  0  0
   -4.0956   -2.8463    2.0387 O   0  0  0  0  0  0
   -4.4999   -2.0979    3.1317 C   0  0  0  0  0  0
   -3.7881   -1.3052    3.7346 O   0  0  0  0  0  0
   -5.9602   -2.3688    3.5167 C   0  0  0  0  0  0
   -6.9626   -1.2077    3.2311 C   0  0  0  0  0  0
   -8.1429   -1.4879    2.2831 C   0  0  0  0  0  0
   -9.0670   -2.5543    2.7961 C   0  0  0  0  0  0
   -8.9185   -3.1899    3.8308 O   0  0  0  0  0  0
  -10.1261   -2.7447    1.9946 O   0  0  0  0  0  0
   -7.5383   -0.5392    4.4857 C   0  0  0  0  0  0
   -7.7494   -1.1441    5.5183 O   0  0  0  0  0  0
   -7.6989    0.7985    4.4076 O   0  0  0  0  0  0
    1.6192    7.2913    9.2729 H   0  0  0  0  0  0
    1.7111    6.4104    7.9177 H   0  0  0  0  0  0
   -1.1924    9.0049    5.9397 H   0  0  0  0  0  0
    1.5338    6.1479    3.1054 H   0  0  0  0  0  0
   -1.1462    0.4772    3.4731 H   0  0  0  0  0  0
   -3.5260   -7.2307    5.0350 H   0  0  0  0  0  0
    0.5397   -9.9252    5.3223 H   0  0  0  0  0  0
  -10.6970   -3.4086    2.4357 H   0  0  0  0  0  0
   -7.5258    1.1909    3.5231 H   0  0  0  0  0  0
  1  2  1  0  0  0
  2  3  1  0  0  0
  3  4  1  0  0  0
  4  5  1  0  0  0
  5  6  1  0  0  0
  5  7  1  0  0  0
  7  8  1  0  0  0
  7 39  1  0  0  0
  8  9  1  0  0  0
  8 27  1  0  0  0
  9 10  1  0  0  0
 10 11  1  0  0  0
 10 12  1  0  0  0
 12 13  1  0  0  0
 13 14  1  0  0  0
 13 26  1  0  0  0
 14 15  1  0  0  0
 15 16  1  0  0  0
 16 17  1  0  0  0
 17 18  1  0  0  0
 18 19  1  0  0  0
 18 25  1  0  0  0
 19 20  1  0  0  0
 20 21  1  0  0  0
 20 24  1  0  0  0
 21 22  1  0  0  0
 21 23  1  0  0  0
 23 51  1  0  0  0
 23 52  1  0  0  0
 24 53  1  0  0  0
 25 54  1  0  0  0
 26 55  1  0  0  0
 27 28  1  0  0  0
 28 29  2  0  0  0
 28 30  1  0  0  0
 30 31  1  0  0  0
 31 32  1  0  0  0
 31 36  1  0  0  0
 32 33  1  0  0  0
 33 34  2  0  0  0
 33 35  1  0  0  0
 35 56  1  0  0  0
 36 37  2  0  0  0
 36 38  1  0  0  0
 38 57  1  0  0  0
 39 40  1  0  0  0
 40 41  2  0  0  0
 40 42  1  0  0  0
 42 43  1  0  0  0
 43 44  1  0  0  0
 43 48  1  0  0  0
 44 45  1  0  0  0
 45 46  2  0  0  0
 45 47  1  0  0  0
 47 58  1  0  0  0
 48 49  2  0  0  0
 48 50  1  0  0  0
 50 59  1  0  0  0
M  END
>  <AUTHOR>
    GENERATED BY OPEN BABEL 2.4.1

>  <CHROM.1>
-162.77379902,52.67411069,61.64682928,58.59611316,-156.74729275,107.50321029
-94.35221207,-84.01000027,40.43872416,-50.44569334,-169.91627085,59.03246933
-50.49796797,75.59787079,112.58306130,93.85702383,-162.52714768,-78.24019275
-175.48121564,143.51351001,-177.22516479,154.52567194,160.15647386,11.60682930
-142.64620670,73.02527493,-141.97595301,-51.55013506,-76.54938138,5.56226996
38.53394740,85.37625869,-109.64104858,120.47079325,62.18105976,-33.01363748
-2.12873598,-176.33014975,6.56466601,-2.61520721,-2.17662396,3.71634209,1.79141577
0.13333910,-2.95749985

>  <COMPND>
    UNNAMED

>  <MASTER>
        0    0    0    0    0    0    0    0  109    0  109    0

>  <Name>
FB1.pdb

>  <RI>
0

>  <Rbt.Current_Directory>
/home/fc/tossine/F10/p3/1_clust04

>  <Rbt.Executable>
rbdock/0.1.0

>  <Rbt.Library>
librxdock.so/0.1.0

>  <Rbt.Parameter_File>
/cluster/rxdock/data/scripts/dock.prm

>  <Rbt.Receptor>
rx_3.prm

>  <SCORE>
42.9705

>  <SCORE.INTER>
6.39901

>  <SCORE.INTER.CONST>
1

>  <SCORE.INTER.POLAR>
-2.78532

>  <SCORE.INTER.REPUL>
1.20211

>  <SCORE.INTER.ROT>
32

>  <SCORE.INTER.VDW>
-27.5414

>  <SCORE.INTER.norm>
0.12798

>  <SCORE.INTRA>
36.4268

>  <SCORE.INTRA.DIHEDRAL>
48.8629

>  <SCORE.INTRA.DIHEDRAL.0>
47.3121

>  <SCORE.INTRA.POLAR>
1.47808

>  <SCORE.INTRA.POLAR.0>
-1.47808

>  <SCORE.INTRA.REPUL>
0.507812

>  <SCORE.INTRA.REPUL.0>
0

>  <SCORE.INTRA.VDW>
4.4309

>  <SCORE.INTRA.VDW.0>
-2.78316

>  <SCORE.INTRA.norm>
0.728537

>  <SCORE.RESTR>
0.144645

>  <SCORE.RESTR.CAVITY>
0.144645

>  <SCORE.RESTR.norm>
0.00289289

>  <SCORE.SYSTEM>
0

>  <SCORE.SYSTEM.CONST>
0

>  <SCORE.SYSTEM.DIHEDRAL>
0

>  <SCORE.SYSTEM.norm>
0

>  <SCORE.heavy>
50

>  <SCORE.norm>
0.85941

$$$$
