FB1.pdb
  RxDock  10092018153D
librxdock.so/0.1.0
 59 58  0  0  0  0  0  0  0  0999 V2000
   -5.9178    4.4321    2.2226 C   0  0  0  0  0  0
   -4.6619    4.3133    3.0827 C   0  0  0  0  0  0
   -4.3737    2.8537    3.4711 C   0  0  0  0  0  0
   -2.8869    2.5884    3.8155 C   0  0  0  0  0  0
   -2.4861    2.8988    5.2999 C   0  0  0  0  0  0
   -3.0407    1.7696    6.1989 C   0  0  0  0  0  0
   -0.9233    3.0756    5.5101 C   0  0  0  0  0  0
   -0.0096    1.7790    5.2858 C   0  0  0  0  0  0
    0.1234    0.9789    3.9182 C   0  0  0  0  0  0
   -1.1691    0.0280    3.5355 C   0  0  0  0  0  0
   -1.1250   -0.2709    2.0379 C   0  0  0  0  0  0
   -1.3032   -1.3372    4.3497 C   0  0  0  0  0  0
   -0.2113   -2.5308    4.3064 C   0  0  0  0  0  0
   -0.4703   -3.9306    4.9617 C   0  0  0  0  0  0
   -1.6511   -4.8331    4.3783 C   0  0  0  0  0  0
   -1.8327   -6.3704    4.6920 C   0  0  0  0  0  0
   -3.0979   -7.1104    4.1829 C   0  0  0  0  0  0
   -3.2305   -7.2885    2.6209 C   0  0  0  0  0  0
   -2.3662   -8.3853    1.9864 C   0  0  0  0  0  0
   -0.8205   -8.2726    2.1146 C   0  0  0  0  0  0
    0.0425   -9.5332    2.4170 C   0  0  0  0  0  0
    0.0445  -10.0230    3.8584 C   0  0  0  0  0  0
   -0.2865  -10.6306    1.4876 N   0  0  0  0  0  0
   -0.3758   -7.8169    0.8114 O   0  0  0  0  0  0
   -4.6037   -7.5621    2.3225 O   0  0  0  0  0  0
   -0.0150   -2.8015    2.9083 O   0  0  0  0  0  0
    1.3510    2.1812    5.6012 O   0  0  0  0  0  0
    1.7185    2.1418    6.9084 C   0  0  0  0  0  0
    2.8303    1.8957    7.3359 O   0  0  0  0  0  0
    0.5405    2.5550    7.7467 C   0  0  0  0  0  0
    0.9368    3.4860    8.9037 C   0  0  0  0  0  0
   -0.1958    4.4389    9.3069 C   0  0  0  0  0  0
    0.3513    5.7598    9.7961 C   0  0  0  0  0  0
    1.4436    5.8818   10.3401 O   0  0  0  0  0  0
   -0.4739    6.7941    9.5770 O   0  0  0  0  0  0
    1.2946    2.5677   10.0804 C   0  0  0  0  0  0
    0.5307    2.3423   11.0067 O   0  0  0  0  0  0
    2.5377    2.0692   10.0348 O   0  0  0  0  0  0
   -0.4120    4.2501    4.7626 O   0  0  0  0  0  0
   -0.4277    5.4864    5.3866 C   0  0  0  0  0  0
   -0.9133    5.7039    6.4889 O   0  0  0  0  0  0
    0.2398    6.5770    4.5384 C   0  0  0  0  0  0
    0.7902    7.8060    5.3265 C   0  0  0  0  0  0
    2.0395    8.5178    4.7759 C   0  0  0  0  0  0
    2.8484    9.1938    5.8451 C   0  0  0  0  0  0
    2.5160    9.3261    7.0150 O   0  0  0  0  0  0
    4.0276    9.6435    5.3894 O   0  0  0  0  0  0
   -0.2526    8.8896    5.6275 C   0  0  0  0  0  0
   -0.6639    9.6625    4.7848 O   0  0  0  0  0  0
   -0.7709    8.8647    6.8733 O   0  0  0  0  0  0
    0.2709  -10.5295    0.6406 H   0  0  0  0  0  0
   -1.2553  -10.5190    1.1803 H   0  0  0  0  0  0
   -0.6741   -8.5151    0.1910 H   0  0  0  0  0  0
   -4.8207   -8.4460    2.6719 H   0  0  0  0  0  0
   -0.8725   -3.0554    2.5279 H   0  0  0  0  0  0
   -0.1556    7.6575    9.9036 H   0  0  0  0  0  0
    2.7572    1.4468   10.7718 H   0  0  0  0  0  0
    4.0725    9.4029    4.4400 H   0  0  0  0  0  0
   -1.5654    9.4275    7.0086 H   0  0  0  0  0  0
  1  2  1  0  0  0
  2  3  1  0  0  0
  3  4  1  0  0  0
  4  5  1  0  0  0
  5  6  1  0  0  0
  5  7  1  0  0  0
  7  8  1  0  0  0
  7 39  1  0  0  0
  8  9  1  0  0  0
  8 27  1  0  0  0
  9 10  1  0  0  0
 10 11  1  0  0  0
 10 12  1  0  0  0
 12 13  1  0  0  0
 13 14  1  0  0  0
 13 26  1  0  0  0
 14 15  1  0  0  0
 15 16  1  0  0  0
 16 17  1  0  0  0
 17 18  1  0  0  0
 18 19  1  0  0  0
 18 25  1  0  0  0
 19 20  1  0  0  0
 20 21  1  0  0  0
 20 24  1  0  0  0
 21 22  1  0  0  0
 21 23  1  0  0  0
 23 51  1  0  0  0
 23 52  1  0  0  0
 24 53  1  0  0  0
 25 54  1  0  0  0
 26 55  1  0  0  0
 27 28  1  0  0  0
 28 29  2  0  0  0
 28 30  1  0  0  0
 30 31  1  0  0  0
 31 32  1  0  0  0
 31 36  1  0  0  0
 32 33  1  0  0  0
 33 34  2  0  0  0
 33 35  1  0  0  0
 35 56  1  0  0  0
 36 37  2  0  0  0
 36 38  1  0  0  0
 38 57  1  0  0  0
 39 40  1  0  0  0
 40 41  2  0  0  0
 40 42  1  0  0  0
 42 43  1  0  0  0
 43 44  1  0  0  0
 43 48  1  0  0  0
 44 45  1  0  0  0
 45 46  2  0  0  0
 45 47  1  0  0  0
 47 58  1  0  0  0
 48 49  2  0  0  0
 48 50  1  0  0  0
 50 59  1  0  0  0
M  END
>  <AUTHOR>
    GENERATED BY OPEN BABEL 2.4.1

>  <CHROM.1>
156.36557483,85.23370890,75.03215154,-66.36130027,61.46501223,88.33701860
-74.98538029,84.36868733,160.46408344,-62.37595872,-171.42453808,63.92620728
-59.10696484,165.47818175,173.88650160,67.53606127,76.96914343,-60.94333049
-68.58236038,138.71552352,-77.26152786,-59.87311816,86.40234744,147.72533329
-138.40406083,151.34763020,-147.71331761,-100.56597038,-29.13422194,178.50910380
-177.52351582,-4.87228407,-156.07829428,148.11705567,-152.50161733,-75.23453010
-8.09694884,-0.52534563,-167.64155135,-0.48472804,1.23682330,5.30395223,1.34192133
-0.89643901,0.09438874

>  <COMPND>
    UNNAMED

>  <MASTER>
        0    0    0    0    0    0    0    0  109    0  109    0

>  <Name>
FB1.pdb

>  <RI>
0

>  <Rbt.Current_Directory>
/home/fc/tossine/F10/p3/1_clust04

>  <Rbt.Executable>
rbdock/0.1.0

>  <Rbt.Library>
librxdock.so/0.1.0

>  <Rbt.Parameter_File>
/cluster/rxdock/data/scripts/dock.prm

>  <Rbt.Receptor>
rx_0.prm

>  <SCORE>
17.5275

>  <SCORE.INTER>
2.90147

>  <SCORE.INTER.CONST>
1

>  <SCORE.INTER.POLAR>
-1.48565

>  <SCORE.INTER.REPUL>
0.0576601

>  <SCORE.INTER.ROT>
32

>  <SCORE.INTER.VDW>
-29.7356

>  <SCORE.INTER.norm>
0.0580294

>  <SCORE.INTRA>
13.2409

>  <SCORE.INTRA.DIHEDRAL>
8.3082

>  <SCORE.INTRA.DIHEDRAL.0>
47.3121

>  <SCORE.INTRA.POLAR>
1.47808

>  <SCORE.INTRA.POLAR.0>
-1.47808

>  <SCORE.INTRA.REPUL>
0

>  <SCORE.INTRA.REPUL.0>
0

>  <SCORE.INTRA.VDW>
4.06131

>  <SCORE.INTRA.VDW.0>
-2.78316

>  <SCORE.INTRA.norm>
0.264817

>  <SCORE.RESTR>
1.38513

>  <SCORE.RESTR.CAVITY>
1.38513

>  <SCORE.RESTR.norm>
0.0277025

>  <SCORE.SYSTEM>
0

>  <SCORE.SYSTEM.CONST>
0

>  <SCORE.SYSTEM.DIHEDRAL>
0

>  <SCORE.SYSTEM.norm>
0

>  <SCORE.heavy>
50

>  <SCORE.norm>
0.350549

$$$$
