FB1.pdb
  RxDock  10092021593D
librxdock.so/0.1.0
 59 58  0  0  0  0  0  0  0  0999 V2000
   -0.9445    0.7691    1.3271 C   0  0  0  0  0  0
   -0.0656   -0.3661    0.8072 C   0  0  0  0  0  0
   -0.3657   -1.6927    1.5243 C   0  0  0  0  0  0
   -1.7437   -2.2964    1.1549 C   0  0  0  0  0  0
   -2.5347   -2.9232    2.3557 C   0  0  0  0  0  0
   -3.0507   -1.7728    3.2505 C   0  0  0  0  0  0
   -3.7260   -3.8692    1.9043 C   0  0  0  0  0  0
   -3.3417   -5.3612    1.4658 C   0  0  0  0  0  0
   -2.1441   -6.2135    2.0722 C   0  0  0  0  0  0
   -1.8980   -6.0200    3.6919 C   0  0  0  0  0  0
   -1.3204   -7.3182    4.2533 C   0  0  0  0  0  0
   -0.9727   -4.7934    4.1209 C   0  0  0  0  0  0
    0.3277   -4.3038    3.2914 C   0  0  0  0  0  0
    1.7456   -4.9374    3.5015 C   0  0  0  0  0  0
    2.7606   -4.2096    4.4961 C   0  0  0  0  0  0
    2.3798   -2.9800    5.4114 C   0  0  0  0  0  0
    3.1325   -1.6346    5.2364 C   0  0  0  0  0  0
    2.6647   -0.7144    4.0432 C   0  0  0  0  0  0
    1.2118   -0.2253    4.0917 C   0  0  0  0  0  0
    0.7983    0.7453    5.2341 C   0  0  0  0  0  0
    0.5673    2.2577    4.9429 C   0  0  0  0  0  0
    1.7012    2.9937    4.2430 C   0  0  0  0  0  0
   -0.7118    2.4678    4.2386 N   0  0  0  0  0  0
   -0.4866    0.2502    5.6900 O   0  0  0  0  0  0
    3.5277    0.4271    4.0012 O   0  0  0  0  0  0
    0.0040   -4.5567    1.9138 O   0  0  0  0  0  0
   -4.5217   -6.1736    1.7110 O   0  0  0  0  0  0
   -4.6865   -7.2734    0.9309 C   0  0  0  0  0  0
   -3.9864   -7.6006   -0.0084 O   0  0  0  0  0  0
   -5.8261   -8.0833    1.4847 C   0  0  0  0  0  0
   -7.0110   -8.1784    0.5103 C   0  0  0  0  0  0
   -6.8477   -9.3161   -0.5057 C   0  0  0  0  0  0
   -7.8194   -9.1658   -1.6532 C   0  0  0  0  0  0
   -7.5349   -9.4142   -2.8198 O   0  0  0  0  0  0
   -9.0313   -8.7341   -1.2740 O   0  0  0  0  0  0
   -8.2526   -8.4239    1.3787 C   0  0  0  0  0  0
   -8.4091   -9.4337    2.0483 O   0  0  0  0  0  0
   -9.1790   -7.4584    1.3046 O   0  0  0  0  0  0
   -4.8300   -3.8495    2.8946 O   0  0  0  0  0  0
   -5.8613   -2.9430    2.7140 C   0  0  0  0  0  0
   -5.7876   -1.9320    2.0279 O   0  0  0  0  0  0
   -7.1312   -3.3439    3.4763 C   0  0  0  0  0  0
   -8.2834   -2.2919    3.4735 C   0  0  0  0  0  0
   -8.0188   -0.9276    4.1362 C   0  0  0  0  0  0
   -9.2778   -0.1635    4.4287 C   0  0  0  0  0  0
  -10.3958   -0.6470    4.5426 O   0  0  0  0  0  0
   -9.0569    1.1514    4.5791 O   0  0  0  0  0  0
   -8.8903   -2.0145    2.0926 C   0  0  0  0  0  0
   -8.8447   -0.9240    1.5583 O   0  0  0  0  0  0
   -9.3906   -3.0921    1.4525 O   0  0  0  0  0  0
   -0.8666    3.4679    4.1184 H   0  0  0  0  0  0
   -1.4736    2.1542    4.8442 H   0  0  0  0  0  0
   -0.2885   -0.6271    6.0804 H   0  0  0  0  0  0
    3.4234    0.9183    4.8369 H   0  0  0  0  0  0
    0.5812   -4.0021    1.3626 H   0  0  0  0  0  0
   -9.0294   -7.9972   -0.6334 H   0  0  0  0  0  0
   -8.8182   -6.5388    1.3592 H   0  0  0  0  0  0
   -9.9045    1.5473    4.8726 H   0  0  0  0  0  0
   -9.3221   -3.9410    1.9433 H   0  0  0  0  0  0
  1  2  1  0  0  0
  2  3  1  0  0  0
  3  4  1  0  0  0
  4  5  1  0  0  0
  5  6  1  0  0  0
  5  7  1  0  0  0
  7  8  1  0  0  0
  7 39  1  0  0  0
  8  9  1  0  0  0
  8 27  1  0  0  0
  9 10  1  0  0  0
 10 11  1  0  0  0
 10 12  1  0  0  0
 12 13  1  0  0  0
 13 14  1  0  0  0
 13 26  1  0  0  0
 14 15  1  0  0  0
 15 16  1  0  0  0
 16 17  1  0  0  0
 17 18  1  0  0  0
 18 19  1  0  0  0
 18 25  1  0  0  0
 19 20  1  0  0  0
 20 21  1  0  0  0
 20 24  1  0  0  0
 21 22  1  0  0  0
 21 23  1  0  0  0
 23 51  1  0  0  0
 23 52  1  0  0  0
 24 53  1  0  0  0
 25 54  1  0  0  0
 26 55  1  0  0  0
 27 28  1  0  0  0
 28 29  2  0  0  0
 28 30  1  0  0  0
 30 31  1  0  0  0
 31 32  1  0  0  0
 31 36  1  0  0  0
 32 33  1  0  0  0
 33 34  2  0  0  0
 33 35  1  0  0  0
 35 56  1  0  0  0
 36 37  2  0  0  0
 36 38  1  0  0  0
 38 57  1  0  0  0
 39 40  1  0  0  0
 40 41  2  0  0  0
 40 42  1  0  0  0
 42 43  1  0  0  0
 43 44  1  0  0  0
 43 48  1  0  0  0
 44 45  1  0  0  0
 45 46  2  0  0  0
 45 47  1  0  0  0
 47 58  1  0  0  0
 48 49  2  0  0  0
 48 50  1  0  0  0
 50 59  1  0  0  0
M  END
>  <AUTHOR>
    GENERATED BY OPEN BABEL 2.4.1

>  <CHROM.1>
70.18960647,-139.47595784,72.17429979,80.19946543,32.46892785,92.39098714
37.67303584,151.99558979,150.26395073,-36.79778422,-85.83849010,-95.80475252
159.54592391,7.18026425,-119.67879922,80.14728839,61.34128342,65.86080454
-62.37800102,105.55540366,-53.36502604,65.82020800,176.15169918,-4.87312654
116.15520203,85.12010212,-165.15582584,-64.43826160,141.19134248,44.24219078
-45.25810344,-20.20090647,172.69083150,-62.77123388,-163.33205845,-117.47208248
21.63393403,-173.22226794,0.63643362,-3.66293500,-3.50130121,2.57031153,0.65219962
-0.09865342,0.35267664

>  <COMPND>
    UNNAMED

>  <MASTER>
        0    0    0    0    0    0    0    0  109    0  109    0

>  <Name>
FB1.pdb

>  <RI>
0

>  <Rbt.Current_Directory>
/home/fc/tossine/F10/p3/1_clust04

>  <Rbt.Executable>
rbdock/0.1.0

>  <Rbt.Library>
librxdock.so/0.1.0

>  <Rbt.Parameter_File>
/cluster/rxdock/data/scripts/dock.prm

>  <Rbt.Receptor>
rx_4.prm

>  <SCORE>
39.6049

>  <SCORE.INTER>
7.3901

>  <SCORE.INTER.CONST>
1

>  <SCORE.INTER.POLAR>
-1.70353

>  <SCORE.INTER.REPUL>
0.239217

>  <SCORE.INTER.ROT>
32

>  <SCORE.INTER.VDW>
-25.414

>  <SCORE.INTER.norm>
0.147802

>  <SCORE.INTRA>
27.0523

>  <SCORE.INTRA.DIHEDRAL>
46.024

>  <SCORE.INTRA.DIHEDRAL.0>
47.3121

>  <SCORE.INTRA.POLAR>
1.23039

>  <SCORE.INTRA.POLAR.0>
-1.47808

>  <SCORE.INTRA.REPUL>
0

>  <SCORE.INTRA.REPUL.0>
0

>  <SCORE.INTRA.VDW>
-0.143069

>  <SCORE.INTRA.VDW.0>
-2.78316

>  <SCORE.INTRA.norm>
0.541046

>  <SCORE.RESTR>
5.16252

>  <SCORE.RESTR.CAVITY>
5.16252

>  <SCORE.RESTR.norm>
0.10325

>  <SCORE.SYSTEM>
0

>  <SCORE.SYSTEM.CONST>
0

>  <SCORE.SYSTEM.DIHEDRAL>
0

>  <SCORE.SYSTEM.norm>
0

>  <SCORE.heavy>
50

>  <SCORE.norm>
0.792098

$$$$
