FB1.pdb
  RxDock  10092021033D
librxdock.so/0.1.0
 59 58  0  0  0  0  0  0  0  0999 V2000
   -5.4795    1.9842    7.2913 C   0  0  0  0  0  0
   -5.2707    1.6685    5.8121 C   0  0  0  0  0  0
   -3.7786    1.6337    5.4424 C   0  0  0  0  0  0
   -3.4547    0.6726    4.2714 C   0  0  0  0  0  0
   -1.9710    0.1663    4.2222 C   0  0  0  0  0  0
   -1.5559   -0.2604    5.6492 C   0  0  0  0  0  0
   -1.7386   -1.0137    3.1870 C   0  0  0  0  0  0
   -0.5014   -1.9919    3.4674 C   0  0  0  0  0  0
    0.1184   -3.0086    2.4135 C   0  0  0  0  0  0
   -0.8212   -4.3206    2.0712 C   0  0  0  0  0  0
   -1.0308   -4.3859    0.5593 C   0  0  0  0  0  0
   -0.2836   -5.7271    2.5980 C   0  0  0  0  0  0
   -1.0605   -7.1313    2.3902 C   0  0  0  0  0  0
   -1.6846   -7.5506    1.0151 C   0  0  0  0  0  0
   -2.2327   -9.0417    0.8554 C   0  0  0  0  0  0
   -1.3448  -10.2728    0.4190 C   0  0  0  0  0  0
   -0.1704  -10.7281    1.3252 C   0  0  0  0  0  0
   -0.5587  -11.3952    2.7012 C   0  0  0  0  0  0
   -1.0625  -10.4480    3.7972 C   0  0  0  0  0  0
   -1.8143  -11.0607    5.0129 C   0  0  0  0  0  0
   -1.1317  -12.1413    5.9027 C   0  0  0  0  0  0
   -1.9649  -12.7018    7.0469 C   0  0  0  0  0  0
   -0.5737  -13.2277    5.0752 N   0  0  0  0  0  0
   -2.0529   -9.9390    5.9009 O   0  0  0  0  0  0
   -1.5705  -12.3756    2.4468 O   0  0  0  0  0  0
   -0.0809   -8.1423    2.6815 O   0  0  0  0  0  0
    0.6138   -1.1392    3.8435 O   0  0  0  0  0  0
    1.0365   -0.2344    2.9226 C   0  0  0  0  0  0
    0.4386    0.1031    1.9186 O   0  0  0  0  0  0
    2.3305    0.3635    3.4019 C   0  0  0  0  0  0
    2.3167    1.9002    3.3742 C   0  0  0  0  0  0
    1.8934    2.5094    4.7170 C   0  0  0  0  0  0
    1.3284    3.8985    4.5314 C   0  0  0  0  0  0
    0.4146    4.3552    5.2097 O   0  0  0  0  0  0
    1.9248    4.5912    3.5499 O   0  0  0  0  0  0
    3.7502    2.3287    3.0315 C   0  0  0  0  0  0
    4.1993    2.3071    1.8956 O   0  0  0  0  0  0
    4.4896    2.6838    4.0913 O   0  0  0  0  0  0
   -2.9938   -1.7641    2.9399 O   0  0  0  0  0  0
   -3.2734   -2.1732    1.6466 C   0  0  0  0  0  0
   -2.5336   -2.0014    0.6866 O   0  0  0  0  0  0
   -4.6320   -2.8781    1.5381 C   0  0  0  0  0  0
   -5.0894   -3.6659    2.8048 C   0  0  0  0  0  0
   -6.4969   -3.3852    3.3621 C   0  0  0  0  0  0
   -7.4327   -2.8185    2.3337 C   0  0  0  0  0  0
   -8.2996   -3.4422    1.7370 O   0  0  0  0  0  0
   -7.2386   -1.5064    2.1309 O   0  0  0  0  0  0
   -4.9403   -5.1886    2.6971 C   0  0  0  0  0  0
   -4.0336   -5.8021    3.2247 O   0  0  0  0  0  0
   -5.9467   -5.8259    2.0630 O   0  0  0  0  0  0
   -1.3360  -13.7175    4.6087 H   0  0  0  0  0  0
   -0.1516  -13.9248    5.6927 H   0  0  0  0  0  0
   -2.5633  -10.3191    6.6468 H   0  0  0  0  0  0
   -1.1448  -13.1548    2.0441 H   0  0  0  0  0  0
    0.1928   -8.0376    3.6081 H   0  0  0  0  0  0
    2.2678    4.0542    2.8100 H   0  0  0  0  0  0
    5.4171    2.9503    3.8735 H   0  0  0  0  0  0
   -7.9163   -1.2185    1.4835 H   0  0  0  0  0  0
   -5.8928   -6.8073    2.0707 H   0  0  0  0  0  0
  1  2  1  0  0  0
  2  3  1  0  0  0
  3  4  1  0  0  0
  4  5  1  0  0  0
  5  6  1  0  0  0
  5  7  1  0  0  0
  7  8  1  0  0  0
  7 39  1  0  0  0
  8  9  1  0  0  0
  8 27  1  0  0  0
  9 10  1  0  0  0
 10 11  1  0  0  0
 10 12  1  0  0  0
 12 13  1  0  0  0
 13 14  1  0  0  0
 13 26  1  0  0  0
 14 15  1  0  0  0
 15 16  1  0  0  0
 16 17  1  0  0  0
 17 18  1  0  0  0
 18 19  1  0  0  0
 18 25  1  0  0  0
 19 20  1  0  0  0
 20 21  1  0  0  0
 20 24  1  0  0  0
 21 22  1  0  0  0
 21 23  1  0  0  0
 23 51  1  0  0  0
 23 52  1  0  0  0
 24 53  1  0  0  0
 25 54  1  0  0  0
 26 55  1  0  0  0
 27 28  1  0  0  0
 28 29  2  0  0  0
 28 30  1  0  0  0
 30 31  1  0  0  0
 31 32  1  0  0  0
 31 36  1  0  0  0
 32 33  1  0  0  0
 33 34  2  0  0  0
 33 35  1  0  0  0
 35 56  1  0  0  0
 36 37  2  0  0  0
 36 38  1  0  0  0
 38 57  1  0  0  0
 39 40  1  0  0  0
 40 41  2  0  0  0
 40 42  1  0  0  0
 42 43  1  0  0  0
 43 44  1  0  0  0
 43 48  1  0  0  0
 44 45  1  0  0  0
 45 46  2  0  0  0
 45 47  1  0  0  0
 47 58  1  0  0  0
 48 49  2  0  0  0
 48 50  1  0  0  0
 50 59  1  0  0  0
M  END
>  <AUTHOR>
    GENERATED BY OPEN BABEL 2.4.1

>  <CHROM.1>
150.51311432,-156.86443516,45.55433697,-155.08902696,-164.98883639,139.90768518
-71.54281943,-61.20271994,125.20911924,179.03796438,45.63366107,170.87897759
62.05477630,-86.86943132,63.45462156,69.69616440,-74.77875023,163.61483745
75.52218596,57.71035681,-178.54205522,177.44844098,-65.02573527,14.16423276
-129.21907818,93.50050536,-155.90798202,78.96123345,145.21337511,30.62071297
179.32544459,2.68002111,-30.87853880,128.59714113,23.09959029,102.30785239
101.61273077,-177.29250743,-174.35983707,-1.62634134,-3.57589786,3.26997358
1.40113132,-0.01647787,0.03853576

>  <COMPND>
    UNNAMED

>  <MASTER>
        0    0    0    0    0    0    0    0  109    0  109    0

>  <Name>
FB1.pdb

>  <RI>
0

>  <Rbt.Current_Directory>
/home/fc/tossine/F10/p3/1_clust04

>  <Rbt.Executable>
rbdock/0.1.0

>  <Rbt.Library>
librxdock.so/0.1.0

>  <Rbt.Parameter_File>
/cluster/rxdock/data/scripts/dock.prm

>  <Rbt.Receptor>
rx_3.prm

>  <SCORE>
32.9775

>  <SCORE.INTER>
14.7119

>  <SCORE.INTER.CONST>
1

>  <SCORE.INTER.POLAR>
-1.43895

>  <SCORE.INTER.REPUL>
1.7298

>  <SCORE.INTER.ROT>
32

>  <SCORE.INTER.VDW>
-26.4447

>  <SCORE.INTER.norm>
0.294238

>  <SCORE.INTRA>
16.0863

>  <SCORE.INTRA.DIHEDRAL>
13.4726

>  <SCORE.INTRA.DIHEDRAL.0>
47.3121

>  <SCORE.INTRA.POLAR>
1.47808

>  <SCORE.INTRA.POLAR.0>
-1.47808

>  <SCORE.INTRA.REPUL>
0.000188507

>  <SCORE.INTRA.REPUL.0>
0

>  <SCORE.INTRA.VDW>
4.32362

>  <SCORE.INTRA.VDW.0>
-2.78316

>  <SCORE.INTRA.norm>
0.321726

>  <SCORE.RESTR>
2.17929

>  <SCORE.RESTR.CAVITY>
2.17929

>  <SCORE.RESTR.norm>
0.0435857

>  <SCORE.SYSTEM>
0

>  <SCORE.SYSTEM.CONST>
0

>  <SCORE.SYSTEM.DIHEDRAL>
0

>  <SCORE.SYSTEM.norm>
0

>  <SCORE.heavy>
50

>  <SCORE.norm>
0.65955

$$$$
