FB1.pdb
  RxDock  10092019073D
librxdock.so/0.1.0
 59 58  0  0  0  0  0  0  0  0999 V2000
   -0.8608  -10.2904    3.7367 C   0  0  0  0  0  0
   -0.6514   -8.7804    3.6502 C   0  0  0  0  0  0
   -1.3316   -8.0435    4.8158 C   0  0  0  0  0  0
   -1.1964   -6.5024    4.7350 C   0  0  0  0  0  0
   -2.0080   -5.8270    3.5751 C   0  0  0  0  0  0
   -3.4874   -5.7251    4.0130 C   0  0  0  0  0  0
   -1.4428   -4.4064    3.1504 C   0  0  0  0  0  0
   -1.9274   -3.8251    1.7386 C   0  0  0  0  0  0
   -1.4470   -4.3534    0.3179 C   0  0  0  0  0  0
    0.1589   -4.1473    0.0014 C   0  0  0  0  0  0
    0.5270   -2.6925    0.2884 C   0  0  0  0  0  0
    1.1589   -5.1158    0.7803 C   0  0  0  0  0  0
    0.7364   -6.5508    1.3974 C   0  0  0  0  0  0
    0.3548   -7.7739    0.4950 C   0  0  0  0  0  0
   -1.1496   -7.8897   -0.0272 C   0  0  0  0  0  0
   -2.3987   -8.1331    0.9082 C   0  0  0  0  0  0
   -3.4852   -7.0326    1.0347 C   0  0  0  0  0  0
   -4.8904   -7.4889    1.5882 C   0  0  0  0  0  0
   -5.6858   -8.4591    0.7058 C   0  0  0  0  0  0
   -7.2318   -8.5036    0.8667 C   0  0  0  0  0  0
   -8.1277   -9.1008   -0.2585 C   0  0  0  0  0  0
   -9.5606   -8.5911   -0.3259 C   0  0  0  0  0  0
   -7.4659   -8.9887   -1.5722 N   0  0  0  0  0  0
   -7.4572   -9.3563    2.0183 O   0  0  0  0  0  0
   -4.6843   -8.1010    2.8659 O   0  0  0  0  0  0
    1.8836   -6.9822    2.1487 O   0  0  0  0  0  0
   -3.3723   -3.9792    1.7100 O   0  0  0  0  0  0
   -4.1157   -2.8838    2.0144 C   0  0  0  0  0  0
   -3.7016   -1.8414    2.4849 O   0  0  0  0  0  0
   -5.5327   -3.1337    1.5772 C   0  0  0  0  0  0
   -6.5438   -2.2400    2.3130 C   0  0  0  0  0  0
   -7.9838   -2.4608    1.8321 C   0  0  0  0  0  0
   -8.9731   -1.7591    2.7334 C   0  0  0  0  0  0
   -9.2714   -0.5750    2.6213 O   0  0  0  0  0  0
   -9.4998   -2.5581    3.6731 O   0  0  0  0  0  0
   -6.4249   -2.6038    3.7995 C   0  0  0  0  0  0
   -6.5918   -1.7948    4.6995 O   0  0  0  0  0  0
   -6.0728   -3.8760    4.0310 O   0  0  0  0  0  0
   -1.6062   -3.4168    4.2430 O   0  0  0  0  0  0
   -1.1985   -2.1126    4.0173 C   0  0  0  0  0  0
   -0.6879   -1.7124    2.9792 O   0  0  0  0  0  0
   -1.4580   -1.2025    5.2251 C   0  0  0  0  0  0
   -1.2000    0.3190    4.9946 C   0  0  0  0  0  0
   -2.2269    1.3198    5.5549 C   0  0  0  0  0  0
   -3.3417    1.6164    4.5938 C   0  0  0  0  0  0
   -4.5102    1.2813    4.7309 O   0  0  0  0  0  0
   -2.9296    2.3285    3.5338 O   0  0  0  0  0  0
    0.1886    0.8034    5.4299 C   0  0  0  0  0  0
    0.3994    1.3190    6.5099 O   0  0  0  0  0  0
    1.1944    0.5233    4.5747 O   0  0  0  0  0  0
   -7.8436   -9.6986   -2.1982 H   0  0  0  0  0  0
   -6.4789   -9.2323   -1.4626 H   0  0  0  0  0  0
   -7.6515   -8.7347    2.7512 H   0  0  0  0  0  0
   -4.1289   -8.8920    2.7382 H   0  0  0  0  0  0
    2.1308   -6.2664    2.7577 H   0  0  0  0  0  0
  -10.1775   -2.1433    4.2406 H   0  0  0  0  0  0
   -6.6732   -4.5483    3.6231 H   0  0  0  0  0  0
   -1.9573    2.2144    3.4791 H   0  0  0  0  0  0
    2.0902    0.7902    4.8787 H   0  0  0  0  0  0
  1  2  1  0  0  0
  2  3  1  0  0  0
  3  4  1  0  0  0
  4  5  1  0  0  0
  5  6  1  0  0  0
  5  7  1  0  0  0
  7  8  1  0  0  0
  7 39  1  0  0  0
  8  9  1  0  0  0
  8 27  1  0  0  0
  9 10  1  0  0  0
 10 11  1  0  0  0
 10 12  1  0  0  0
 12 13  1  0  0  0
 13 14  1  0  0  0
 13 26  1  0  0  0
 14 15  1  0  0  0
 15 16  1  0  0  0
 16 17  1  0  0  0
 17 18  1  0  0  0
 18 19  1  0  0  0
 18 25  1  0  0  0
 19 20  1  0  0  0
 20 21  1  0  0  0
 20 24  1  0  0  0
 21 22  1  0  0  0
 21 23  1  0  0  0
 23 51  1  0  0  0
 23 52  1  0  0  0
 24 53  1  0  0  0
 25 54  1  0  0  0
 26 55  1  0  0  0
 27 28  1  0  0  0
 28 29  2  0  0  0
 28 30  1  0  0  0
 30 31  1  0  0  0
 31 32  1  0  0  0
 31 36  1  0  0  0
 32 33  1  0  0  0
 33 34  2  0  0  0
 33 35  1  0  0  0
 35 56  1  0  0  0
 36 37  2  0  0  0
 36 38  1  0  0  0
 38 57  1  0  0  0
 39 40  1  0  0  0
 40 41  2  0  0  0
 40 42  1  0  0  0
 42 43  1  0  0  0
 43 44  1  0  0  0
 43 48  1  0  0  0
 44 45  1  0  0  0
 45 46  2  0  0  0
 45 47  1  0  0  0
 47 58  1  0  0  0
 48 49  2  0  0  0
 48 50  1  0  0  0
 50 59  1  0  0  0
M  END
>  <AUTHOR>
    GENERATED BY OPEN BABEL 2.4.1

>  <CHROM.1>
-177.51858070,69.33115726,78.94211607,163.49982511,-73.14297665,-178.08215117
-64.05448646,98.99787233,-50.51958353,22.74620161,68.10405318,-84.69642539
52.44495507,-66.08150525,115.03624859,161.11130590,-65.65951858,-155.81784053
-62.66208862,160.67820004,-154.38880443,101.86555593,156.14864363,-10.84355754
158.44556790,178.01014572,169.84821769,147.25808664,83.97732645,-176.93315995
-56.60495612,-1.19535350,-172.42367615,136.92796501,-88.65196921,-96.40897974
111.33019284,19.72093958,-176.74368691,-3.36651091,-4.22300579,2.66932730
-1.94004696,-0.09809863,0.34055909

>  <COMPND>
    UNNAMED

>  <MASTER>
        0    0    0    0    0    0    0    0  109    0  109    0

>  <Name>
FB1.pdb

>  <RI>
0

>  <Rbt.Current_Directory>
/home/fc/tossine/F10/p3/1_clust04

>  <Rbt.Executable>
rbdock/0.1.0

>  <Rbt.Library>
librxdock.so/0.1.0

>  <Rbt.Parameter_File>
/cluster/rxdock/data/scripts/dock.prm

>  <Rbt.Receptor>
rx_1.prm

>  <SCORE>
27.5341

>  <SCORE.INTER>
11.2232

>  <SCORE.INTER.CONST>
1

>  <SCORE.INTER.POLAR>
-1.30012

>  <SCORE.INTER.REPUL>
1.70682

>  <SCORE.INTER.ROT>
32

>  <SCORE.INTER.VDW>
-30.2904

>  <SCORE.INTER.norm>
0.224465

>  <SCORE.INTRA>
13.3779

>  <SCORE.INTRA.DIHEDRAL>
25.9655

>  <SCORE.INTRA.DIHEDRAL.0>
47.3121

>  <SCORE.INTRA.POLAR>
1.47808

>  <SCORE.INTRA.POLAR.0>
-1.47808

>  <SCORE.INTRA.REPUL>
0

>  <SCORE.INTRA.REPUL.0>
0

>  <SCORE.INTRA.VDW>
-4.63035

>  <SCORE.INTRA.VDW.0>
-2.78316

>  <SCORE.INTRA.norm>
0.267558

>  <SCORE.RESTR>
2.93302

>  <SCORE.RESTR.CAVITY>
2.93302

>  <SCORE.RESTR.norm>
0.0586603

>  <SCORE.SYSTEM>
0

>  <SCORE.SYSTEM.CONST>
0

>  <SCORE.SYSTEM.DIHEDRAL>
0

>  <SCORE.SYSTEM.norm>
0

>  <SCORE.heavy>
50

>  <SCORE.norm>
0.550683

$$$$
