FB1.pdb
  RxDock  10092018133D
librxdock.so/0.1.0
 59 58  0  0  0  0  0  0  0  0999 V2000
   -6.8977    8.5404    0.4497 C   0  0  0  0  0  0
   -5.6634    7.7860    0.9383 C   0  0  0  0  0  0
   -6.0423    6.5842    1.8195 C   0  0  0  0  0  0
   -4.9833    6.2528    2.9005 C   0  0  0  0  0  0
   -5.1792    4.8711    3.6167 C   0  0  0  0  0  0
   -5.0065    3.7505    2.5655 C   0  0  0  0  0  0
   -4.2009    4.6511    4.8465 C   0  0  0  0  0  0
   -3.9230    3.1374    5.2910 C   0  0  0  0  0  0
   -2.5048    2.5521    5.7088 C   0  0  0  0  0  0
   -1.9640    1.2999    4.7809 C   0  0  0  0  0  0
   -1.8808    1.7718    3.3302 C   0  0  0  0  0  0
   -0.5711    0.6542    5.2141 C   0  0  0  0  0  0
    0.0218   -0.7208    4.6005 C   0  0  0  0  0  0
   -0.7345   -2.0883    4.7185 C   0  0  0  0  0  0
    0.0087   -3.4103    4.2195 C   0  0  0  0  0  0
   -0.5742   -4.8700    4.3753 C   0  0  0  0  0  0
   -0.6927   -5.7833    3.1265 C   0  0  0  0  0  0
   -1.5593   -5.2320    1.9289 C   0  0  0  0  0  0
   -2.5062   -4.0700    2.2540 C   0  0  0  0  0  0
   -3.9645   -4.4040    2.6784 C   0  0  0  0  0  0
   -5.1240   -3.4090    2.3767 C   0  0  0  0  0  0
   -6.4889   -3.7657    2.9487 C   0  0  0  0  0  0
   -4.7429   -2.0314    2.7420 N   0  0  0  0  0  0
   -4.2976   -5.6048    1.9362 O   0  0  0  0  0  0
   -0.6648   -4.8133    0.8924 O   0  0  0  0  0  0
    0.1366   -0.4761    3.1886 O   0  0  0  0  0  0
   -4.7685    2.8916    6.4474 O   0  0  0  0  0  0
   -4.8007    1.6220    6.9294 C   0  0  0  0  0  0
   -3.8390    0.9070    7.1376 O   0  0  0  0  0  0
   -6.2255    1.2754    7.2627 C   0  0  0  0  0  0
   -6.6193   -0.1301    6.7810 C   0  0  0  0  0  0
   -7.7356   -0.7519    7.6299 C   0  0  0  0  0  0
   -7.2448   -1.0785    9.0213 C   0  0  0  0  0  0
   -7.9900   -1.2647    9.9771 O   0  0  0  0  0  0
   -5.9085   -1.1479    9.1139 O   0  0  0  0  0  0
   -7.0939    0.0384    5.3311 C   0  0  0  0  0  0
   -6.7080   -0.6730    4.4160 O   0  0  0  0  0  0
   -7.9328    1.0658    5.1397 O   0  0  0  0  0  0
   -2.9431    5.4180    4.6741 O   0  0  0  0  0  0
   -2.1113    5.5750    5.7702 C   0  0  0  0  0  0
   -2.4940    5.6402    6.9311 O   0  0  0  0  0  0
   -0.6317    5.6598    5.3729 C   0  0  0  0  0  0
    0.1850    6.8076    6.0437 C   0  0  0  0  0  0
   -0.2676    8.2581    5.7953 C   0  0  0  0  0  0
   -0.3382    8.6090    4.3371 C   0  0  0  0  0  0
   -0.0398    7.8689    3.4098 O   0  0  0  0  0  0
   -0.7949    9.8536    4.1303 O   0  0  0  0  0  0
    0.3852    6.6483    7.5559 C   0  0  0  0  0  0
   -0.4536    6.1564    8.2847 O   0  0  0  0  0  0
    1.6050    6.9938    8.0185 O   0  0  0  0  0  0
   -4.1634   -2.0562    3.5799 H   0  0  0  0  0  0
   -5.5850   -1.5221    3.0190 H   0  0  0  0  0  0
   -4.7641   -5.2797    1.1375 H   0  0  0  0  0  0
    0.0217   -4.2486    1.2929 H   0  0  0  0  0  0
    0.8204    0.2016    3.0555 H   0  0  0  0  0  0
   -5.5641   -1.3908    9.9947 H   0  0  0  0  0  0
   -8.1476    1.2487    4.1914 H   0  0  0  0  0  0
   -0.8221    9.9854    3.1591 H   0  0  0  0  0  0
    1.7468    6.8452    8.9797 H   0  0  0  0  0  0
  1  2  1  0  0  0
  2  3  1  0  0  0
  3  4  1  0  0  0
  4  5  1  0  0  0
  5  6  1  0  0  0
  5  7  1  0  0  0
  7  8  1  0  0  0
  7 39  1  0  0  0
  8  9  1  0  0  0
  8 27  1  0  0  0
  9 10  1  0  0  0
 10 11  1  0  0  0
 10 12  1  0  0  0
 12 13  1  0  0  0
 13 14  1  0  0  0
 13 26  1  0  0  0
 14 15  1  0  0  0
 15 16  1  0  0  0
 16 17  1  0  0  0
 17 18  1  0  0  0
 18 19  1  0  0  0
 18 25  1  0  0  0
 19 20  1  0  0  0
 20 21  1  0  0  0
 20 24  1  0  0  0
 21 22  1  0  0  0
 21 23  1  0  0  0
 23 51  1  0  0  0
 23 52  1  0  0  0
 24 53  1  0  0  0
 25 54  1  0  0  0
 26 55  1  0  0  0
 27 28  1  0  0  0
 28 29  2  0  0  0
 28 30  1  0  0  0
 30 31  1  0  0  0
 31 32  1  0  0  0
 31 36  1  0  0  0
 32 33  1  0  0  0
 33 34  2  0  0  0
 33 35  1  0  0  0
 35 56  1  0  0  0
 36 37  2  0  0  0
 36 38  1  0  0  0
 38 57  1  0  0  0
 39 40  1  0  0  0
 40 41  2  0  0  0
 40 42  1  0  0  0
 42 43  1  0  0  0
 43 44  1  0  0  0
 43 48  1  0  0  0
 44 45  1  0  0  0
 45 46  2  0  0  0
 45 47  1  0  0  0
 47 58  1  0  0  0
 48 49  2  0  0  0
 48 50  1  0  0  0
 50 59  1  0  0  0
M  END
>  <AUTHOR>
    GENERATED BY OPEN BABEL 2.4.1

>  <CHROM.1>
-149.49527212,-167.80064596,64.14020375,-157.75612215,138.23824031,166.10311280
-120.33552449,173.88614208,58.45978192,169.68853596,-60.09516256,-173.48048734
66.77823010,175.04801239,126.32376197,-57.73880926,-16.86535073,-91.66149931
-49.04263235,-150.75507354,-174.34653869,-95.45129537,-35.91510015,46.67912455
135.80748472,152.77336847,-68.72133871,131.73410948,161.20850964,-177.78343836
172.46788396,-31.21608831,133.44072081,-60.33218908,-56.05816294,-34.77211878
-2.09492571,-178.95428208,-176.84240153,-3.29118480,1.73865170,4.77000207
1.41432933,0.25709201,0.12956669

>  <COMPND>
    UNNAMED

>  <MASTER>
        0    0    0    0    0    0    0    0  109    0  109    0

>  <Name>
FB1.pdb

>  <RI>
0

>  <Rbt.Current_Directory>
/home/fc/tossine/F10/p3/1_clust04

>  <Rbt.Executable>
rbdock/0.1.0

>  <Rbt.Library>
librxdock.so/0.1.0

>  <Rbt.Parameter_File>
/cluster/rxdock/data/scripts/dock.prm

>  <Rbt.Receptor>
rx_0.prm

>  <SCORE>
20.9078

>  <SCORE.INTER>
-0.414143

>  <SCORE.INTER.CONST>
1

>  <SCORE.INTER.POLAR>
-1.11011

>  <SCORE.INTER.REPUL>
0.444376

>  <SCORE.INTER.ROT>
32

>  <SCORE.INTER.VDW>
-36.2617

>  <SCORE.INTER.norm>
-0.00828286

>  <SCORE.INTRA>
20.1372

>  <SCORE.INTRA.DIHEDRAL>
27.4895

>  <SCORE.INTRA.DIHEDRAL.0>
47.3121

>  <SCORE.INTRA.POLAR>
0.478077

>  <SCORE.INTRA.POLAR.0>
-1.47808

>  <SCORE.INTRA.REPUL>
0

>  <SCORE.INTRA.REPUL.0>
0

>  <SCORE.INTRA.VDW>
4.76696

>  <SCORE.INTRA.VDW.0>
-2.78316

>  <SCORE.INTRA.norm>
0.402743

>  <SCORE.RESTR>
1.1848

>  <SCORE.RESTR.CAVITY>
1.1848

>  <SCORE.RESTR.norm>
0.0236959

>  <SCORE.SYSTEM>
0

>  <SCORE.SYSTEM.CONST>
0

>  <SCORE.SYSTEM.DIHEDRAL>
0

>  <SCORE.SYSTEM.norm>
0

>  <SCORE.heavy>
50

>  <SCORE.norm>
0.418156

$$$$
