FB1.pdb
  RxDock  10092021533D
librxdock.so/0.1.0
 59 58  0  0  0  0  0  0  0  0999 V2000
  -10.0034    1.4690    3.3966 C   0  0  0  0  0  0
   -9.7608    1.6492    1.8999 C   0  0  0  0  0  0
  -10.0116    0.3470    1.1216 C   0  0  0  0  0  0
   -8.8072   -0.6269    1.1430 C   0  0  0  0  0  0
   -9.1730   -2.1253    1.4286 C   0  0  0  0  0  0
   -8.8968   -2.9453    0.1472 C   0  0  0  0  0  0
   -8.4022   -2.7393    2.6724 C   0  0  0  0  0  0
   -6.8518   -2.3653    2.8221 C   0  0  0  0  0  0
   -6.2782   -1.1807    3.7142 C   0  0  0  0  0  0
   -7.3851   -0.4378    4.6860 C   0  0  0  0  0  0
   -7.7115   -1.3708    5.8509 C   0  0  0  0  0  0
   -6.9754    0.9975    5.2489 C   0  0  0  0  0  0
   -5.8567    1.2382    6.3931 C   0  0  0  0  0  0
   -4.9162    2.4918    6.3981 C   0  0  0  0  0  0
   -4.3587    3.0258    5.0005 C   0  0  0  0  0  0
   -3.7372    2.1021    3.8802 C   0  0  0  0  0  0
   -2.4029    1.3594    4.1548 C   0  0  0  0  0  0
   -1.1550    1.8123    3.3022 C   0  0  0  0  0  0
    0.1294    0.9954    3.4910 C   0  0  0  0  0  0
    1.3106    1.2415    2.5099 C   0  0  0  0  0  0
    2.3952    2.3122    2.8299 C   0  0  0  0  0  0
    3.1234    2.1629    4.1584 C   0  0  0  0  0  0
    3.3529    2.4396    1.7150 N   0  0  0  0  0  0
    2.0268   -0.0193    2.4734 O   0  0  0  0  0  0
   -1.5243    1.7660    1.9198 O   0  0  0  0  0  0
   -6.5973    1.3199    7.6226 O   0  0  0  0  0  0
   -6.1948   -3.5548    3.3379 O   0  0  0  0  0  0
   -6.0535   -4.6011    2.4832 C   0  0  0  0  0  0
   -6.6789   -4.7801    1.4555 O   0  0  0  0  0  0
   -4.9168   -5.4594    2.9655 C   0  0  0  0  0  0
   -4.6073   -6.6216    2.0084 C   0  0  0  0  0  0
   -3.2184   -7.2274    2.2478 C   0  0  0  0  0  0
   -2.1289   -6.2142    1.9839 C   0  0  0  0  0  0
   -1.5658   -5.5779    2.8681 O   0  0  0  0  0  0
   -1.8316   -6.0757    0.6834 O   0  0  0  0  0  0
   -5.6919   -7.6776    2.2625 C   0  0  0  0  0  0
   -5.5311   -8.6331    3.0065 O   0  0  0  0  0  0
   -6.8186   -7.4932    1.5607 O   0  0  0  0  0  0
   -9.1514   -2.5117    3.9321 O   0  0  0  0  0  0
  -10.0871   -3.4554    4.3221 C   0  0  0  0  0  0
  -10.4417   -4.4077    3.6397 O   0  0  0  0  0  0
  -10.6442   -3.1800    5.7250 C   0  0  0  0  0  0
  -11.9395   -2.3119    5.7811 C   0  0  0  0  0  0
  -12.5145   -1.9592    7.1650 C   0  0  0  0  0  0
  -12.0930   -2.9214    8.2379 C   0  0  0  0  0  0
  -11.4078   -2.6469    9.2135 O   0  0  0  0  0  0
  -12.5700   -4.1588    8.0338 O   0  0  0  0  0  0
  -11.8695   -1.0094    4.9743 C   0  0  0  0  0  0
  -12.1334   -0.9515    3.7896 O   0  0  0  0  0  0
  -11.5970    0.1017    5.6903 O   0  0  0  0  0  0
    3.9669    1.6263    1.7075 H   0  0  0  0  0  0
    3.9695    3.2334    1.9031 H   0  0  0  0  0  0
    1.3621   -0.6718    2.1673 H   0  0  0  0  0  0
   -2.0248    0.9436    1.7660 H   0  0  0  0  0  0
   -7.0243    0.4601    7.7741 H   0  0  0  0  0  0
   -1.1573   -5.3994    0.4799 H   0  0  0  0  0  0
   -6.7943   -6.7222    0.9412 H   0  0  0  0  0  0
  -13.1923   -4.0993    7.2784 H   0  0  0  0  0  0
  -11.6958    0.9496    5.2031 H   0  0  0  0  0  0
  1  2  1  0  0  0
  2  3  1  0  0  0
  3  4  1  0  0  0
  4  5  1  0  0  0
  5  6  1  0  0  0
  5  7  1  0  0  0
  7  8  1  0  0  0
  7 39  1  0  0  0
  8  9  1  0  0  0
  8 27  1  0  0  0
  9 10  1  0  0  0
 10 11  1  0  0  0
 10 12  1  0  0  0
 12 13  1  0  0  0
 13 14  1  0  0  0
 13 26  1  0  0  0
 14 15  1  0  0  0
 15 16  1  0  0  0
 16 17  1  0  0  0
 17 18  1  0  0  0
 18 19  1  0  0  0
 18 25  1  0  0  0
 19 20  1  0  0  0
 20 21  1  0  0  0
 20 24  1  0  0  0
 21 22  1  0  0  0
 21 23  1  0  0  0
 23 51  1  0  0  0
 23 52  1  0  0  0
 24 53  1  0  0  0
 25 54  1  0  0  0
 26 55  1  0  0  0
 27 28  1  0  0  0
 28 29  2  0  0  0
 28 30  1  0  0  0
 30 31  1  0  0  0
 31 32  1  0  0  0
 31 36  1  0  0  0
 32 33  1  0  0  0
 33 34  2  0  0  0
 33 35  1  0  0  0
 35 56  1  0  0  0
 36 37  2  0  0  0
 36 38  1  0  0  0
 38 57  1  0  0  0
 39 40  1  0  0  0
 40 41  2  0  0  0
 40 42  1  0  0  0
 42 43  1  0  0  0
 43 44  1  0  0  0
 43 48  1  0  0  0
 44 45  1  0  0  0
 45 46  2  0  0  0
 45 47  1  0  0  0
 47 58  1  0  0  0
 48 49  2  0  0  0
 48 50  1  0  0  0
 50 59  1  0  0  0
M  END
>  <AUTHOR>
    GENERATED BY OPEN BABEL 2.4.1

>  <CHROM.1>
-82.45828672,134.87407825,112.42930371,-41.47334063,95.19420318,88.91367439
8.12189725,71.96206972,73.84725666,-72.17322960,145.25171512,-38.44082921
63.87568211,-46.51507575,-66.05611022,-113.17257868,-174.91806659,169.88482257
-43.16903749,90.10654000,56.21465046,58.65387017,-73.72414034,-18.70038312
-175.88767767,162.33998419,-62.96171232,-96.32076659,99.17090876,177.49198121
2.38502128,-7.47322164,91.83335469,-177.76689305,-23.10743096,85.93166837
116.29108333,-7.65733122,-170.49433615,-6.17813843,-1.77642932,3.74625232
2.97421099,-0.26897327,-2.82771286

>  <COMPND>
    UNNAMED

>  <MASTER>
        0    0    0    0    0    0    0    0  109    0  109    0

>  <Name>
FB1.pdb

>  <RI>
0

>  <Rbt.Current_Directory>
/home/fc/tossine/F10/p3/1_clust04

>  <Rbt.Executable>
rbdock/0.1.0

>  <Rbt.Library>
librxdock.so/0.1.0

>  <Rbt.Parameter_File>
/cluster/rxdock/data/scripts/dock.prm

>  <Rbt.Receptor>
rx_4.prm

>  <SCORE>
20.5205

>  <SCORE.INTER>
3.1296

>  <SCORE.INTER.CONST>
1

>  <SCORE.INTER.POLAR>
-1.69072

>  <SCORE.INTER.REPUL>
0.0866553

>  <SCORE.INTER.ROT>
32

>  <SCORE.INTER.VDW>
-28.9552

>  <SCORE.INTER.norm>
0.0625921

>  <SCORE.INTRA>
14.2179

>  <SCORE.INTRA.DIHEDRAL>
19.1831

>  <SCORE.INTRA.DIHEDRAL.0>
47.3121

>  <SCORE.INTRA.POLAR>
1.15762

>  <SCORE.INTRA.POLAR.0>
-1.47808

>  <SCORE.INTRA.REPUL>
0

>  <SCORE.INTRA.REPUL.0>
0

>  <SCORE.INTRA.VDW>
0.690444

>  <SCORE.INTRA.VDW.0>
-2.78316

>  <SCORE.INTRA.norm>
0.284358

>  <SCORE.RESTR>
3.17298

>  <SCORE.RESTR.CAVITY>
3.17298

>  <SCORE.RESTR.norm>
0.0634596

>  <SCORE.SYSTEM>
0

>  <SCORE.SYSTEM.CONST>
0

>  <SCORE.SYSTEM.DIHEDRAL>
0

>  <SCORE.SYSTEM.norm>
0

>  <SCORE.heavy>
50

>  <SCORE.norm>
0.410409

$$$$
