FB1.pdb
  RxDock  10092020113D
librxdock.so/0.1.0
 59 58  0  0  0  0  0  0  0  0999 V2000
   -3.5505   -2.8075    1.2331 C   0  0  0  0  0  0
   -4.0058   -2.4073    2.6345 C   0  0  0  0  0  0
   -2.9164   -1.6236    3.3851 C   0  0  0  0  0  0
   -3.2354   -0.1155    3.5386 C   0  0  0  0  0  0
   -1.9976    0.7932    3.8587 C   0  0  0  0  0  0
   -2.3106    2.2280    3.3749 C   0  0  0  0  0  0
   -1.5878    0.7880    5.3916 C   0  0  0  0  0  0
   -0.0478    0.5050    5.7301 C   0  0  0  0  0  0
    1.0470    0.0275    4.6805 C   0  0  0  0  0  0
    0.7526    0.4614    3.1164 C   0  0  0  0  0  0
    2.0730    0.8818    2.4729 C   0  0  0  0  0  0
    0.0388   -0.6359    2.2047 C   0  0  0  0  0  0
    0.2294   -2.2323    2.3888 C   0  0  0  0  0  0
   -0.3604   -3.0132    3.6129 C   0  0  0  0  0  0
   -0.3864   -4.6084    3.5523 C   0  0  0  0  0  0
    0.8985   -5.5127    3.3908 C   0  0  0  0  0  0
    0.8869   -6.6827    2.3719 C   0  0  0  0  0  0
   -0.2753   -7.7389    2.5236 C   0  0  0  0  0  0
   -0.5810   -8.5948    1.2881 C   0  0  0  0  0  0
   -1.1959   -7.8972    0.0416 C   0  0  0  0  0  0
   -2.6063   -7.2411    0.1173 C   0  0  0  0  0  0
   -3.7333   -8.1167    0.6472 C   0  0  0  0  0  0
   -2.5505   -5.9574    0.8421 N   0  0  0  0  0  0
   -0.2888   -6.8045   -0.2529 O   0  0  0  0  0  0
    0.0588   -8.6104    3.6092 O   0  0  0  0  0  0
   -0.3984   -2.8149    1.2342 O   0  0  0  0  0  0
    0.4852    1.7463    6.2663 O   0  0  0  0  0  0
    0.0763    2.1066    7.5106 C   0  0  0  0  0  0
   -0.6626    1.4702    8.2375 O   0  0  0  0  0  0
    0.7725    3.3848    7.8889 C   0  0  0  0  0  0
    0.0104    4.1763    8.9637 C   0  0  0  0  0  0
    0.8902    5.2238    9.6579 C   0  0  0  0  0  0
    1.7792    4.5851   10.6996 C   0  0  0  0  0  0
    1.5953    3.4596   11.1504 O   0  0  0  0  0  0
    2.7964    5.3687   11.0871 O   0  0  0  0  0  0
   -1.1516    4.8657    8.2354 C   0  0  0  0  0  0
   -1.2810    4.8493    7.0208 O   0  0  0  0  0  0
   -1.9907    5.5325    9.0399 O   0  0  0  0  0  0
   -2.0947    1.9969    6.0855 O   0  0  0  0  0  0
   -3.4618    2.2169    6.1122 C   0  0  0  0  0  0
   -4.2948    1.4877    5.5900 O   0  0  0  0  0  0
   -3.8329    3.4931    6.8790 C   0  0  0  0  0  0
   -4.7645    4.4907    6.1232 C   0  0  0  0  0  0
   -5.4792    5.5781    6.9462 C   0  0  0  0  0  0
   -5.9662    5.0815    8.2768 C   0  0  0  0  0  0
   -7.0790    4.6273    8.5051 O   0  0  0  0  0  0
   -5.0269    5.1659    9.2312 O   0  0  0  0  0  0
   -4.1125    5.1869    4.9222 C   0  0  0  0  0  0
   -2.9226    5.4263    4.8637 O   0  0  0  0  0  0
   -4.9311    5.4253    3.8760 O   0  0  0  0  0  0
   -2.4110   -6.1401    1.8349 H   0  0  0  0  0  0
   -3.4675   -5.5089    0.7831 H   0  0  0  0  0  0
    0.5623   -7.2414   -0.4678 H   0  0  0  0  0  0
    0.9696   -8.9305    3.4731 H   0  0  0  0  0  0
   -0.0762   -3.7275    1.1452 H   0  0  0  0  0  0
    2.5964    6.3238   11.1230 H   0  0  0  0  0  0
   -2.9382    5.5062    8.7565 H   0  0  0  0  0  0
   -5.4802    5.0100   10.0865 H   0  0  0  0  0  0
   -4.4874    5.7508    3.0616 H   0  0  0  0  0  0
  1  2  1  0  0  0
  2  3  1  0  0  0
  3  4  1  0  0  0
  4  5  1  0  0  0
  5  6  1  0  0  0
  5  7  1  0  0  0
  7  8  1  0  0  0
  7 39  1  0  0  0
  8  9  1  0  0  0
  8 27  1  0  0  0
  9 10  1  0  0  0
 10 11  1  0  0  0
 10 12  1  0  0  0
 12 13  1  0  0  0
 13 14  1  0  0  0
 13 26  1  0  0  0
 14 15  1  0  0  0
 15 16  1  0  0  0
 16 17  1  0  0  0
 17 18  1  0  0  0
 18 19  1  0  0  0
 18 25  1  0  0  0
 19 20  1  0  0  0
 20 21  1  0  0  0
 20 24  1  0  0  0
 21 22  1  0  0  0
 21 23  1  0  0  0
 23 51  1  0  0  0
 23 52  1  0  0  0
 24 53  1  0  0  0
 25 54  1  0  0  0
 26 55  1  0  0  0
 27 28  1  0  0  0
 28 29  2  0  0  0
 28 30  1  0  0  0
 30 31  1  0  0  0
 31 32  1  0  0  0
 31 36  1  0  0  0
 32 33  1  0  0  0
 33 34  2  0  0  0
 33 35  1  0  0  0
 35 56  1  0  0  0
 36 37  2  0  0  0
 36 38  1  0  0  0
 38 57  1  0  0  0
 39 40  1  0  0  0
 40 41  2  0  0  0
 40 42  1  0  0  0
 42 43  1  0  0  0
 43 44  1  0  0  0
 43 48  1  0  0  0
 44 45  1  0  0  0
 45 46  2  0  0  0
 45 47  1  0  0  0
 47 58  1  0  0  0
 48 49  2  0  0  0
 48 50  1  0  0  0
 50 59  1  0  0  0
M  END
>  <AUTHOR>
    GENERATED BY OPEN BABEL 2.4.1

>  <CHROM.1>
107.76047248,-160.91617488,155.23108192,129.37428252,-9.26985709,60.11502984
26.58475802,71.62803282,139.78532705,-31.21400362,70.27458650,167.35877835
162.28991434,59.65986480,-134.17077796,-55.02039794,159.93223989,-67.96766218
-50.24173095,-63.81375675,-52.41721507,62.57303949,-72.25921894,2.37579924
156.76481518,162.31992108,-78.91019100,-6.90118036,-16.25096997,35.12052995
-144.87059679,-0.71033338,128.31115855,163.59367414,-39.10061508,-29.97981798
-92.44410889,168.04313087,-171.52910950,-1.54051441,0.18549226,5.00731413
1.48264030,0.42237753,-2.55975133

>  <COMPND>
    UNNAMED

>  <MASTER>
        0    0    0    0    0    0    0    0  109    0  109    0

>  <Name>
FB1.pdb

>  <RI>
0

>  <Rbt.Current_Directory>
/home/fc/tossine/F10/p3/1_clust04

>  <Rbt.Executable>
rbdock/0.1.0

>  <Rbt.Library>
librxdock.so/0.1.0

>  <Rbt.Parameter_File>
/cluster/rxdock/data/scripts/dock.prm

>  <Rbt.Receptor>
rx_2.prm

>  <SCORE>
36.9711

>  <SCORE.INTER>
19.9676

>  <SCORE.INTER.CONST>
1

>  <SCORE.INTER.POLAR>
-2.93509

>  <SCORE.INTER.REPUL>
0.0862033

>  <SCORE.INTER.ROT>
32

>  <SCORE.INTER.VDW>
-7.88405

>  <SCORE.INTER.norm>
0.399353

>  <SCORE.INTRA>
14.6397

>  <SCORE.INTRA.DIHEDRAL>
28.4427

>  <SCORE.INTRA.DIHEDRAL.0>
47.3121

>  <SCORE.INTRA.POLAR>
0.536592

>  <SCORE.INTRA.POLAR.0>
-1.47808

>  <SCORE.INTRA.REPUL>
0.00311065

>  <SCORE.INTRA.REPUL.0>
0

>  <SCORE.INTRA.VDW>
-1.42157

>  <SCORE.INTRA.VDW.0>
-2.78316

>  <SCORE.INTRA.norm>
0.292795

>  <SCORE.RESTR>
2.36374

>  <SCORE.RESTR.CAVITY>
2.36374

>  <SCORE.RESTR.norm>
0.0472747

>  <SCORE.SYSTEM>
0

>  <SCORE.SYSTEM.CONST>
0

>  <SCORE.SYSTEM.DIHEDRAL>
0

>  <SCORE.SYSTEM.norm>
0

>  <SCORE.heavy>
50

>  <SCORE.norm>
0.739422

$$$$
