FB1.pdb
  RxDock  10092021003D
librxdock.so/0.1.0
 59 58  0  0  0  0  0  0  0  0999 V2000
    2.2799    0.3980   -0.5273 C   0  0  0  0  0  0
    2.5187    1.6392    0.3293 C   0  0  0  0  0  0
    2.9103    1.2701    1.7697 C   0  0  0  0  0  0
    1.7931    0.5249    2.5418 C   0  0  0  0  0  0
    0.4495    1.3203    2.6926 C   0  0  0  0  0  0
   -0.4432    1.0012    1.4712 C   0  0  0  0  0  0
   -0.3161    1.0187    4.0493 C   0  0  0  0  0  0
   -1.6898    1.8044    4.2976 C   0  0  0  0  0  0
   -2.6409    1.6093    5.5568 C   0  0  0  0  0  0
   -4.2459    1.8560    5.2660 C   0  0  0  0  0  0
   -4.4065    3.1839    4.5277 C   0  0  0  0  0  0
   -5.0003    0.7027    4.4626 C   0  0  0  0  0  0
   -6.6076    0.5171    4.4362 C   0  0  0  0  0  0
   -7.2901   -0.8933    4.4044 C   0  0  0  0  0  0
   -8.8782   -0.9697    4.5509 C   0  0  0  0  0  0
   -9.7220   -2.2959    4.3969 C   0  0  0  0  0  0
   -9.5976   -3.1348    3.0976 C   0  0  0  0  0  0
   -9.4641   -2.3291    1.7477 C   0  0  0  0  0  0
   -8.9692   -3.1203    0.5304 C   0  0  0  0  0  0
   -8.7764   -2.3616   -0.8133 C   0  0  0  0  0  0
   -9.6025   -2.7593   -2.0722 C   0  0  0  0  0  0
   -9.6165   -4.2379   -2.4341 C   0  0  0  0  0  0
  -10.9745   -2.2232   -1.9914 N   0  0  0  0  0  0
   -9.1679   -0.9954   -0.5236 O   0  0  0  0  0  0
  -10.7457   -1.7716    1.4374 O   0  0  0  0  0  0
   -7.0705    1.1306    5.6511 O   0  0  0  0  0  0
   -1.3516    3.2178    4.3178 O   0  0  0  0  0  0
   -0.3256    3.5951    5.1242 C   0  0  0  0  0  0
    0.1178    2.9662    6.0661 O   0  0  0  0  0  0
    0.2456    4.8824    4.5969 C   0  0  0  0  0  0
    0.1638    6.0271    5.6194 C   0  0  0  0  0  0
    0.9575    7.2649    5.1821 C   0  0  0  0  0  0
    0.2732    7.9747    4.0370 C   0  0  0  0  0  0
   -0.4961    8.9178    4.1863 O   0  0  0  0  0  0
    0.5891    7.4747    2.8332 O   0  0  0  0  0  0
   -1.3259    6.3755    5.7443 C   0  0  0  0  0  0
   -2.2020    5.7886    5.1275 O   0  0  0  0  0  0
   -1.5853    7.4134    6.5513 O   0  0  0  0  0  0
   -0.4652   -0.4409    4.2669 O   0  0  0  0  0  0
   -1.0757   -1.1955    3.2791 C   0  0  0  0  0  0
   -1.4058   -0.7683    2.1805 O   0  0  0  0  0  0
   -1.3000   -2.6507    3.7108 C   0  0  0  0  0  0
   -1.8166   -3.6153    2.5985 C   0  0  0  0  0  0
   -2.1330   -5.0698    2.9921 C   0  0  0  0  0  0
   -1.0320   -5.7164    3.7822 C   0  0  0  0  0  0
    0.1246   -5.3234    3.8480 O   0  0  0  0  0  0
   -1.4506   -6.7998    4.4540 O   0  0  0  0  0  0
   -3.0195   -3.0887    1.8061 C   0  0  0  0  0  0
   -3.7039   -2.1587    2.1850 O   0  0  0  0  0  0
   -3.2108   -3.6573    0.5972 O   0  0  0  0  0  0
  -11.4416   -2.6219   -1.1782 H   0  0  0  0  0  0
  -11.5067   -2.5651   -2.7948 H   0  0  0  0  0  0
   -8.9428   -0.4965   -1.3371 H   0  0  0  0  0  0
  -11.1073   -1.3701    2.2489 H   0  0  0  0  0  0
   -6.7359    0.6074    6.3986 H   0  0  0  0  0  0
    1.3002    6.8056    2.8335 H   0  0  0  0  0  0
   -0.7885    7.7977    6.9941 H   0  0  0  0  0  0
   -0.6643   -7.1710    4.9071 H   0  0  0  0  0  0
   -4.0382   -3.3946    0.1360 H   0  0  0  0  0  0
  1  2  1  0  0  0
  2  3  1  0  0  0
  3  4  1  0  0  0
  4  5  1  0  0  0
  5  6  1  0  0  0
  5  7  1  0  0  0
  7  8  1  0  0  0
  7 39  1  0  0  0
  8  9  1  0  0  0
  8 27  1  0  0  0
  9 10  1  0  0  0
 10 11  1  0  0  0
 10 12  1  0  0  0
 12 13  1  0  0  0
 13 14  1  0  0  0
 13 26  1  0  0  0
 14 15  1  0  0  0
 15 16  1  0  0  0
 16 17  1  0  0  0
 17 18  1  0  0  0
 18 19  1  0  0  0
 18 25  1  0  0  0
 19 20  1  0  0  0
 20 21  1  0  0  0
 20 24  1  0  0  0
 21 22  1  0  0  0
 21 23  1  0  0  0
 23 51  1  0  0  0
 23 52  1  0  0  0
 24 53  1  0  0  0
 25 54  1  0  0  0
 26 55  1  0  0  0
 27 28  1  0  0  0
 28 29  2  0  0  0
 28 30  1  0  0  0
 30 31  1  0  0  0
 31 32  1  0  0  0
 31 36  1  0  0  0
 32 33  1  0  0  0
 33 34  2  0  0  0
 33 35  1  0  0  0
 35 56  1  0  0  0
 36 37  2  0  0  0
 36 38  1  0  0  0
 38 57  1  0  0  0
 39 40  1  0  0  0
 40 41  2  0  0  0
 40 42  1  0  0  0
 42 43  1  0  0  0
 43 44  1  0  0  0
 43 48  1  0  0  0
 44 45  1  0  0  0
 45 46  2  0  0  0
 45 47  1  0  0  0
 47 58  1  0  0  0
 48 49  2  0  0  0
 48 50  1  0  0  0
 50 59  1  0  0  0
M  END
>  <AUTHOR>
    GENERATED BY OPEN BABEL 2.4.1

>  <CHROM.1>
-64.12323530,-59.82553982,89.30426856,179.14642204,177.42086721,-55.42928810
-149.22576074,-50.29892335,-49.20840851,161.53245333,-144.10203467,173.02049682
-66.10485149,173.73724510,-55.45630478,-38.27696524,164.10807743,-178.05599319
45.84563417,-118.44547747,-50.00300646,173.30872080,-61.67814773,-19.82713053
120.15498263,170.05297860,71.82961563,0.99925870,94.55694671,-7.75056522
-2.52381384,6.49096955,-172.57615377,-176.72369029,-48.80260598,-15.76675733
-17.82807686,177.84686840,173.23991204,-3.25293717,0.44719647,3.06120712
-0.79207108,0.10726753,-2.85920704

>  <COMPND>
    UNNAMED

>  <MASTER>
        0    0    0    0    0    0    0    0  109    0  109    0

>  <Name>
FB1.pdb

>  <RI>
0

>  <Rbt.Current_Directory>
/home/fc/tossine/F10/p3/1_clust04

>  <Rbt.Executable>
rbdock/0.1.0

>  <Rbt.Library>
librxdock.so/0.1.0

>  <Rbt.Parameter_File>
/cluster/rxdock/data/scripts/dock.prm

>  <Rbt.Receptor>
rx_3.prm

>  <SCORE>
29.592

>  <SCORE.INTER>
6.93285

>  <SCORE.INTER.CONST>
1

>  <SCORE.INTER.POLAR>
-1.50242

>  <SCORE.INTER.REPUL>
0.710188

>  <SCORE.INTER.ROT>
32

>  <SCORE.INTER.VDW>
-28.9099

>  <SCORE.INTER.norm>
0.138657

>  <SCORE.INTRA>
20.3726

>  <SCORE.INTRA.DIHEDRAL>
-6.62505

>  <SCORE.INTRA.DIHEDRAL.0>
47.3121

>  <SCORE.INTRA.POLAR>
1.47808

>  <SCORE.INTRA.POLAR.0>
-1.47808

>  <SCORE.INTRA.REPUL>
0

>  <SCORE.INTRA.REPUL.0>
0

>  <SCORE.INTRA.VDW>
18.6596

>  <SCORE.INTRA.VDW.0>
-2.78316

>  <SCORE.INTRA.norm>
0.407451

>  <SCORE.RESTR>
2.28661

>  <SCORE.RESTR.CAVITY>
2.28661

>  <SCORE.RESTR.norm>
0.0457322

>  <SCORE.SYSTEM>
0

>  <SCORE.SYSTEM.CONST>
0

>  <SCORE.SYSTEM.DIHEDRAL>
0

>  <SCORE.SYSTEM.norm>
0

>  <SCORE.heavy>
50

>  <SCORE.norm>
0.59184

$$$$
