@<TRIPOS>MOLECULE
dna.pdb
 1642 1844 0 0 0
SMALL
GASTEIGER

@<TRIPOS>ATOM
      1  O5'       -5.4420  -20.1120   20.3080 O.3     1  DA1        -0.2176
      2  C5'       -6.2200  -19.4030   19.3560 C.3     1  DA1         0.2140
      3  C4'       -7.3330  -20.2540   18.7980 C.3     1  DA1         0.1774
      4  O4'       -8.5170  -20.1430   19.6260 O.3     1  DA1        -0.3348
      5  C3'       -7.7950  -19.8790   17.3980 C.3     1  DA1         0.1556
      6  O3'       -7.0200  -20.5330   16.4060 O.3     1  DA1        -0.3139
      7  C2'       -9.2740  -20.2540   17.3550 C.3     1  DA1         0.0835
      8  C1'       -9.6730  -20.3070   18.8300 C.3     1  DA1         0.1974
      9  N9       -10.4600  -19.2720   19.0390 N.pl3   1  DA1        -0.2458
     10  C8       -10.1270  -18.0510   19.5660 C.2     1  DA1         0.1669
     11  N7       -11.0450  -17.1310   19.3900 N.2     1  DA1        -0.2208
     12  C5       -12.0490  -17.7910   18.6990 C.2     1  DA1         0.1898
     13  C6       -13.2980  -17.3680   18.2120 C.2     1  DA1         0.4084
     14  N6       -13.7660  -16.1260   18.3560 N.pl3   1  DA1         0.1160
     15  N1       -14.0590  -18.2770   17.5650 N.4     1  DA1        -0.0004
     16  C2       -13.5900  -19.5220   17.4230 C.2     1  DA1         0.3339
     17  N3       -12.4340  -20.0380   17.8370 N.2     1  DA1        -0.2009
     18  C4       -11.7020  -19.1100   18.4750 C.3     1  DA1         0.2334
     19  P         -5.7430  -19.6630   15.1990 P.3     2  DG2         0.2141
     20  OP1       -4.5940  -20.2500   14.4360 O.2     2  DG2        -0.5172
     21  OP2       -5.7390  -18.2850   15.7570 O.3     2  DG2        -0.4373
     22  O5'       -7.0430  -19.8220   14.2860 O.3     2  DG2        -0.3114
     23  C5'       -7.2340  -21.0490   13.5330 C.3     2  DG2         0.1811
     24  C4'       -8.6440  -21.0300   13.0080 C.3     2  DG2         0.1746
     25  O4'       -9.6300  -20.9890   14.0800 O.3     2  DG2        -0.3327
     26  C3'       -9.0120  -19.7930   12.1730 C.3     2  DG2         0.1558
     27  O3'       -8.4340  -19.8450   10.8790 O.3     2  DG2        -0.3138
     28  C2'      -10.5310  -19.9090   12.1790 C.3     2  DG2         0.0865
     29  C1'      -10.7620  -20.2640   13.6400 C.3     2  DG2         0.2094
     30  N9       -10.9250  -19.1010   14.5490 N.ar    2  DG2        -0.2713
     31  C8       -10.0060  -18.5160   15.3870 C.ar    2  DG2         0.1816
     32  N7       -10.4720  -17.4690   16.0120 N.ar    2  DG2        -0.2173
     33  C5       -11.7750  -17.3540   15.5640 C.ar    2  DG2         0.1748
     34  C6       -12.7810  -16.4060   15.8860 C.ar    2  DG2         0.3023
     35  O6       -12.7090  -15.4470   16.6630 O.2     2  DG2        -0.2633
     36  N1       -13.9670  -16.6550   15.2010 N.ar    2  DG2        -0.1709
     37  C2       -14.1610  -17.6880   14.3160 C.ar    2  DG2         0.2606
     38  N2       -15.3750  -17.7660   13.7540 N.pl3   2  DG2        -0.0859
     39  N3       -13.2360  -18.5750   14.0070 N.ar    2  DG2        -0.1918
     40  C4       -12.0750  -18.3530   14.6590 C.ar    2  DG2         0.1722
     41  P         -8.1880  -18.4870   10.1180 P.3     3  DC3         0.2141
     42  OP1       -7.5210  -18.6830    8.8080 O.2     3  DC3        -0.5172
     43  OP2       -7.6010  -17.5930   11.1430 O.3     3  DC3        -0.4373
     44  O5'       -9.7050  -18.0650    9.8430 O.3     3  DC3        -0.3114
     45  C5'      -10.5830  -18.9590    9.1700 C.3     3  DC3         0.1811
     46  C4'      -11.8430  -18.2090    8.7940 C.3     3  DC3         0.1746
     47  O4'      -12.7190  -18.1540    9.9470 O.3     3  DC3        -0.3327
     48  C3'      -11.5900  -16.7620    8.3990 C.3     3  DC3         0.1558
     49  O3'      -11.3640  -16.7080    6.9880 O.3     3  DC3        -0.3138
     50  C2'      -12.8790  -16.0700    8.8480 C.3     3  DC3         0.0866
     51  C1'      -13.2190  -16.8400   10.1190 C.3     3  DC3         0.2106
     52  N1       -12.6920  -16.2480   11.3720 N.ar    3  DC3        -0.2556
     53  C2       -13.5090  -15.2930   11.9860 C.ar    3  DC3         0.3531
     54  O2       -14.6720  -15.1460   11.5720 O.2     3  DC3        -0.2443
     55  N3       -13.0110  -14.5570   13.0080 N.ar    3  DC3        -0.1739
     56  C4       -11.7560  -14.7490   13.4180 C.ar    3  DC3         0.1759
     57  N4       -11.3090  -14.0010   14.4290 N.pl3   3  DC3        -0.1070
     58  C5       -10.9120  -15.7120   12.8090 C.ar    3  DC3         0.0566
     59  C6       -11.4080  -16.4360   11.8000 C.ar    3  DC3         0.0849
     60  P        -11.0040  -15.3920    6.1710 P.3     4  DA4         0.2141
     61  OP1      -11.2080  -15.4820    4.7100 O.2     4  DA4        -0.5172
     62  OP2       -9.8100  -14.7100    6.7200 O.3     4  DA4        -0.4373
     63  O5'      -12.3060  -14.7120    6.7930 O.3     4  DA4        -0.3114
     64  C5'      -13.3590  -14.2320    5.9820 C.3     4  DA4         0.1812
     65  C4'      -13.7770  -12.8640    6.4820 C.3     4  DA4         0.1773
     66  O4'      -14.1430  -12.9340    7.8860 O.3     4  DA4        -0.3348
     67  C3'      -12.6740  -11.8200    6.4400 C.3     4  DA4         0.1862
     68  O3'      -12.5460  -11.2480    5.1460 O.3     4  DA4        -0.2133
     69  C2'      -13.2030  -10.8040    7.4490 C.3     4  DA4         0.0865
     70  C1'      -13.7930  -11.7190    8.5270 C.3     4  DA4         0.1975
     71  N9       -12.9100  -12.0140    9.6250 N.pl3   4  DA4        -0.2458
     72  C8       -11.9610  -12.9820    9.8280 C.2     4  DA4         0.1669
     73  N7       -11.2720  -12.8240   10.9330 N.2     4  DA4        -0.2207
     74  C5       -11.8040  -11.6730   11.4940 C.2     4  DA4         0.1919
     75  C6       -11.5060  -10.9720   12.6760 C.2     4  DA4         0.4324
     76  N6       -10.5590  -11.3470   13.5390 N.pl3   4  DA4         0.2176
     77  N1       -12.2230   -9.8600   12.9420 N.4     4  DA4         0.0013
     78  C2       -13.1730   -9.4850   12.0760 C.2     4  DA4         0.3340
     79  N3       -13.5450  -10.0610   10.9360 N.2     4  DA4        -0.2009
     80  C4       -12.8130  -11.1630   10.6990 C.3     4  DA4         0.2335
     81  P        -11.3880  -10.2200    4.7620 P.3     5  DG5         0.3939
     82  OP1      -12.7140  -10.3920    4.1330 O.3     5  DG5        -0.1496
     83  OP2      -10.3510   -9.4170    4.0870 O.3     5  DG5        -0.1425
     84  O5'      -11.5520   -9.6150    6.2290 O.3     5  DG5        -0.2926
     85  C5'      -12.1470   -8.3360    6.3750 C.3     5  DG5         0.1828
     86  C4'      -11.2520   -7.4090    7.1650 C.3     5  DG5         0.1747
     87  O4'      -11.1660   -7.9190    8.5150 O.3     5  DG5        -0.3327
     88  C3'       -9.8030   -7.3310    6.7070 C.3     5  DG5         0.1558
     89  O3'       -9.6550   -6.3800    5.6600 O.3     5  DG5        -0.3138
     90  C2'       -9.1290   -6.8730    7.9940 C.3     5  DG5         0.0865
     91  C1'       -9.8670   -7.7080    9.0360 C.3     5  DG5         0.2094
     92  N9        -9.1520   -8.8550    9.4850 N.ar    5  DG5        -0.2713
     93  C8        -9.1840  -10.1600    9.0570 C.ar    5  DG5         0.1816
     94  N7        -8.4080  -10.9480    9.7490 N.ar    5  DG5        -0.2173
     95  C5        -7.8300  -10.1190   10.6920 C.ar    5  DG5         0.1748
     96  C6        -6.8970  -10.4020   11.7220 C.ar    5  DG5         0.3023
     97  O6        -6.3810  -11.4890   12.0110 O.2     5  DG5        -0.2633
     98  N1        -6.5690   -9.2650   12.4550 N.ar    5  DG5        -0.1709
     99  C2        -7.0790   -8.0100   12.2240 C.ar    5  DG5         0.2606
    100  N2        -6.6450   -7.0370   13.0380 N.pl3   5  DG5        -0.0859
    101  N3        -7.9460   -7.7310   11.2710 N.ar    5  DG5        -0.1918
    102  C4        -8.2770   -8.8200   10.5460 C.ar    5  DG5         0.1722
    103  P         -8.3460   -6.4950    4.3350 P.3     6  DC6         0.2141
    104  OP1       -8.5330   -5.7290    3.0720 O.2     6  DC6        -0.5172
    105  OP2       -7.8300   -7.8900    4.2690 O.3     6  DC6        -0.4373
    106  O5'       -7.3940   -5.6910    5.3380 O.3     6  DC6        -0.3114
    107  C5'       -7.8780   -4.5340    6.0130 C.3     6  DC6         0.1811
    108  C4'       -7.0760   -4.2530    7.2680 C.3     6  DC6         0.1746
    109  O4'       -7.2010   -5.3390    8.2230 O.3     6  DC6        -0.3327
    110  C3'       -5.5800   -4.0530    7.1210 C.3     6  DC6         0.1558
    111  O3'       -5.2880   -2.7280    6.7030 O.3     6  DC6        -0.3138
    112  C2'       -5.0610   -4.3410    8.5280 C.3     6  DC6         0.0866
    113  C1'       -6.0200   -5.4310    9.0020 C.3     6  DC6         0.2106
    114  N1        -5.4360   -6.8410    8.8270 N.ar    6  DC6        -0.2556
    115  C2        -4.6110   -7.3610    9.8310 C.ar    6  DC6         0.3531
    116  O2        -4.3790   -6.6640   10.8330 O.2     6  DC6        -0.2443
    117  N3        -4.0910   -8.6020    9.6800 N.ar    6  DC6        -0.1739
    118  C4        -4.3680   -9.3130    8.5860 C.ar    6  DC6         0.1759
    119  N4        -3.8330  -10.5320    8.4820 N.pl3   6  DC6        -0.1070
    120  C5        -5.2010   -8.8050    7.5580 C.ar    6  DC6         0.0566
    121  C6        -5.7130   -7.5780    7.7100 C.ar    6  DC6         0.0849
    122  P         -4.1490   -2.5470    6.3640 P.3     7  DA7         0.2141
    123  OP1       -4.3090   -1.0920    6.1430 O.3     7  DA7        -0.4373
    124  OP2       -3.8940   -3.4780    5.2410 O.2     7  DA7        -0.5172
    125  O5'       -2.9000   -2.8110    7.3320 O.3     7  DA7        -0.3114
    126  C5'       -2.4620   -1.7850    8.2100 C.3     7  DA7         0.1811
    127  C4'       -1.7560   -2.3560    9.4130 C.3     7  DA7         0.1746
    128  O4'       -2.2870   -3.6690    9.7040 O.3     7  DA7        -0.3327
    129  C3'       -0.2670   -2.6150    9.2720 C.3     7  DA7         0.1558
    130  O3'        0.5040   -1.4430    9.4300 O.3     7  DA7        -0.3138
    131  C2'        0.0020   -3.6740   10.3350 C.3     7  DA7         0.0865
    132  C1'       -1.2790   -4.4930   10.2420 C.3     7  DA7         0.2094
    133  N9        -1.1380   -5.6380    9.3510 N.ar    7  DA7        -0.2714
    134  C8        -1.7250   -5.7980    8.1230 C.ar    7  DA7         0.1815
    135  N7        -1.4390   -6.9400    7.5440 N.ar    7  DA7        -0.2193
    136  C5        -0.6070   -7.5730    8.4540 C.ar    7  DA7         0.1518
    137  C6         0.0400   -8.8220    8.4340 C.ar    7  DA7         0.1919
    138  N6        -0.0570   -9.6890    7.4240 N.pl3   7  DA7        -0.1054
    139  N1         0.7990   -9.1510    9.5010 N.ar    7  DA7        -0.2040
    140  C2         0.8950   -8.2810   10.5140 C.ar    7  DA7         0.2016
    141  N3         0.3340   -7.0810   10.6470 N.ar    7  DA7        -0.2048
    142  C4        -0.4120   -6.7840    9.5710 C.ar    7  DA7         0.1691
    143  P          1.2710   -1.1020    8.3480 P.3     8  DC8         0.2141
    144  OP1        1.7930    0.2420    8.6670 O.3     8  DC8        -0.4373
    145  OP2        1.0050   -1.4960    6.9450 O.2     8  DC8        -0.5172
    146  O5'        2.2660   -2.1930    8.9260 O.3     8  DC8        -0.3114
    147  C5'        2.9430   -1.9480   10.1230 C.3     8  DC8         0.1811
    148  C4'        3.7680   -3.1750   10.3890 C.3     8  DC8         0.1746
    149  O4'        2.8960   -4.3330   10.4330 O.3     8  DC8        -0.3327
    150  C3'        4.7240   -3.5020    9.2610 C.3     8  DC8         0.1558
    151  O3'        5.8390   -2.6710    9.3700 O.3     8  DC8        -0.3138
    152  C2'        5.0510   -4.9250    9.6680 C.3     8  DC8         0.0866
    153  C1'        3.6430   -5.4350    9.9550 C.3     8  DC8         0.2106
    154  N1         3.1360   -6.0350    8.6830 N.ar    8  DC8        -0.2556
    155  C2         3.3590   -7.3750    8.3440 C.ar    8  DC8         0.3531
    156  O2         4.0960   -8.0610    9.0720 O.2     8  DC8        -0.2443
    157  N3         2.7680   -7.8820    7.2360 N.ar    8  DC8        -0.1739
    158  C4         1.9850   -7.1080    6.4830 C.ar    8  DC8         0.1759
    159  N4         1.4240   -7.6510    5.4010 N.pl3   8  DC8        -0.1070
    160  C5         1.7460   -5.7480    6.8090 C.ar    8  DC8         0.0566
    161  C6         2.3320   -5.2510    7.9040 C.ar    8  DC8         0.0849
    162  P          6.7040   -2.1510    8.0730 P.3     9  DA9         0.2141
    163  OP1        7.8110   -1.2030    8.3240 O.3     9  DA9        -0.4373
    164  OP2        5.7070   -1.8980    7.0040 O.2     9  DA9        -0.5172
    165  O5'        7.3400   -3.5910    7.8580 O.3     9  DA9        -0.3114
    166  C5'        8.1970   -4.1000    8.8570 C.3     9  DA9         0.1811
    167  C4'        8.6500   -5.4750    8.4420 C.3     9  DA9         0.1746
    168  O4'        7.5940   -6.4380    8.6180 O.3     9  DA9        -0.3327
    169  C3'        8.9520   -5.5890    6.9700 C.3     9  DA9         0.1558
    170  O3'       10.1730   -4.9410    6.6940 O.3     9  DA9        -0.3138
    171  C2'        8.9640   -7.0970    6.8210 C.3     9  DA9         0.0865
    172  C1'        7.7060   -7.4200    7.6090 C.3     9  DA9         0.2094
    173  N9         6.5040   -7.4840    6.8040 N.ar    9  DA9        -0.2714
    174  C8         5.5700   -6.5000    6.6090 C.ar    9  DA9         0.1815
    175  N7         4.6050   -6.8420    5.7880 N.ar    9  DA9        -0.2193
    176  C5         4.9280   -8.1380    5.4180 C.ar    9  DA9         0.1518
    177  C6         4.3000   -9.0620    4.5640 C.ar    9  DA9         0.1919
    178  N6         3.1690   -8.8070    3.9030 N.pl3   9  DA9        -0.1054
    179  N1         4.8830  -10.2700    4.4120 N.ar    9  DA9        -0.2040
    180  C2         6.0160  -10.5250    5.0760 C.ar    9  DA9         0.2016
    181  N3         6.6990   -9.7390    5.9050 N.ar    9  DA9        -0.2048
    182  C4         6.0950   -8.5460    6.0350 C.ar    9  DA9         0.1691
    183  P         10.3890   -4.2310    5.2900 P.3    10  DG10        0.2141
    184  OP1       11.6780   -3.6130    5.6760 O.3    10  DG10       -0.4373
    185  OP2        9.2770   -3.3960    4.7790 O.2    10  DG10       -0.5172
    186  O5'       10.6260   -5.3090    4.1330 O.3    10  DG10       -0.3114
    187  C5'       11.4160   -6.4690    4.3820 C.3    10  DG10        0.1811
    188  C4'       11.5900   -7.2950    3.1310 C.3    10  DG10        0.1767
    189  O4'       10.8150   -8.5250    3.2380 O.3    10  DG10       -0.3154
    190  C3'       11.1450   -6.5880    1.8490 C.3    10  DG10        0.1581
    191  O3'       12.1840   -6.5250    0.8660 O.3    10  DG10       -0.3138
    192  C2'        9.9680   -7.4140    1.3310 C.3    10  DG10        0.1126
    193  C1'       10.0940   -8.7600    2.0420 C.3    10  DG10        0.2911
    194  N9         8.9030   -9.2450    2.8550 N.pl3  10  DG10       -0.1302
    195  C8         8.0690   -8.5200    3.6700 C.2    10  DG10        0.2799
    196  N7         6.8040   -8.6950    3.4000 N.2    10  DG10       -0.2096
    197  C5         6.7990   -9.5900    2.3460 C.3    10  DG10        0.3072
    198  C6         5.7190  -10.1570    1.6210 C.2    10  DG10        0.3535
    199  O6         4.5070   -9.9680    1.7810 O.2    10  DG10       -0.2506
    200  N1         6.1590  -11.0220    0.6230 N.am   10  DG10        0.0136
    201  C2         7.4770  -11.3060    0.3570 C.2    10  DG10        0.5244
    202  N2         7.7050  -12.1660   -0.6450 N.pl3  10  DG10        0.1572
    203  N3         8.4910  -10.7870    1.0210 N.2    10  DG10        0.0290
    204  C4         8.0870   -9.9430    1.9940 C.2    10  DG10        0.3467
    205  P         12.4280   -5.1130    0.0350 P.3    11  DA11        0.2141
    206  OP1       13.6230   -4.4400   -0.5310 O.2    11  DA11       -0.5172
    207  OP2       11.2770   -4.3100    0.5050 O.3    11  DA11       -0.4373
    208  O5'       11.8950   -6.1790   -1.0360 O.3    11  DA11       -0.3114
    209  C5'       12.7890   -6.8790   -1.9020 C.3    11  DA11        0.1811
    210  C4'       12.0600   -8.0030   -2.6150 C.3    11  DA11        0.1746
    211  O4'       11.2030   -8.7010   -1.6760 O.3    11  DA11       -0.3327
    212  C3'       11.0930   -7.5710   -3.7030 C.3    11  DA11        0.1558
    213  O3'       11.7680   -7.3350   -4.9070 O.3    11  DA11       -0.3138
    214  C2'       10.2160   -8.8080   -3.8170 C.3    11  DA11        0.0865
    215  C1'       10.0480   -9.1770   -2.3470 C.3    11  DA11        0.2094
    216  N9         8.8270   -8.5270   -1.7430 N.ar   11  DA11       -0.2714
    217  C8         8.7820   -7.4850   -0.8540 C.ar   11  DA11        0.1815
    218  N7         7.5710   -7.1930   -0.4430 N.ar   11  DA11       -0.2193
    219  C5         6.7660   -8.1040   -1.1080 C.ar   11  DA11        0.1518
    220  C6         5.3770   -8.3190   -1.1030 C.ar   11  DA11        0.1919
    221  N6         4.5200   -7.6000   -0.3740 N.pl3  11  DA11       -0.1054
    222  N1         4.8930   -9.3110   -1.8810 N.ar   11  DA11       -0.2040
    223  C2         5.7530  -10.0320   -2.6100 C.ar   11  DA11        0.2016
    224  N3         7.0770   -9.9260   -2.6970 N.ar   11  DA11       -0.2048
    225  C4         7.5250   -8.9310   -1.9130 C.ar   11  DA11        0.1691
    226  P         11.3760   -6.1990   -5.4680 P.3    12  DG12        0.2141
    227  OP1       12.3860   -5.9570   -6.5240 O.2    12  DG12       -0.5172
    228  OP2       10.6040   -5.0600   -4.9240 O.3    12  DG12       -0.4373
    229  O5'       10.3330   -7.2470   -6.0390 O.3    12  DG12       -0.3114
    230  C5'       10.7790   -8.3990   -6.7320 C.3    12  DG12        0.1811
    231  C4'        9.6180   -9.0520   -7.4130 C.3    12  DG12        0.1746
    232  O4'        8.7400   -9.6120   -6.4040 O.3    12  DG12       -0.3327
    233  C3'        8.7270   -8.0950   -8.1870 C.3    12  DG12        0.1558
    234  O3'        9.2520   -7.8290   -9.4860 O.3    12  DG12       -0.3138
    235  C2'        7.4200   -8.8740   -8.2300 C.3    12  DG12        0.0865
    236  C1'        7.3970   -9.4980   -6.8290 C.3    12  DG12        0.2094
    237  N9         6.7000   -8.6220   -5.8740 N.ar   12  DG12       -0.2713
    238  C8         7.2500   -7.6850   -5.0320 C.ar   12  DG12        0.1816
    239  N7         6.3590   -7.0340   -4.3340 N.ar   12  DG12       -0.2173
    240  C5         5.1500   -7.5710   -4.7350 C.ar   12  DG12        0.1748
    241  C6         3.8250   -7.2660   -4.3300 C.ar   12  DG12        0.3023
    242  O6         3.4510   -6.4270   -3.5010 O.2    12  DG12       -0.2633
    243  N1         2.8840   -8.0510   -4.9920 N.ar   12  DG12       -0.1709
    244  C2         3.1840   -9.0110   -5.9290 C.ar   12  DG12        0.2606
    245  N2         2.1420   -9.6670   -6.4570 N.pl3  12  DG12       -0.0859
    246  N3         4.4100   -9.3050   -6.3160 N.ar   12  DG12       -0.1918
    247  C4         5.3390   -8.5550   -5.6870 C.ar   12  DG12        0.1722
    248  P          8.6380   -6.6440  -10.4220 P.3    13  DG13        0.2141
    249  OP1        9.1170   -7.0370  -11.7810 O.2    13  DG13       -0.5172
    250  OP2        9.1710   -5.4080   -9.7850 O.3    13  DG13       -0.4373
    251  O5'        7.0470   -6.5520  -10.4500 O.3    13  DG13       -0.3114
    252  C5'        6.2820   -7.5310  -11.1340 C.3    13  DG13        0.1811
    253  C4'        4.8130   -7.2500  -10.9870 C.3    13  DG13        0.1746
    254  O4'        4.4100   -7.4300   -9.6060 O.3    13  DG13       -0.3327
    255  C3'        4.3520   -5.8440  -11.3090 C.3    13  DG13        0.1558
    256  O3'        4.2680   -5.6590  -12.7200 O.3    13  DG13       -0.3138
    257  C2'        2.9960   -5.7930  -10.5980 C.3    13  DG13        0.0865
    258  C1'        3.2840   -6.6100   -9.3340 C.3    13  DG13        0.2094
    259  N9         3.6070   -5.7600   -8.1710 N.ar   13  DG13       -0.2713
    260  C8         4.8530   -5.5170   -7.6450 C.ar   13  DG13        0.1816
    261  N7         4.8300   -4.7090   -6.6200 N.ar   13  DG13       -0.2173
    262  C5         3.4920   -4.4000   -6.4560 C.ar   13  DG13        0.1748
    263  C6         2.8470   -3.5660   -5.5080 C.ar   13  DG13        0.3023
    264  O6         3.3570   -2.9120   -4.5900 O.2    13  DG13       -0.2633
    265  N1         1.4680   -3.5290   -5.6990 N.ar   13  DG13       -0.1709
    266  C2         0.7950   -4.2130   -6.6830 C.ar   13  DG13        0.2606
    267  N2        -0.5360   -4.0540   -6.7080 N.pl3  13  DG13       -0.0859
    268  N3         1.3810   -4.9910   -7.5710 N.ar   13  DG13       -0.1918
    269  C4         2.7200   -5.0410   -7.4060 C.ar   13  DG13        0.1722
    270  P          3.8660   -3.8430  -13.0840 P.3    14  DT14        0.2141
    271  OP1        2.9530   -3.9070  -14.2440 O.2    14  DT14       -0.5172
    272  OP2        5.2550   -3.3670  -13.2840 O.3    14  DT14       -0.4373
    273  O5'        3.1890   -2.9550  -11.9340 O.3    14  DT14       -0.3114
    274  C5'        1.8370   -2.5300  -12.0530 C.3    14  DT14        0.1811
    275  C4'        1.3690   -1.8300  -10.7920 C.3    14  DT14        0.1746
    276  O4'        2.0120   -2.4110   -9.6360 O.3    14  DT14       -0.3327
    277  C3'        1.7430   -0.3640  -10.6860 C.3    14  DT14        0.1558
    278  O3'        0.8500    0.4200  -11.4110 O.3    14  DT14       -0.3138
    279  C2'        1.5910   -0.1260   -9.1970 C.3    14  DT14        0.0866
    280  C1'        2.2280   -1.4010   -8.6660 C.3    14  DT14        0.2106
    281  N1         3.6560   -1.1690   -8.2360 N.ar   14  DT14       -0.2559
    282  C2         3.9960   -0.4040   -7.1360 C.ar   14  DT14        0.3545
    283  O2         3.2100    0.3400   -6.5770 O.2    14  DT14       -0.2443
    284  N3         5.2960   -0.5400   -6.7130 N.ar   14  DT14       -0.1533
    285  C4         6.2680   -1.3470   -7.2660 C.ar   14  DT14        0.2804
    286  O4         7.3930   -1.3630   -6.7730 O.2    14  DT14       -0.2654
    287  C5         5.8380   -2.1090   -8.4040 C.ar   14  DT14        0.0534
    288  C6         4.5800   -1.9960   -8.8370 C.ar   14  DT14        0.0824
    289  C7         6.8240   -3.0170   -9.0770 C.3    14  DT14        0.0377
    290  P          1.3830    1.3440  -12.4480 P.3    15  DC15        0.2141
    291  OP1        0.0850    1.6490  -13.0890 O.3    15  DC15       -0.4373
    292  OP2        2.6410    1.4320  -13.2220 O.2    15  DC15       -0.5172
    293  O5'        1.5890    2.3770  -11.2420 O.3    15  DC15       -0.3114
    294  C5'        0.4630    3.0730  -10.7240 C.3    15  DC15        0.1811
    295  C4'        0.7740    3.8610   -9.4700 C.3    15  DC15        0.1746
    296  O4'        1.6100    3.0900   -8.5640 O.3    15  DC15       -0.3327
    297  C3'        1.5660    5.1480   -9.6470 C.3    15  DC15        0.1558
    298  O3'        0.8090    6.2290  -10.1560 O.3    15  DC15       -0.3138
    299  C2'        2.0930    5.3900   -8.2400 C.3    15  DC15        0.0866
    300  C1'        2.4330    3.9620   -7.8100 C.3    15  DC15        0.2106
    301  N1         3.8710    3.6310   -8.1190 N.ar   15  DC15       -0.2556
    302  C2         4.9130    4.1760   -7.3590 C.ar   15  DC15        0.3531
    303  O2         4.6420    5.0380   -6.5050 O.2    15  DC15       -0.2443
    304  N3         6.1800    3.7510   -7.5760 N.ar   15  DC15       -0.1739
    305  C4         6.4240    2.8250   -8.5040 C.ar   15  DC15        0.1759
    306  N4         7.6890    2.4370   -8.6830 N.pl3  15  DC15       -0.1070
    307  C5         5.3830    2.2600   -9.2850 C.ar   15  DC15        0.0566
    308  C6         4.1320    2.6830   -9.0670 C.ar   15  DC15        0.0849
    309  P          1.3810    6.8770  -11.4300 P.3    16  DA16        0.2141
    310  OP1        0.3470    7.7510  -12.0420 O.3    16  DA16       -0.4373
    311  OP2        2.1470    5.9260  -12.2830 O.2    16  DA16       -0.5172
    312  O5'        2.4040    7.8120  -10.6450 O.3    16  DA16       -0.3114
    313  C5'        1.9310    8.8560   -9.8060 C.3    16  DA16        0.1811
    314  C4'        3.0740    9.4700   -9.0370 C.3    16  DA16        0.1746
    315  O4'        3.7270    8.4320   -8.2560 O.3    16  DA16       -0.3327
    316  C3'        4.1950   10.0530   -9.8700 C.3    16  DA16        0.1558
    317  O3'        3.9050   11.3750  -10.2480 O.3    16  DA16       -0.3138
    318  C2'        5.3410   10.0310   -8.8810 C.3    16  DA16        0.0865
    319  C1'        5.1190    8.6720   -8.2200 C.3    16  DA16        0.2094
    320  N9         5.8310    7.6010   -9.0960 N.ar   16  DA16       -0.2714
    321  C8         5.3180    6.6480   -9.9370 C.ar   16  DA16        0.1815
    322  N7         6.2200    5.8230  -10.4130 N.ar   16  DA16       -0.2193
    323  C5         7.4060    6.2640   -9.8470 C.ar   16  DA16        0.1518
    324  C6         8.7320    5.8090   -9.9540 C.ar   16  DA16        0.1919
    325  N6         9.0970    4.7630  -10.7000 N.pl3  16  DA16       -0.1054
    326  N1         9.6800    6.4730   -9.2600 N.ar   16  DA16       -0.2040
    327  C2         9.3130    7.5200   -8.5120 C.ar   16  DA16        0.2016
    328  N3         8.1020    8.0410   -8.3310 N.ar   16  DA16       -0.2048
    329  C4         7.1820    7.3590   -9.0350 C.ar   16  DA16        0.1691
    330  P          4.1010   11.7850  -11.7370 P.3    17  DG17        0.2141
    331  OP1        3.1270   12.8610  -12.0330 O.3    17  DG17       -0.4373
    332  OP2        4.0410   10.4750  -12.4300 O.2    17  DG17       -0.5172
    333  O5'        5.5760   12.3010  -12.0690 O.3    17  DG17       -0.3114
    334  C5'        6.1800   13.2940  -11.2580 C.3    17  DG17        0.1811
    335  C4'        7.6770   13.1090  -11.1660 C.3    17  DG17        0.1746
    336  O4'        8.0080   11.7920  -10.6480 O.3    17  DG17       -0.3327
    337  C3'        8.4560   13.1690  -12.4700 C.3    17  DG17        0.1558
    338  O3'        8.6160   14.4890  -12.9600 O.3    17  DG17       -0.3138
    339  C2'        9.7690   12.5110  -12.0670 C.3    17  DG17        0.0865
    340  C1'        9.2740   11.4010  -11.1430 C.3    17  DG17        0.2094
    341  N9         9.2520   10.2130  -11.7890 N.ar   17  DG17       -0.2713
    342  C8         8.0990    9.4840  -11.9530 C.ar   17  DG17        0.1816
    343  N7         8.2930    8.3430  -12.5570 N.ar   17  DG17       -0.2173
    344  C5         9.6530    8.3130  -12.8050 C.ar   17  DG17        0.1748
    345  C6        10.4540    7.3290  -13.4380 C.ar   17  DG17        0.3023
    346  O6        10.0990    6.2450  -13.9200 O.2    17  DG17       -0.2633
    347  N1        11.7950    7.7000  -13.4850 N.ar   17  DG17       -0.1709
    348  C2        12.3020    8.8750  -12.9830 C.ar   17  DG17        0.2606
    349  N2        13.6220    9.0560  -13.1200 N.pl3  17  DG17       -0.0859
    350  N3        11.5690    9.8000  -12.3940 N.ar   17  DG17       -0.1918
    351  C4        10.2640    9.4610  -12.3380 C.ar   17  DG17        0.1722
    352  P          9.1580   14.7390  -14.4600 P.3    18  DA18        0.2141
    353  OP1        8.1540   15.8190  -14.6670 O.3    18  DA18       -0.4373
    354  OP2        9.1390   13.5300  -15.3120 O.2    18  DA18       -0.5172
    355  O5'       10.6470   15.3170  -14.3680 O.3    18  DA18       -0.3114
    356  C5'       11.5260   15.3490  -15.5020 C.3    18  DA18        0.1811
    357  C4'       12.6790   14.3710  -15.3520 C.3    18  DA18        0.1746
    358  O4'       12.2700   13.1440  -14.6930 O.3    18  DA18       -0.3327
    359  C3'       13.2350   13.8940  -16.6770 C.3    18  DA18        0.1558
    360  O3'       14.1000   14.8690  -17.2680 O.3    18  DA18       -0.3138
    361  C2'       13.9700   12.6160  -16.2550 C.3    18  DA18        0.0865
    362  C1'       13.1030   12.0830  -15.1300 C.3    18  DA18        0.2094
    363  N9        12.3510   11.0400  -15.7790 N.ar   18  DA18       -0.2714
    364  C8        11.0040   11.0390  -15.5290 C.ar   18  DA18        0.1815
    365  N7        10.4150    9.8980  -15.8000 N.ar   18  DA18       -0.2193
    366  C5        11.4460    9.0950  -16.2610 C.ar   18  DA18        0.1518
    367  C6        11.4790    7.7630  -16.7110 C.ar   18  DA18        0.1919
    368  N6        10.4020    6.9770  -16.7710 N.pl3  18  DA18       -0.1054
    369  N1        12.6710    7.2630  -17.1020 N.ar   18  DA18       -0.2040
    370  C2        13.7490    8.0520  -17.0400 C.ar   18  DA18        0.2016
    371  N3        13.8440    9.3170  -16.6350 N.ar   18  DA18       -0.2048
    372  C4        12.6440    9.7840  -16.2550 C.ar   18  DA18        0.1691
    373  P         13.9740   15.3120  -19.0370 P.3    19  DT19        0.2141
    374  OP1       15.0560   16.2060  -19.5140 O.2    19  DT19       -0.5172
    375  OP2       12.5560   15.6140  -19.3740 O.3    19  DT19       -0.4373
    376  O5'       14.3060   13.8380  -19.5440 O.3    19  DT19       -0.3114
    377  C5'       15.5400   13.2210  -19.2260 C.3    19  DT19        0.1811
    378  C4'       15.5910   11.8500  -19.8280 C.3    19  DT19        0.1746
    379  O4'       14.7030   10.9570  -19.1060 O.3    19  DT19       -0.3327
    380  C3'       15.1510   11.7640  -21.2800 C.3    19  DT19        0.1558
    381  O3'       16.2490   12.1440  -22.1190 O.3    19  DT19       -0.3138
    382  C2'       14.7530   10.2910  -21.3920 C.3    19  DT19        0.0866
    383  C1'       14.1590   10.0060  -20.0020 C.3    19  DT19        0.2106
    384  N1        12.7400   10.0090  -19.8540 N.ar   19  DT19       -0.2559
    385  C2        12.1310    8.9260  -20.4590 C.ar   19  DT19        0.3545
    386  O2        12.7490    7.9570  -20.8640 O.2    19  DT19       -0.2443
    387  N3        10.7650    9.0170  -20.5750 N.ar   19  DT19       -0.1533
    388  C4         9.9650   10.0600  -20.1560 C.ar   19  DT19        0.2804
    389  O4         8.7500    9.9970  -20.3290 O.2    19  DT19       -0.2654
    390  C5        10.6710   11.1470  -19.5390 C.ar   19  DT19        0.0534
    391  C6        12.0000   11.0840  -19.4140 C.ar   19  DT19        0.0824
    392  C7         9.8880   12.3300  -19.0500 C.3    19  DT19        0.0377
    393  P         15.9880   12.6770  -23.6370 P.3    20  DG20        0.2141
    394  OP1       17.2550   13.1470  -24.2690 O.2    20  DG20       -0.5172
    395  OP2       14.8550   13.6220  -23.4690 O.3    20  DG20       -0.4373
    396  O5'       15.4890   11.3950  -24.4490 O.3    20  DG20       -0.3114
    397  C5'       16.4280   10.3830  -24.8590 C.3    20  DG20        0.1811
    398  C4'       15.7130    9.1840  -25.4350 C.3    20  DG20        0.1746
    399  O4'       14.8200    8.6230  -24.4400 O.3    20  DG20       -0.3327
    400  C3'       14.8060    9.3970  -26.6360 C.3    20  DG20        0.1558
    401  O3'       15.4980    9.4720  -27.8690 O.3    20  DG20       -0.3138
    402  C2'       13.9180    8.1610  -26.5900 C.3    20  DG20        0.0865
    403  C1'       13.7410    7.9690  -25.0890 C.3    20  DG20        0.2094
    404  N9        12.4870    8.5550  -24.6660 N.ar   20  DG20       -0.2713
    405  C8        12.2790    9.8010  -24.1270 C.ar   20  DG20        0.1816
    406  N7        11.0190   10.0640  -23.9080 N.ar   20  DG20       -0.2173
    407  C5        10.3540    8.9260  -24.3250 C.ar   20  DG20        0.1748
    408  C6         8.9700    8.6170  -24.3350 C.ar   20  DG20        0.3023
    409  O6         8.0250    9.3230  -23.9600 O.2    20  DG20       -0.2633
    410  N1         8.7230    7.3450  -24.8440 N.ar   20  DG20       -0.1709
    411  C2         9.6920    6.4770  -25.2890 C.ar   20  DG20        0.2606
    412  N2         9.2610    5.2930  -25.7440 N.pl3  20  DG20       -0.0859
    413  N3        10.9820    6.7500  -25.2860 N.ar   20  DG20       -0.1918
    414  C4        11.2450    7.9800  -24.7960 C.ar   20  DG20        0.1722
    415  P         14.7910   10.2020  -29.1290 P.3    21  DC21        0.2141
    416  OP1       15.7380    9.9410  -30.2340 O.2    21  DC21       -0.5172
    417  OP2       13.9650   11.4300  -29.1100 O.3    21  DC21       -0.4373
    418  O5'       13.7280    9.0090  -29.0920 O.3    21  DC21       -0.3114
    419  C5'       14.1680    7.6620  -29.1780 C.3    21  DC21        0.1811
    420  C4'       12.9990    6.7140  -29.2360 C.3    21  DC21        0.1746
    421  O4'       12.3340    6.6890  -27.9470 O.3    21  DC21       -0.3327
    422  C3'       11.8800    7.1030  -30.1900 C.3    21  DC21        0.1558
    423  O3'       12.1330    6.8070  -31.5490 O.3    21  DC21       -0.3138
    424  C2'       10.7010    6.3340  -29.6320 C.3    21  DC21        0.0866
    425  C1'       10.9420    6.5130  -28.1320 C.3    21  DC21        0.2106
    426  N1        10.2720    7.6960  -27.5800 N.ar   21  DC21       -0.2556
    427  C2         8.9090    7.5830  -27.2840 C.ar   21  DC21        0.3531
    428  O2         8.3440    6.4930  -27.4740 O.2    21  DC21       -0.2443
    429  N3         8.2470    8.6620  -26.8010 N.ar   21  DC21       -0.1739
    430  C4         8.8950    9.8130  -26.6140 C.ar   21  DC21        0.1759
    431  N4         8.2020   10.8490  -26.1360 N.pl3  21  DC21       -0.1070
    432  C5        10.2760    9.9480  -26.9080 C.ar   21  DC21        0.0566
    433  C6        10.9250    8.8800  -27.3840 C.ar   21  DC21        0.0849
    434  P         11.8210    7.9260  -32.4500 P.3    22  DG22        0.2141
    435  OP1       12.1700    7.2110  -33.7030 O.2    22  DG22       -0.5172
    436  OP2       12.0070    9.4050  -32.4320 O.3    22  DG22       -0.4373
    437  O5'       10.3150    7.5190  -32.0900 O.3    22  DG22       -0.3114
    438  C5'        9.7980    6.3290  -32.6560 C.3    22  DG22        0.1811
    439  C4'        8.2890    6.2950  -32.6090 C.3    22  DG22        0.1746
    440  O4'        7.8520    6.3360  -31.2120 O.3    22  DG22       -0.3327
    441  C3'        7.5870    7.4590  -33.3140 C.3    22  DG22        0.1558
    442  O3'        7.4930    7.3480  -34.7620 O.3    22  DG22       -0.3138
    443  C2'        6.2510    7.4730  -32.5600 C.3    22  DG22        0.0865
    444  C1'        6.7250    7.1980  -31.1080 C.3    22  DG22        0.2093
    445  N9         7.0000    8.4480  -30.4100 N.ar   22  DG22       -0.2728
    446  C8         8.2340    8.9240  -30.0370 C.ar   22  DG22        0.1814
    447  N7         8.1810   10.0890  -29.4510 N.ar   22  DG22       -0.2177
    448  C5         6.8350   10.4030  -29.4320 C.ar   22  DG22        0.1711
    449  C6         6.1600   11.5430  -28.9250 C.2    22  DG22        0.2986
    450  O6         6.6450   12.5370  -28.3710 O.2    22  DG22       -0.2655
    451  N1         4.7830   11.4590  -29.1130 N.am   22  DG22       -0.1040
    452  C2         4.1360   10.4060  -29.7140 C.1    22  DG22        0.1480
    453  N2         2.8030   10.5040  -29.8040 N.2    22  DG22       -0.0125
    454  N3         4.7500    9.3400  -30.1900 N.pl3  22  DG22       -0.1257
    455  C4         6.0880    9.4010  -30.0200 C.ar   22  DG22        0.1688
    456  P          7.9300    8.6070  -35.7160 P.3    23  DA23        0.2141
    457  OP1        8.6200    7.9700  -36.8610 O.2    23  DA23       -0.5172
    458  OP2        8.6750    9.4820  -34.7930 O.3    23  DA23       -0.4373
    459  O5'        6.6770    9.4140  -36.2840 O.3    23  DA23       -0.3114
    460  C5'        5.4520    8.7390  -36.4180 C.3    23  DA23        0.1811
    461  C4'        4.3190    9.7020  -36.1570 C.3    23  DA23        0.1746
    462  O4'        4.0390    9.7810  -34.7400 O.3    23  DA23       -0.3327
    463  C3'        4.6400   11.1310  -36.5200 C.3    23  DA23        0.1558
    464  O3'        4.5440   11.3150  -37.9250 O.3    23  DA23       -0.3138
    465  C2'        3.5470   11.8610  -35.7460 C.3    23  DA23        0.0865
    466  C1'        3.4940   11.0540  -34.4500 C.3    23  DA23        0.2094
    467  N9         4.3020   11.6690  -33.3990 N.ar   23  DA23       -0.2714
    468  C8         5.5860   11.3480  -33.0410 C.ar   23  DA23        0.1815
    469  N7         6.0220   12.0030  -31.9910 N.ar   23  DA23       -0.2193
    470  C5         4.9530   12.8110  -31.6370 C.ar   23  DA23        0.1518
    471  C6         4.7770   13.7480  -30.6030 C.ar   23  DA23        0.1919
    472  N6         5.7160   14.0370  -29.7000 N.pl3  23  DA23       -0.1054
    473  N1         3.5880   14.3830  -30.5290 N.ar   23  DA23       -0.2040
    474  C2         2.6460   14.0910  -31.4340 C.ar   23  DA23        0.2016
    475  N3         2.6930   13.2310  -32.4480 N.ar   23  DA23       -0.2048
    476  C4         3.8870   12.6170  -32.4950 C.ar   23  DA23        0.1691
    477  P          5.3360   12.5050  -38.5350 P.3    24  DT24        0.2141
    478  OP1        5.1020   12.1370  -39.9460 O.2    24  DT24       -0.5172
    479  OP2        6.6930   12.6620  -37.9810 O.3    24  DT24       -0.4373
    480  O5'        4.5590   13.8650  -38.3290 O.3    24  DT24       -0.3114
    481  C5'        3.2690   13.9730  -38.8510 C.3    24  DT24        0.1811
    482  C4'        2.5830   15.0080  -38.0110 C.3    24  DT24        0.1746
    483  O4'        2.5800   14.6190  -36.6140 O.3    24  DT24       -0.3327
    484  C3'        3.2900   16.3570  -37.9840 C.3    24  DT24        0.1558
    485  O3'        3.1860   16.9670  -39.2720 O.3    24  DT24       -0.3138
    486  C2'        2.4670   16.9770  -36.8670 C.3    24  DT24        0.0866
    487  C1'        2.4930   15.8120  -35.8620 C.3    24  DT24        0.2106
    488  N1         3.6360   15.7840  -34.8550 N.ar   24  DT24       -0.2559
    489  C2         3.7520   16.7330  -33.8570 C.ar   24  DT24        0.3545
    490  O2         2.9820   17.6690  -33.7380 O.2    24  DT24       -0.2443
    491  N3         4.8100   16.5470  -33.0000 N.ar   24  DT24       -0.1533
    492  C4         5.7410   15.5310  -33.0390 C.ar   24  DT24        0.2804
    493  O4         6.6350   15.4970  -32.1970 O.2    24  DT24       -0.2654
    494  C5         5.5530   14.5860  -34.1040 C.ar   24  DT24        0.0534
    495  C6         4.5330   14.7430  -34.9520 C.ar   24  DT24        0.0824
    496  C7         6.5160   13.4430  -34.2320 C.3    24  DT24        0.0377
    497  P          4.0490   18.2970  -39.7440 P.3    25  DC25        0.2141
    498  OP1        3.3800   18.7640  -40.9870 O.2    25  DC25       -0.5172
    499  OP2        5.4930   17.9420  -39.7710 O.3    25  DC25       -0.4373
    500  O5'        3.8160   19.3960  -38.6140 O.3    25  DC25       -0.3114
    501  C5'        2.5320   19.9950  -38.4370 C.3    25  DC25        0.1811
    502  C4'        2.4210   20.6300  -37.0650 C.3    25  DC25        0.1746
    503  O4'        2.6260   19.6170  -36.0360 O.3    25  DC25       -0.3327
    504  C3'        3.4560   21.6850  -36.6980 C.3    25  DC25        0.1558
    505  O3'        3.2040   22.9690  -37.2500 O.3    25  DC25       -0.3138
    506  C2'        3.3220   21.7120  -35.1860 C.3    25  DC25        0.0866
    507  C1'        3.2220   20.2190  -34.8880 C.3    25  DC25        0.2106
    508  N1         4.5820   19.6310  -34.7220 N.ar   25  DC25       -0.2556
    509  C2         5.2190   19.8580  -33.4970 C.ar   25  DC25        0.3531
    510  O2         4.5950   20.4490  -32.5990 O.2    25  DC25       -0.2443
    511  N3         6.4920   19.4280  -33.3260 N.ar   25  DC25       -0.1739
    512  C4         7.1220   18.7990  -34.3180 C.ar   25  DC25        0.1759
    513  N4         8.3760   18.3930  -34.1030 N.pl3  25  DC25       -0.1070
    514  C5         6.4950   18.5590  -35.5670 C.ar   25  DC25        0.0566
    515  C6         5.2370   18.9850  -35.7320 C.ar   25  DC25        0.0849
    516  P          4.3610   23.8510  -37.4970 P.3    26  DT26        0.2141
    517  OP1        3.9920   24.9890  -38.3740 O.2    26  DT26       -0.5172
    518  OP2        5.3960   22.8780  -37.9520 O.3    26  DT26       -0.4373
    519  O5'        4.8280   24.4310  -36.0870 O.3    26  DT26       -0.3114
    520  C5'        3.8700   24.7210  -35.0480 C.3    26  DT26        0.1811
    521  C4'        4.5670   24.9530  -33.7270 C.3    26  DT26        0.1746
    522  O4'        5.3310   23.7680  -33.3800 O.3    26  DT26       -0.3327
    523  C3'        5.5400   26.1250  -33.6660 C.3    26  DT26        0.1558
    524  O3'        5.4650   26.6610  -32.3450 O.3    26  DT26       -0.3138
    525  C2'        6.8960   25.4540  -33.8750 C.3    26  DT26        0.0866
    526  C1'        6.6800   24.1200  -33.1590 C.3    26  DT26        0.2106
    527  N1         7.5530   23.2790  -33.4310 N.ar   26  DT26       -0.2574
    528  C2         8.5560   22.6360  -32.7300 C.ar   26  DT26        0.3317
    529  O2         8.5580   22.5360  -31.5160 O.3    26  DT26       -0.3273
    530  N3         9.5620   22.1110  -33.5050 N.ar   26  DT26       -0.1549
    531  C4         9.6650   22.1650  -34.8790 C.ar   26  DT26        0.2804
    532  O4        10.6300   21.6450  -35.4340 O.2    26  DT26       -0.2654
    533  C5         8.5860   22.8500  -35.5340 C.ar   26  DT26        0.0534
    534  C6         7.5950   23.3690  -34.8050 C.ar   26  DT26        0.0824
    535  C7         8.6070   22.9620  -37.0300 C.3    26  DT26        0.0377
    536  P          5.8010   28.3230  -31.9810 P.3    27  DG27        0.2141
    537  OP1        4.9560   29.5330  -31.8260 O.3    27  DG27       -0.4373
    538  OP2        6.5060   28.0810  -33.2650 O.2    27  DG27       -0.5172
    539  O5'        6.8760   28.3240  -30.8000 O.3    27  DG27       -0.3115
    540  C5'        6.4530   28.4330  -29.4350 C.3    27  DG27        0.1785
    541  C4'        7.2640   27.5190  -28.5410 C.3    27  DG27        0.1473
    542  O4'        7.6630   26.3230  -29.2670 O.3    27  DG27       -0.3353
    543  C3'        8.5730   28.0500  -27.9890 C.3    27  DG27        0.0368
    544  O3'        8.3730   28.8820  -26.8570 O.3    27  DG27       -0.1270
    545  C2'        9.3050   26.7660  -27.6120 C.3    27  DG27        0.0566
    546  C1'        8.8830   25.8260  -28.7360 C.3    27  DG27        0.2069
    547  N9         9.9150   25.7850  -29.7510 N.ar   27  DG27       -0.2714
    548  C8         9.7470   26.2470  -31.0340 C.ar   27  DG27        0.1816
    549  N7        10.7710   26.0070  -31.8070 N.ar   27  DG27       -0.2173
    550  C5        11.6700   25.3470  -30.9900 C.ar   27  DG27        0.1748
    551  C6        12.9640   24.8350  -31.2650 C.ar   27  DG27        0.3023
    552  O6        13.5900   24.8690  -32.3310 O.2    27  DG27       -0.2633
    553  N1        13.5350   24.2360  -30.1460 N.ar   27  DG27       -0.1709
    554  C2        12.9340   24.1410  -28.9130 C.ar   27  DG27        0.2606
    555  N2        13.6420   23.5260  -27.9560 N.pl3  27  DG27       -0.0859
    556  N3        11.7330   24.6120  -28.6430 N.ar   27  DG27       -0.1918
    557  C4        11.1590   25.1990  -29.7140 C.ar   27  DG27        0.1722
    558  P          9.2440   29.6810  -26.4470 P.3    28  DG28        0.5677
    559  OP1        9.0030   30.2870  -25.1180 O.2    28  DG28       -0.2249
    560  OP2       10.5620   29.8830  -27.1110 O.2    28  DG28       -0.2249
    561  O5'        8.9580   28.1160  -26.3390 O.3    28  DG28       -0.2092
    562  C5'        9.4350   27.3550  -25.2240 C.3    28  DG28        0.2145
    563  C4'        9.0120   25.9130  -25.3530 C.3    28  DG28        0.1776
    564  O4'        9.4310   25.3910  -26.6490 O.3    28  DG28       -0.3326
    565  C3'        9.6480   24.9910  -24.3100 C.3    28  DG28        0.1559
    566  O3'        8.8260   23.8470  -24.0850 O.3    28  DG28       -0.3138
    567  C2'       10.8510   24.4550  -25.0720 C.3    28  DG28        0.0865
    568  C1'       10.2040   24.2280  -26.4350 C.3    28  DG28        0.2094
    569  N9         9.6040   23.0080  -27.3660 N.ar   28  DG28       -0.2713
    570  C8        10.9370   22.6890  -27.4650 C.ar   28  DG28        0.1816
    571  N7        11.2150   21.9570  -28.5090 N.ar   28  DG28       -0.2173
    572  C5         9.9970   21.7820  -29.1400 C.ar   28  DG28        0.1760
    573  C6         9.6640   21.0750  -30.3240 C.ar   28  DG28        0.3162
    574  O6        10.4160   20.4410  -31.0750 O.2    28  DG28       -0.2621
    575  N1         8.3040   21.1510  -30.6100 N.ar   28  DG28       -0.0952
    576  C2         7.3790   21.8250  -29.8490 C.ar   28  DG28        0.2755
    577  N2         6.1130   21.7850  -30.2870 N.pl3  28  DG28       -0.0849
    578  N3         7.6730   22.4850  -28.7470 N.ar   28  DG28       -0.1908
    579  C4         8.9880   22.4250  -28.4490 C.ar   28  DG28        0.1723
    580  P          6.9990   23.5150  -23.1590 P.3    29  DA29        0.2141
    581  OP1        6.4640   24.0490  -21.8890 O.3    29  DA29       -0.4373
    582  OP2        7.9810   22.4080  -23.1700 O.2    29  DA29       -0.5172
    583  O5'        5.7770   22.9570  -24.0280 O.3    29  DA29       -0.3114
    584  C5'        4.5730   23.6960  -23.9440 C.3    29  DA29        0.1811
    585  C4'        3.6190   23.3570  -25.0540 C.3    29  DA29        0.1746
    586  O4'        4.3190   23.3440  -26.3220 O.3    29  DA29       -0.3327
    587  C3'        2.9940   21.9780  -25.0000 C.3    29  DA29        0.1558
    588  O3'        1.9670   21.8730  -24.0370 O.3    29  DA29       -0.3138
    589  C2'        2.5090   21.8160  -26.4310 C.3    29  DA29        0.0865
    590  C1'        3.6890   22.4240  -27.1890 C.3    29  DA29        0.2094
    591  N9         4.5970   21.3270  -27.5530 N.ar   29  DA29       -0.2714
    592  C8         5.8530   21.1310  -27.0400 C.ar   29  DA29        0.1815
    593  N7         6.5310   20.1870  -27.6500 N.ar   29  DA29       -0.2193
    594  C5         5.6610   19.7320  -28.6280 C.ar   29  DA29        0.1518
    595  C6         5.7820   18.7360  -29.6120 C.ar   29  DA29        0.1919
    596  N6         6.8770   17.9900  -29.7780 N.pl3  29  DA29       -0.1054
    597  N1         4.7280   18.5310  -30.4300 N.ar   29  DA29       -0.2040
    598  C2         3.6320   19.2810  -30.2640 C.ar   29  DA29        0.2016
    599  N3         3.3990   20.2460  -29.3770 N.ar   29  DA29       -0.2048
    600  C4         4.4650   20.4240  -28.5800 C.ar   29  DA29        0.1691
    601  P          1.9970   20.6520  -23.2120 P.3    30  DT30        0.2141
    602  OP1        1.0070   20.7470  -22.1080 O.3    30  DT30       -0.4373
    603  OP2        3.2380   19.8560  -23.0180 O.2    30  DT30       -0.5172
    604  O5'        1.2790   20.0620  -24.5160 O.3    30  DT30       -0.3114
    605  C5'       -0.0180   20.5100  -24.9400 C.3    30  DT30        0.1811
    606  C4'       -0.5720   19.6030  -26.0310 C.3    30  DT30        0.1746
    607  O4'        0.4000   19.5300  -27.1100 O.3    30  DT30       -0.3327
    608  C3'       -0.8260   18.1460  -25.6560 C.3    30  DT30        0.1558
    609  O3'       -2.0870   17.9310  -25.0260 O.3    30  DT30       -0.3138
    610  C2'       -0.7080   17.4240  -26.9950 C.3    30  DT30        0.0866
    611  C1'        0.4010   18.2270  -27.6730 C.3    30  DT30        0.2106
    612  N1         1.6650   17.5160  -27.4160 N.ar   30  DT30       -0.2559
    613  C2         2.0240   16.4740  -28.2500 C.ar   30  DT30        0.3545
    614  O2         1.2680   15.9930  -29.0750 O.2    30  DT30       -0.2443
    615  N3         3.3080   16.0120  -28.0840 N.ar   30  DT30       -0.1533
    616  C4         4.2470   16.4770  -27.1870 C.ar   30  DT30        0.2804
    617  O4         5.3610   15.9600  -27.1550 O.2    30  DT30       -0.2654
    618  C5         3.7980   17.5580  -26.3560 C.ar   30  DT30        0.0534
    619  C6         2.5550   18.0270  -26.4970 C.ar   30  DT30        0.0824
    620  C7         4.7470   18.1330  -25.3470 C.3    30  DT30        0.0377
    621  P         -2.0680   17.1590  -23.9720 P.3    31  DA31        0.2141
    622  OP1       -3.1280   17.4950  -22.9740 O.3    31  DA31       -0.4373
    623  OP2       -0.6980   16.8930  -23.5200 O.2    31  DA31       -0.5172
    624  O5'       -2.5620   15.9610  -24.9110 O.3    31  DA31       -0.3114
    625  C5'       -3.8380   16.0370  -25.5630 C.3    31  DA31        0.1811
    626  C4'       -4.0740   14.7530  -26.3390 C.3    31  DA31        0.1744
    627  O4'       -3.3760   14.8720  -27.6140 O.3    31  DA31       -0.3349
    628  C3'       -3.4970   13.4830  -25.7060 C.3    31  DA31        0.1555
    629  O3'       -4.3870   12.8290  -24.7990 O.3    31  DA31       -0.3139
    630  C2'       -3.2540   12.6240  -26.9310 C.3    31  DA31        0.0835
    631  C1'       -2.7400   13.6530  -27.9390 C.3    31  DA31        0.1974
    632  N9        -1.2820   13.7510  -27.8710 N.pl3  31  DA31       -0.2458
    633  C8        -0.5090   14.7230  -27.2920 C.2    31  DA31        0.1669
    634  N7         0.7810   14.5200  -27.4190 N.2    31  DA31       -0.2209
    635  C5         0.8610   13.3320  -28.1290 C.2    31  DA31        0.1887
    636  C6         1.9540   12.5750  -28.5860 C.2    31  DA31        0.4115
    637  N6         3.2280   12.9210  -28.3860 N.pl3  31  DA31        0.2140
    638  N1         1.6890   11.4380  -29.2630 N.pl3  31  DA31       -0.0204
    639  C2         0.4120   11.0930  -29.4640 C.2    31  DA31        0.3068
    640  N3        -0.6990   11.7210  -29.0850 N.2    31  DA31       -0.2039
    641  C4        -0.4010   12.8460  -28.4130 C.3    31  DA31        0.2331
    642  P         -3.8170   12.0020  -23.4900 P.3    32  DT32        0.2141
    643  OP1       -4.8780   11.1800  -22.8710 O.2    32  DT32       -0.5172
    644  OP2       -3.0130   12.9180  -22.6480 O.3    32  DT32       -0.4373
    645  O5'       -2.8290   11.0140  -24.2700 O.3    32  DT32       -0.3114
    646  C5'       -3.3440    9.7990  -24.7890 C.3    32  DT32        0.1811
    647  C4'       -2.5140    9.3160  -25.9600 C.3    32  DT32        0.1746
    648  O4'       -1.8070   10.4370  -26.5360 O.3    32  DT32       -0.3327
    649  C3'       -1.4150    8.3390  -25.5800 C.3    32  DT32        0.1558
    650  O3'       -1.9280    7.0060  -25.4690 O.3    32  DT32       -0.3138
    651  C2'       -0.4150    8.5130  -26.7210 C.3    32  DT32        0.0866
    652  C1'       -0.5260   10.0120  -26.9700 C.3    32  DT32        0.2106
    653  N1         0.5650   10.7840  -26.3420 N.ar   32  DT32       -0.2559
    654  C2         1.8380   10.7270  -26.8770 C.ar   32  DT32        0.3545
    655  O2         2.1500    9.9590  -27.7700 O.2    32  DT32       -0.2443
    656  N3         2.7400   11.6050  -26.3250 N.ar   32  DT32       -0.1533
    657  C4         2.5010   12.5130  -25.3150 C.ar   32  DT32        0.2804
    658  O4         3.4140   13.2370  -24.9250 O.2    32  DT32       -0.2654
    659  C5         1.1560   12.5110  -24.8120 C.ar   32  DT32        0.0534
    660  C6         0.2590   11.6680  -25.3300 C.ar   32  DT32        0.0824
    661  C7         0.7970   13.4640  -23.7110 C.3    32  DT32        0.0377
    662  P         -1.3840    6.1680  -24.3240 P.3    33  DT33        0.2141
    663  OP1       -2.5130    5.2160  -24.2620 O.2    33  DT33       -0.5172
    664  OP2       -0.9870    6.9610  -23.1410 O.3    33  DT33       -0.4373
    665  O5'       -0.0680    5.3860  -24.7830 O.3    33  DT33       -0.3114
    666  C5'       -0.1280    4.8780  -26.1070 C.3    33  DT33        0.1811
    667  C4'        1.2010    4.9170  -26.8080 C.3    33  DT33        0.1746
    668  O4'        1.6650    6.2810  -26.9390 O.3    33  DT33       -0.3327
    669  C3'        2.3380    4.2380  -26.0760 C.3    33  DT33        0.1558
    670  O3'        2.2830    2.8320  -26.1640 O.3    33  DT33       -0.3138
    671  C2'        3.5420    4.8400  -26.7680 C.3    33  DT33        0.0866
    672  C1'        3.0800    6.2850  -26.9060 C.3    33  DT33        0.2106
    673  N1         3.5640    7.2310  -25.8160 N.ar   33  DT33       -0.2559
    674  C2         4.9050    7.5520  -25.7320 C.ar   33  DT33        0.3545
    675  O2         5.7490    7.0790  -26.4730 O.2    33  DT33       -0.2443
    676  N3         5.2270    8.4510  -24.7440 N.ar   33  DT33       -0.1533
    677  C4         4.3610    9.0470  -23.8510 C.ar   33  DT33        0.2804
    678  O4         4.8000    9.8370  -23.0190 O.2    33  DT33       -0.2654
    679  C5         2.9860    8.6620  -24.0010 C.ar   33  DT33        0.0534
    680  C6         2.6460    7.7900  -24.9540 C.ar   33  DT33        0.0824
    681  C7         1.9660    9.2560  -23.0750 C.3    33  DT33        0.0377
    682  P          2.4790    1.9590  -24.7220 P.3    34  DA34        0.2141
    683  OP1        2.0030    0.5760  -24.9210 O.2    34  DA34       -0.5172
    684  OP2        1.9610    2.7840  -23.5940 O.3    34  DA34       -0.4373
    685  O5'        4.0460    1.8960  -24.5550 O.3    34  DA34       -0.3114
    686  C5'        4.8410    1.3340  -25.5730 C.3    34  DA34        0.1811
    687  C4'        6.2640    1.5310  -25.2190 C.3    34  DA34        0.1746
    688  O4'        6.5150    2.9590  -25.1340 O.3    34  DA34       -0.3327
    689  C3'        6.5940    0.9830  -23.8360 C.3    34  DA34        0.1558
    690  O3'        7.8970    0.4790  -23.9070 O.3    34  DA34       -0.3138
    691  C2'        6.6410    2.2360  -22.9760 C.3    34  DA34        0.0865
    692  C1'        7.2600    3.1910  -23.9710 C.3    34  DA34        0.2094
    693  N9         7.2730    4.3790  -23.4570 N.ar   34  DA34       -0.2714
    694  C8         6.0900    4.7680  -22.8860 C.ar   34  DA34        0.1815
    695  N7         6.2160    5.7490  -22.0240 N.ar   34  DA34       -0.2193
    696  C5         7.5750    6.0230  -22.0290 C.ar   34  DA34        0.1518
    697  C6         8.3540    6.9610  -21.3280 C.ar   34  DA34        0.1919
    698  N6         7.8500    7.8320  -20.4510 N.pl3  34  DA34       -0.1054
    699  N1         9.6830    6.9710  -21.5630 N.ar   34  DA34       -0.2040
    700  C2        10.1870    6.0990  -22.4430 C.ar   34  DA34        0.2016
    701  N3         9.5570    5.1720  -23.1630 N.ar   34  DA34       -0.2048
    702  C4         8.2390    5.1870  -22.9060 C.ar   34  DA34        0.1691
    703  P          8.0980   -1.0500  -23.4050 P.3    35  DT35        0.2141
    704  OP1        8.4360   -2.2410  -24.2140 O.2    35  DT35       -0.5172
    705  OP2        7.4760   -1.2220  -22.0760 O.3    35  DT35       -0.4373
    706  O5'        9.4350   -0.2360  -23.0840 O.3    35  DT35       -0.3114
    707  C5'       10.2070    0.1470  -24.2120 C.3    35  DT35        0.1811
    708  C4'       11.4470    0.9150  -23.8450 C.3    35  DT35        0.1746
    709  O4'       11.1160    2.3250  -23.6960 O.3    35  DT35       -0.3327
    710  C3'       12.1280    0.4710  -22.5540 C.3    35  DT35        0.1558
    711  O3'       13.3450   -0.2270  -22.7910 O.3    35  DT35       -0.3138
    712  C2'       12.4160    1.7570  -21.7790 C.3    35  DT35        0.0866
    713  C1'       11.7580    2.8820  -22.5660 C.3    35  DT35        0.2106
    714  N1        10.7510    3.4200  -21.6630 N.ar   35  DT35       -0.2559
    715  C2        11.3320    4.3040  -20.7730 C.ar   35  DT35        0.3545
    716  O2        12.4490    4.7650  -20.9290 O.2    35  DT35       -0.2443
    717  N3        10.5560    4.6310  -19.6880 N.ar   35  DT35       -0.1533
    718  C4         9.2850    4.1730  -19.4080 C.ar   35  DT35        0.2804
    719  O4         8.7130    4.5580  -18.3920 O.2    35  DT35       -0.2654
    720  C5         8.7510    3.2580  -20.3780 C.ar   35  DT35        0.0534
    721  C6         9.4840    2.9240  -21.4430 C.ar   35  DT35        0.0824
    722  C7         7.3740    2.7030  -20.1630 C.3    35  DT35        0.0377
    723  P         13.7130   -1.4080  -21.6830 P.3    36  DT36        0.2141
    724  OP1       14.7110   -2.4310  -22.0620 O.2    36  DT36       -0.5172
    725  OP2       12.5850   -1.7600  -20.7940 O.3    36  DT36       -0.4373
    726  O5'       14.4970   -0.1720  -21.0410 O.3    36  DT36       -0.3114
    727  C5'       15.8860    0.0210  -21.2860 C.3    36  DT36        0.1811
    728  C4'       16.3100    1.4090  -20.8340 C.3    36  DT36        0.1746
    729  O4'       15.2380    2.3600  -21.0620 O.3    36  DT36       -0.3327
    730  C3'       16.6030    1.5560  -19.3490 C.3    36  DT36        0.1558
    731  O3'       17.9100    1.0930  -19.0520 O.3    36  DT36       -0.3138
    732  C2'       16.4990    3.0670  -19.2020 C.3    36  DT36        0.0866
    733  C1'       15.2680    3.3550  -20.0550 C.3    36  DT36        0.2106
    734  N1        13.9950    3.2420  -19.2760 N.ar   36  DT36       -0.2559
    735  C2        13.6510    4.2800  -18.4310 C.ar   36  DT36        0.3545
    736  O2        14.3800    5.2330  -18.2190 O.2    36  DT36       -0.2443
    737  N3        12.4170    4.1620  -17.8390 N.ar   36  DT36       -0.1533
    738  C4        11.5120    3.1340  -18.0040 C.ar   36  DT36        0.2804
    739  O4        10.4410    3.1690  -17.4040 O.2    36  DT36       -0.2654
    740  C5        11.9430    2.0940  -18.8950 C.ar   36  DT36        0.0534
    741  C6        13.1380    2.1830  -19.4850 C.ar   36  DT36        0.0824
    742  C7        11.0290    0.9300  -19.1390 C.3    36  DT36        0.0377
    743  P         18.1920    0.5890  -17.6230 P.3    37  DT37        0.2141
    744  OP1       19.5100   -0.0810  -17.5750 O.2    37  DT37       -0.5172
    745  OP2       16.9530   -0.1870  -17.4020 O.3    37  DT37       -0.4373
    746  O5'       18.2210    1.8040  -16.5850 O.3    37  DT37       -0.3114
    747  C5'       19.4540    2.3510  -16.1320 C.3    37  DT37        0.1811
    748  C4'       19.2120    3.6700  -15.4170 C.3    37  DT37        0.1746
    749  O4'       18.1130    4.3830  -16.0400 O.3    37  DT37       -0.3327
    750  C3'       18.7830    3.5610  -13.9620 C.3    37  DT37        0.1558
    751  O3'       19.9100    3.3500  -13.1260 O.3    37  DT37       -0.3138
    752  C2'       18.1840    4.9430  -13.7520 C.3    37  DT37        0.0866
    753  C1'       17.4120    5.1230  -15.0560 C.3    37  DT37        0.2106
    754  N1        15.9720    4.6230  -15.0020 N.ar   37  DT37       -0.2559
    755  C2        14.9690    5.4750  -14.5780 C.ar   37  DT37        0.3545
    756  O2        15.1900    6.5560  -14.0630 O.2    37  DT37       -0.2443
    757  N3        13.6910    5.0120  -14.7770 N.ar   37  DT37       -0.1533
    758  C4        13.3230    3.8110  -15.3460 C.ar   37  DT37        0.2804
    759  O4        12.1310    3.5350  -15.4590 O.2    37  DT37       -0.2654
    760  C5        14.4210    2.9820  -15.7600 C.ar   37  DT37        0.0534
    761  C6        15.6730    3.4080  -15.5780 C.ar   37  DT37        0.0824
    762  C7        14.1240    1.6540  -16.3900 C.3    37  DT37        0.0377
    763  P         19.7000    2.8090  -11.8260 P.3    38  DT38        0.2141
    764  OP1       20.8500    2.4200  -10.9880 O.3    38  DT38       -0.4373
    765  OP2       18.6650    1.7930  -12.1150 O.2    38  DT38       -0.5172
    766  O5'       19.0130    4.0930  -11.1620 O.3    38  DT38       -0.3114
    767  C5'       19.8270    5.1510  -10.7020 C.3    38  DT38        0.1811
    768  C4'       18.9940    6.2420  -10.0910 C.3    38  DT38        0.1746
    769  O4'       17.9460    6.6180  -11.0090 O.3    38  DT38       -0.3327
    770  C3'       18.2150    5.8090   -8.8710 C.3    38  DT38        0.1558
    771  O3'       19.1330    5.9630   -7.7940 O.3    38  DT38       -0.3138
    772  C2'       17.0540    6.7890   -8.8060 C.3    38  DT38        0.0866
    773  C1'       16.7880    7.0040  -10.2820 C.3    38  DT38        0.2106
    774  N1        15.6360    6.2440  -10.7770 N.ar   38  DT38       -0.2559
    775  C2        14.3800    6.7600  -10.5220 C.ar   38  DT38        0.3545
    776  O2        14.1980    7.8930  -10.1120 O.2    38  DT38       -0.2443
    777  N3        13.3370    5.8990  -10.7660 N.ar   38  DT38       -0.1533
    778  C4        13.4230    4.6020  -11.2270 C.ar   38  DT38        0.2804
    779  O4        12.3950    3.9520  -11.3980 O.2    38  DT38       -0.2654
    780  C5        14.7610    4.1380  -11.4670 C.ar   38  DT38        0.0534
    781  C6        15.7930    4.9550  -11.2380 C.ar   38  DT38        0.0824
    782  C7        14.9600    2.7390  -11.9700 C.3    38  DT38        0.0377
    783  P         18.8700    4.9640   -6.5660 P.3    39  DT39        0.2141
    784  OP1       20.2920    4.6180   -6.3030 O.3    39  DT39       -0.4373
    785  OP2       17.8550    3.8770   -6.6800 O.2    39  DT39       -0.5172
    786  O5'       18.3960    5.9400   -5.4030 O.3    39  DT39       -0.3114
    787  C5'       18.4070    7.3560   -5.5800 C.3    39  DT39        0.1811
    788  C4'       17.0260    7.9210   -5.3560 C.3    39  DT39        0.1746
    789  O4'       16.2000    7.7800   -6.5370 O.3    39  DT39       -0.3327
    790  C3'       16.2260    7.2480   -4.2560 C.3    39  DT39        0.1558
    791  O3'       16.6110    7.7380   -2.9790 O.3    39  DT39       -0.3138
    792  C2'       14.7820    7.5880   -4.6160 C.3    39  DT39        0.0866
    793  C1'       14.8470    7.7280   -6.1400 C.3    39  DT39        0.2106
    794  N1        14.1390    6.8380   -6.8990 N.ar   39  DT39       -0.2559
    795  C2        12.8410    7.0340   -7.3320 C.ar   39  DT39        0.3545
    796  O2        12.2410    8.0830   -7.1800 O.2    39  DT39       -0.2443
    797  N3        12.2660    5.9510   -7.9520 N.ar   39  DT39       -0.1533
    798  C4        12.8460    4.7200   -8.1770 C.ar   39  DT39        0.2804
    799  O4        12.2020    3.8430   -8.7490 O.2    39  DT39       -0.2654
    800  C5        14.1940    4.5950   -7.6980 C.ar   39  DT39        0.0534
    801  C6        14.7770    5.6320   -7.0920 C.ar   39  DT39        0.0824
    802  C7        14.9120    3.2930   -7.8950 C.3    39  DT39        0.0377
    803  P         15.8010    7.1450   -1.5380 P.3    40  DG40        0.2141
    804  OP1       16.5410    7.5730   -0.3220 O.3    40  DG40       -0.4373
    805  OP2       15.3990    5.7190   -1.6890 O.2    40  DG40       -0.5172
    806  O5'       14.4700    8.0070   -1.6200 O.3    40  DG40       -0.3114
    807  C5'       13.3210    7.6200   -0.8580 C.3    40  DG40        0.1811
    808  C4'       12.0890    8.3510   -1.3320 C.3    40  DG40        0.1746
    809  O4'       11.9940    8.3060   -2.7810 O.3    40  DG40       -0.3327
    810  C3'       10.8180    7.6890   -0.8340 C.3    40  DG40        0.1558
    811  O3'       10.4910    8.1200    0.4800 O.3    40  DG40       -0.3138
    812  C2'        9.7910    8.0580   -1.8950 C.3    40  DG40        0.0865
    813  C1'       10.6490    8.0660   -3.1670 C.3    40  DG40        0.2094
    814  N9        10.7410    6.8960   -3.9850 N.ar   40  DG40       -0.2713
    815  C8        11.8000    6.0300   -4.1150 C.ar   40  DG40        0.1816
    816  N7        11.4970    4.9390   -4.7640 N.ar   40  DG40       -0.2173
    817  C5        10.1600    5.0900   -5.0830 C.ar   40  DG40        0.1748
    818  C6         9.2750    4.2290   -5.7820 C.ar   40  DG40        0.3023
    819  O6         9.5160    3.1210   -6.2770 O.2    40  DG40       -0.2633
    820  N1         7.9960    4.7690   -5.8840 N.ar   40  DG40       -0.1709
    821  C2         7.6160    5.9880   -5.3750 C.ar   40  DG40        0.2606
    822  N2         6.3390    6.3400   -5.5740 N.pl3  40  DG40       -0.0859
    823  N3         8.4270    6.7980   -4.7220 N.ar   40  DG40       -0.1918
    824  C4         9.6740    6.2930   -4.6100 C.ar   40  DG40        0.1722
    825  P          9.9030    6.9980    1.7170 P.3    41  DA41        0.2141
    826  OP1        9.6440    7.6510    3.0250 O.3    41  DA41       -0.4373
    827  OP2       10.5110    5.6370    1.6830 O.2    41  DA41       -0.5172
    828  O5'        8.5400    6.9850    0.8840 O.3    41  DA41       -0.3114
    829  C5'        7.7210    8.1730    0.7770 C.3    41  DA41        0.1811
    830  C4'        6.5600    7.9450   -0.1780 C.3    41  DA41        0.1746
    831  O4'        7.0760    7.6300   -1.4970 O.3    41  DA41       -0.3327
    832  C3'        5.6070    6.8030    0.1570 C.3    41  DA41        0.1558
    833  O3'        4.5660    7.2200    1.0410 O.3    41  DA41       -0.3138
    834  C2'        5.0380    6.4240   -1.2060 C.3    41  DA41        0.0865
    835  C1'        6.2310    6.6820   -2.1290 C.3    41  DA41        0.2094
    836  N9         7.0150    5.4370   -2.3960 N.ar   41  DA41       -0.2714
    837  C8         8.2280    5.0440   -1.8950 C.ar   41  DA41        0.1815
    838  N7         8.6660    3.9140   -2.3970 N.ar   41  DA41       -0.2193
    839  C5         7.6720    3.5390   -3.2870 C.ar   41  DA41        0.1518
    840  C6         7.5350    2.4300   -4.1400 C.ar   41  DA41        0.1919
    841  N6         8.4430    1.4560   -4.2380 N.pl3  41  DA41       -0.1054
    842  N1         6.4200    2.3560   -4.8980 N.ar   41  DA41       -0.2040
    843  C2         5.5120    3.3330   -4.8000 C.ar   41  DA41        0.2016
    844  N3         5.5280    4.4230   -4.0370 N.ar   41  DA41       -0.2048
    845  C4         6.6480    4.4670   -3.2960 C.ar   41  DA41        0.1691
    846  P          3.9730    6.2890    1.9270 P.3    42  DT42        0.2141
    847  OP1        3.1310    7.1080    2.8270 O.3    42  DT42       -0.4373
    848  OP2        4.2960    4.8870    2.2730 O.2    42  DT42       -0.5172
    849  O5'        3.2740    6.1960    0.4810 O.3    42  DT42       -0.3114
    850  C5'        2.4780    7.2620   -0.0290 C.3    42  DT42        0.1811
    851  C4'        1.4400    6.8090   -1.0360 C.3    42  DT42        0.1746
    852  O4'        2.0640    6.5150   -2.3160 O.3    42  DT42       -0.3327
    853  C3'        0.6620    5.5430   -0.7000 C.3    42  DT42        0.1558
    854  O3'       -0.4020    5.7620    0.2130 O.3    42  DT42       -0.3138
    855  C2'        0.1910    5.0850   -2.0730 C.3    42  DT42        0.0866
    856  C1'        1.3900    5.4450   -2.9500 C.3    42  DT42        0.2106
    857  N1         2.4660    4.2020   -3.2180 N.ar   42  DT42       -0.2559
    858  C2         2.2640    3.5230   -4.4050 C.ar   42  DT42        0.3545
    859  O2         1.4490    3.8730   -5.2400 O.2    42  DT42       -0.2443
    860  N3         3.0530    2.4120   -4.5800 N.ar   42  DT42       -0.1533
    861  C4         4.0030    1.9240   -3.7080 C.ar   42  DT42        0.2804
    862  O4         4.6350    0.9130   -4.0060 O.2    42  DT42       -0.2654
    863  C5         4.1530    2.6830   -2.4980 C.ar   42  DT42        0.0534
    864  C6         3.3990    3.7670   -2.3020 C.ar   42  DT42        0.0824
    865  C7         5.1620    2.2310   -1.4840 C.3    42  DT42        0.0377
    866  P         -0.7880    4.5900    1.4040 P.3    43  DA43        0.2141
    867  OP1       -1.5560    4.7870    2.6610 O.3    43  DA43       -0.4373
    868  OP2        0.4930    3.8470    1.4370 O.2    43  DA43       -0.5172
    869  O5'       -1.7320    3.8440    0.3630 O.3    43  DA43       -0.3114
    870  C5'       -3.0280    4.3440    0.0790 C.3    43  DA43        0.1811
    871  C4'       -3.6460    3.5740   -1.0570 C.3    43  DA43        0.1746
    872  O4'       -2.7970    3.6880   -2.2260 O.3    43  DA43       -0.3327
    873  C3'       -3.7880    2.0730   -0.8670 C.3    43  DA43        0.1558
    874  O3'       -4.9710    1.7920   -0.1320 O.3    43  DA43       -0.3138
    875  C2'       -3.9230    1.5970   -2.3110 C.3    43  DA43        0.0865
    876  C1'       -2.9650    2.5430   -3.0380 C.3    43  DA43        0.2094
    877  N9        -1.6330    2.0220   -3.3270 N.ar   43  DA43       -0.2714
    878  C8        -0.4400    2.4340   -2.7940 C.ar   43  DA43        0.1815
    879  N7         0.6030    1.8060   -3.2830 N.ar   43  DA43       -0.2193
    880  C5         0.0580    0.9220   -4.2000 C.ar   43  DA43        0.1518
    881  C6         0.6380   -0.0300   -5.0570 C.ar   43  DA43        0.1919
    882  N6         1.9520   -0.2560   -5.1290 N.pl3  43  DA43       -0.1054
    883  N1        -0.1890   -0.7500   -5.8450 N.ar   43  DA43       -0.2040
    884  C2        -1.5050   -0.5230   -5.7720 C.ar   43  DA43        0.2016
    885  N3        -2.1680    0.3430   -5.0090 N.ar   43  DA43       -0.2048
    886  C4        -1.3180    1.0420   -4.2370 C.ar   43  DA43        0.1691
    887  P         -5.0440    0.6260    1.0370 P.3    44  DC44        0.2141
    888  OP1       -6.3080    0.8210    1.7780 O.2    44  DC44       -0.5172
    889  OP2       -3.7830    0.4160    1.7790 O.3    44  DC44       -0.4373
    890  O5'       -5.2030   -0.6270    0.0650 O.3    44  DC44       -0.3114
    891  C5'       -6.3490   -0.7550   -0.7520 C.3    44  DC44        0.1811
    892  C4'       -5.9520   -1.3670   -2.0760 C.3    44  DC44        0.1746
    893  O4'       -4.7900   -0.6660   -2.6040 O.3    44  DC44       -0.3327
    894  C3'       -5.4930   -2.8270   -2.0470 C.3    44  DC44        0.1558
    895  O3'       -6.5530   -3.7900   -1.8840 O.3    44  DC44       -0.3138
    896  C2'       -4.8790   -2.8820   -3.4430 C.3    44  DC44        0.0866
    897  C1'       -4.1530   -1.5330   -3.5270 C.3    44  DC44        0.2106
    898  N1        -2.7910   -1.8150   -3.2410 N.ar   44  DC44       -0.2556
    899  C2        -1.9100   -2.3970   -4.1600 C.ar   44  DC44        0.3531
    900  O2        -2.3760   -2.9050   -5.1940 O.2    44  DC44       -0.2443
    901  N3        -0.5820   -2.3910   -3.8950 N.ar   44  DC44       -0.1739
    902  C4        -0.1280   -1.8350   -2.7710 C.ar   44  DC44        0.1759
    903  N4         1.1890   -1.8530   -2.5540 N.pl3  44  DC44       -0.1070
    904  C5        -1.0040   -1.2400   -1.8270 C.ar   44  DC44        0.0566
    905  C6        -2.3150   -1.2480   -2.0920 C.ar   44  DC44        0.0849
    906  P         -6.2230   -5.2680   -1.3930 P.3    45  DC45        0.2141
    907  OP1       -7.4330   -5.9710   -0.9340 O.2    45  DC45       -0.5172
    908  OP2       -5.1390   -4.9770   -0.4380 O.3    45  DC45       -0.4373
    909  O5'       -5.5160   -6.1280   -2.5390 O.3    45  DC45       -0.3114
    910  C5'       -6.3000   -6.9690   -3.3680 C.3    45  DC45        0.1811
    911  C4'       -5.5480   -7.3490   -4.6160 C.3    45  DC45        0.1746
    912  O4'       -4.6250   -6.2850   -4.9500 O.3    45  DC45       -0.3327
    913  C3'       -4.6300   -8.5530   -4.5170 C.3    45  DC45        0.1558
    914  O3'       -5.2990   -9.7960   -4.5530 O.3    45  DC45       -0.3138
    915  C2'       -3.6820   -8.3260   -5.6850 C.3    45  DC45        0.0866
    916  C1'       -3.4570   -6.8320   -5.5250 C.3    45  DC45        0.2106
    917  N1        -2.2890   -6.6220   -4.5430 N.ar   45  DC45       -0.2556
    918  C2        -0.9590   -6.7840   -4.9470 C.ar   45  DC45        0.3531
    919  O2        -0.7280   -7.3110   -6.0490 O.2    45  DC45       -0.2443
    920  N3         0.0350   -6.3630   -4.1280 N.ar   45  DC45       -0.1739
    921  C4        -0.2590   -5.8040   -2.9540 C.ar   45  DC45        0.1759
    922  N4         0.7530   -5.4050   -2.1810 N.pl3  45  DC45       -0.1070
    923  C5        -1.6000   -5.6310   -2.5260 C.ar   45  DC45        0.0566
    924  C6        -2.5790   -6.0480   -3.3380 C.ar   45  DC45        0.0849
    925  P         -5.0100  -10.7910   -3.3640 P.3    46  DC46        0.2141
    926  OP1       -6.1520  -11.7000   -3.5790 O.2    46  DC46       -0.5172
    927  OP2       -4.6810  -10.3270   -1.9960 O.3    46  DC46       -0.4373
    928  O5'       -3.6960  -11.4270   -4.0140 O.3    46  DC46       -0.3114
    929  C5'       -3.8230  -12.4910   -4.9400 C.3    46  DC46        0.1811
    930  C4'       -2.4800  -12.8240   -5.5570 C.3    46  DC46        0.1746
    931  O4'       -1.7180  -11.6170   -5.7940 O.3    46  DC46       -0.3327
    932  C3'       -1.5530  -13.6480   -4.6820 C.3    46  DC46        0.1558
    933  O3'       -1.9290  -15.0040   -4.6790 O.3    46  DC46       -0.3138
    934  C2'       -0.2170  -13.4000   -5.3680 C.3    46  DC46        0.0866
    935  C1'       -0.3410  -11.9010   -5.6020 C.3    46  DC46        0.2106
    936  N1         0.2510  -11.1130   -4.4600 N.ar   46  DC46       -0.2556
    937  C2         1.6310  -10.8910   -4.3890 C.ar   46  DC46        0.3531
    938  O2         2.3780  -11.5190   -5.1590 O.2    46  DC46       -0.2443
    939  N3         2.1100  -10.0030   -3.4860 N.ar   46  DC46       -0.1739
    940  C4         1.2700   -9.3530   -2.6800 C.ar   46  DC46        0.1759
    941  N4         1.7880   -8.4860   -1.8060 N.pl3  46  DC46       -0.1070
    942  C5        -0.1310   -9.5640   -2.7360 C.ar   46  DC46        0.0566
    943  C6        -0.6000  -10.4420   -3.6290 C.ar   46  DC46        0.0849
    944  P         -2.0430  -15.6500   -3.2910 P.3    47  DC47        0.2141
    945  OP1       -2.6130  -17.0390   -3.2640 O.2    47  DC47       -0.5172
    946  OP2       -2.5620  -14.6050   -2.3480 O.3    47  DC47       -0.4373
    947  O5'       -0.4680  -15.7390   -3.1130 O.3    47  DC47       -0.3114
    948  C5'        0.2780  -16.6670   -3.8870 C.3    47  DC47        0.1811
    949  C4'        1.7490  -16.5510   -3.5930 C.3    47  DC47        0.1746
    950  O4'        2.2190  -15.2410   -3.9850 O.3    47  DC47       -0.3327
    951  C3'        2.1650  -16.6950   -2.1410 C.3    47  DC47        0.1558
    952  O3'        2.2010  -18.0920   -1.8070 O.3    47  DC47       -0.3138
    953  C2'        3.5140  -15.9580   -2.1110 C.3    47  DC47        0.0866
    954  C1'        3.3270  -14.8830   -3.1900 C.3    47  DC47        0.2106
    955  N1         2.9520  -13.5820   -2.8400 N.ar   47  DC47       -0.2556
    956  C2         3.9650  -12.9080   -2.1480 C.ar   47  DC47        0.3531
    957  O2         5.1330  -13.3200   -2.2470 O.2    47  DC47       -0.2443
    958  N3         3.6430  -11.8300   -1.3940 N.ar   47  DC47       -0.1739
    959  C4         2.3760  -11.4230   -1.3170 C.ar   47  DC47        0.1759
    960  N4         2.1070  -10.3570   -0.5600 N.pl3  47  DC47       -0.1070
    961  C5         1.3350  -12.0930   -2.0100 C.ar   47  DC47        0.0566
    962  C6         1.6570  -13.1560   -2.7540 C.ar   47  DC47        0.0849
    963  P          1.6690  -18.6500   -0.3590 P.3    48  DT48        0.2141
    964  OP1        1.4260  -20.1040   -0.2130 O.2    48  DT48       -0.5172
    965  OP2        0.6010  -17.6810   -0.0220 O.3    48  DT48       -0.4373
    966  O5'        2.9220  -18.1860    0.5250 O.3    48  DT48       -0.3114
    967  C5'        4.1750  -18.8500    0.4120 C.3    48  DT48        0.1811
    968  C4'        5.2200  -18.2630    1.3320 C.3    48  DT48        0.1746
    969  O4'        5.5500  -16.9180    0.8990 O.3    48  DT48       -0.3327
    970  C3'        4.8160  -18.0950    2.7900 C.3    48  DT48        0.1558
    971  O3'        4.9380  -19.2840    3.5560 O.3    48  DT48       -0.3138
    972  C2'        5.6990  -16.9480    3.2740 C.3    48  DT48        0.0866
    973  C1'        5.8250  -16.0970    2.0150 C.3    48  DT48        0.2106
    974  N1         4.8400  -14.9720    2.0000 N.ar   48  DT48       -0.2559
    975  C2         5.1400  -13.8960    2.8140 C.ar   48  DT48        0.3545
    976  O2         6.1490  -13.8380    3.4940 O.2    48  DT48       -0.2443
    977  N3         4.2100  -12.8840    2.8040 N.ar   48  DT48       -0.1533
    978  C4         3.0380  -12.8420    2.0790 C.ar   48  DT48        0.2804
    979  O4         2.3030  -11.8620    2.1740 O.2    48  DT48       -0.2654
    980  C5         2.7980  -13.9960    1.2590 C.ar   48  DT48        0.0534
    981  C6         3.6850  -14.9940    1.2500 C.ar   48  DT48        0.0824
    982  C7         1.5480  -14.0450    0.4320 C.3    48  DT48        0.0377
    983  P          3.8970  -19.5570    4.9970 P.3    49  DT49        0.2141
    984  OP1        4.0540  -20.9640    5.4250 O.3    49  DT49       -0.4373
    985  OP2        2.5470  -19.0000    4.7590 O.2    49  DT49       -0.5172
    986  O5'        4.5900  -18.5940    6.0360 O.3    49  DT49       -0.3114
    987  C5'        5.5650  -19.1400    6.8520 C.3    49  DT49        0.1811
    988  C4'        6.1950  -18.0040    7.5990 C.3    49  DT49        0.1746
    989  O4'        6.3800  -16.8760    6.7210 O.3    49  DT49       -0.3327
    990  C3'        5.3330  -17.3960    8.6790 C.3    49  DT49        0.1558
    991  O3'        5.3570  -18.2240    9.7890 O.3    49  DT49       -0.3138
    992  C2'        6.0910  -16.1090    8.9120 C.3    49  DT49        0.0866
    993  C1'        6.2710  -15.6870    7.4650 C.3    49  DT49        0.2106
    994  N1         5.1300  -14.9600    6.9320 N.ar   49  DT49       -0.2559
    995  C2         5.0190  -13.5930    7.0990 C.ar   49  DT49        0.3545
    996  O2         5.8020  -12.9390    7.7640 O.2    49  DT49       -0.2443
    997  N3         3.9520  -13.0140    6.4550 N.ar   49  DT49       -0.1533
    998  C4         3.0050  -13.6510    5.6800 C.ar   49  DT49        0.2804
    999  O4         2.1040  -12.9940    5.1650 O.2    49  DT49       -0.2654
   1000  C5         3.1880  -15.0700    5.5560 C.ar   49  DT49        0.0534
   1001  C6         4.2180  -15.6580    6.1710 C.ar   49  DT49        0.0824
   1002  C7         2.2090  -15.8540    4.7330 C.3    49  DT49        0.0377
   1003  P          4.1270  -18.3290   10.7090 P.3    50  DT50        0.2141
   1004  OP1        4.6020  -19.3440   11.6720 O.3    50  DT50       -0.4373
   1005  OP2        2.7770  -18.3940   10.1210 O.2    50  DT50       -0.5172
   1006  O5'        4.2620  -16.9080   11.4040 O.3    50  DT50       -0.3114
   1007  C5'        5.1310  -16.7390   12.4960 C.3    50  DT50        0.1811
   1008  C4'        5.1390  -15.2680   12.8280 C.3    50  DT50        0.1746
   1009  O4'        5.2100  -14.5070   11.6020 O.3    50  DT50       -0.3327
   1010  C3'        3.8590  -14.7280   13.4260 C.3    50  DT50        0.1558
   1011  O3'        3.7460  -15.1270   14.7720 O.3    50  DT50       -0.3138
   1012  C2'        4.1230  -13.2370   13.2620 C.3    50  DT50        0.0866
   1013  C1'        4.6300  -13.2370   11.8320 C.3    50  DT50        0.2106
   1014  N1         3.5360  -13.0440   10.9440 N.ar   50  DT50       -0.2559
   1015  C2         2.9390  -11.8050   10.8090 C.ar   50  DT50        0.3545
   1016  O2         3.2110  -10.8550   11.5210 O.2    50  DT50       -0.2443
   1017  N3         2.0050  -11.7170    9.8050 N.ar   50  DT50       -0.1533
   1018  C4         1.6160  -12.7210    8.9430 C.ar   50  DT50        0.2804
   1019  O4         0.7630  -12.4890    8.0890 O.2    50  DT50       -0.2654
   1020  C5         2.2810  -13.9770    9.1480 C.ar   50  DT50        0.0534
   1021  C6         3.1930  -14.0910   10.1160 C.ar   50  DT50        0.0824
   1022  C7         1.9270  -15.1330    8.2600 C.3    50  DT50        0.0377
   1023  P          2.3210  -15.4610   15.3580 P.3    51  DG51        0.2141
   1024  OP1        1.8980  -16.0360   16.6040 O.3    51  DG51       -0.4373
   1025  OP2        1.8370  -16.0210   14.0600 O.2    51  DG51       -0.5172
   1026  O5'        1.8490  -13.9330   15.4180 O.3    51  DG51       -0.3114
   1027  C5'        2.3120  -13.0430   16.4420 C.3    51  DG51        0.1811
   1028  C4'        1.3400  -11.9290   16.6530 C.3    51  DG51        0.1746
   1029  O4'        1.3220  -11.0110   15.5450 O.3    51  DG51       -0.3327
   1030  C3'       -0.1140  -12.3200   16.8490 C.3    51  DG51        0.1558
   1031  O3'       -0.2600  -12.5870   18.2400 O.3    51  DG51       -0.3138
   1032  C2'       -0.8240  -11.0210   16.5050 C.3    51  DG51        0.0865
   1033  C1'       -0.0020  -10.5620   15.2970 C.3    51  DG51        0.2094
   1034  N9        -0.4840  -11.1040   13.9480 N.ar   51  DG51       -0.2713
   1035  C8        -0.2720  -12.3370   13.3800 C.ar   51  DG51        0.1816
   1036  N7        -0.8020  -12.4560   12.1930 N.ar   51  DG51       -0.2173
   1037  C5        -1.3980  -11.2310   11.9600 C.ar   51  DG51        0.1748
   1038  C6        -2.1300  -10.7590   10.8400 C.ar   51  DG51        0.3023
   1039  O6        -2.4030  -11.3610    9.7940 O.2    51  DG51       -0.2633
   1040  N1        -2.5630   -9.4470   11.0160 N.ar   51  DG51       -0.1709
   1041  C2        -2.3190   -8.6840   12.1330 C.ar   51  DG51        0.2606
   1042  N2        -2.8160   -7.4400   12.1180 N.pl3  51  DG51       -0.0859
   1043  N3        -1.6410   -9.1090   13.1810 N.ar   51  DG51       -0.1918
   1044  C4        -1.2120  -10.3800   13.0330 C.ar   51  DG51        0.1722
   1045  P         -0.8920  -14.0650   18.4880 P.3    52  DG52        0.2141
   1046  OP1       -0.2860  -15.1710   19.2650 O.3    52  DG52       -0.4373
   1047  OP2       -1.5740  -14.3580   17.2030 O.2    52  DG52       -0.5172
   1048  O5'       -1.9470  -13.2820   19.3970 O.3    52  DG52       -0.3114
   1049  C5'       -1.5170  -12.4130   20.4570 C.3    52  DG52        0.1811
   1050  C4'       -2.6170  -11.4410   20.8410 C.3    52  DG52        0.1746
   1051  O4'       -3.0400  -10.6830   19.6810 O.3    52  DG52       -0.3327
   1052  C3'       -3.9240  -12.0120   21.3690 C.3    52  DG52        0.1558
   1053  O3'       -3.7930  -12.3790   22.7440 O.3    52  DG52       -0.3138
   1054  C2'       -4.8760  -10.8290   21.1940 C.3    52  DG52        0.0865
   1055  C1'       -4.3620  -10.2090   19.8920 C.3    52  DG52        0.2094
   1056  N9        -5.2870  -10.4580   18.8430 N.ar   52  DG52       -0.2713
   1057  C8        -5.3140  -11.4950   17.9420 C.ar   52  DG52        0.1816
   1058  N7        -6.3520  -11.4640   17.1510 N.ar   52  DG52       -0.2173
   1059  C5        -7.0520  -10.3400   17.5490 C.ar   52  DG52        0.1748
   1060  C6        -8.2660   -9.7890   17.0620 C.ar   52  DG52        0.3023
   1061  O6        -8.9830  -10.2060   16.1450 O.2    52  DG52       -0.2633
   1062  N1        -8.6280   -8.6360   17.7530 N.ar   52  DG52       -0.1709
   1063  C2        -7.9090   -8.0830   18.7860 C.ar   52  DG52        0.2606
   1064  N2        -8.4170   -6.9680   19.3290 N.pl3  52  DG52       -0.0859
   1065  N3        -6.7810   -8.5840   19.2500 N.ar   52  DG52       -0.1918
   1066  C4        -6.4110   -9.7040   18.5940 C.ar   52  DG52        0.1722
   1067  P         -5.0100  -13.2800   23.5200 P.3    53  DG53        0.2141
   1068  OP1       -4.6960  -13.5480   24.9420 O.3    53  DG53       -0.4373
   1069  OP2       -5.3180  -14.3860   22.5970 O.2    53  DG53       -0.5172
   1070  O5'       -6.1940  -12.2040   23.4770 O.3    53  DG53       -0.3114
   1071  C5'       -6.2190  -11.1700   24.4530 C.3    53  DG53        0.1811
   1072  C4'       -7.3260  -10.1660   24.2090 C.3    53  DG53        0.1746
   1073  O4'       -7.2510   -9.6830   22.8460 O.3    53  DG53       -0.3327
   1074  C3'       -8.7470  -10.6900   24.3030 C.3    53  DG53        0.1558
   1075  O3'       -9.1720  -10.7680   25.6270 O.3    53  DG53       -0.3138
   1076  C2'       -9.4810   -9.5550   23.6180 C.3    53  DG53        0.0865
   1077  C1'       -8.5490   -9.2860   22.4390 C.3    53  DG53        0.2094
   1078  N9        -8.9390  -10.0690   21.2300 N.ar   53  DG53       -0.2713
   1079  C8        -8.2600  -11.1340   20.6900 C.ar   53  DG53        0.1816
   1080  N7        -8.8410  -11.6330   19.6330 N.ar   53  DG53       -0.2173
   1081  C5        -9.9700  -10.8540   19.4620 C.ar   53  DG53        0.1748
   1082  C6       -10.9950  -10.9150   18.4830 C.ar   53  DG53        0.3023
   1083  O6       -11.1050  -11.7060   17.5370 O.2    53  DG53       -0.2633
   1084  N1       -11.9610   -9.9320   18.6780 N.ar   53  DG53       -0.1709
   1085  C2       -11.9410   -9.0030   19.6910 C.ar   53  DG53        0.2606
   1086  N2       -12.9600   -8.1330   19.7150 N.pl3  53  DG53       -0.0859
   1087  N3       -10.9970   -8.9340   20.6080 N.ar   53  DG53       -0.1918
   1088  C4       -10.0490   -9.8800   20.4390 C.ar   53  DG53        0.1722
   1089  P         -9.7580  -12.0610   26.0440 P.3    54  DG54        0.2141
   1090  OP1       -9.4480  -12.3450   27.4610 O.3    54  DG54       -0.4373
   1091  OP2       -9.4870  -13.0890   25.0170 O.2    54  DG54       -0.5172
   1092  O5'      -11.3080  -11.6930   25.8600 O.3    54  DG54       -0.3114
   1093  C5'      -11.8160  -10.4850   26.4150 C.3    54  DG54        0.1811
   1094  C4'      -12.9700   -9.9150   25.6200 C.3    54  DG54        0.1746
   1095  O4'      -12.5430   -9.6020   24.2690 O.3    54  DG54       -0.3327
   1096  C3'      -14.1870  -10.8150   25.4400 C.3    54  DG54        0.1558
   1097  O3'      -15.0650  -10.7660   26.5590 O.3    54  DG54       -0.3138
   1098  C2'      -14.8160  -10.2870   24.1530 C.3    54  DG54        0.0865
   1099  C1'      -13.6060   -9.7960   23.3570 C.3    54  DG54        0.2094
   1100  N9       -13.2020  -10.6740   22.3690 N.ar   54  DG54       -0.2713
   1101  C8       -12.0660  -11.4430   22.3010 C.ar   54  DG54        0.1816
   1102  N7       -12.0500  -12.2500   21.2760 N.ar   54  DG54       -0.2173
   1103  C5       -13.2440  -12.0010   20.6250 C.ar   54  DG54        0.1748
   1104  C6       -13.7910  -12.5730   19.4470 C.ar   54  DG54        0.3023
   1105  O6       -13.3010  -13.4490   18.7230 O.2    54  DG54       -0.2633
   1106  N1       -15.0340  -12.0320   19.1340 N.ar   54  DG54       -0.1709
   1107  C2       -15.6720  -11.0580   19.8640 C.ar   54  DG54        0.2606
   1108  N2       -16.8660  -10.6610   19.4040 N.pl3  54  DG54       -0.0859
   1109  N3       -15.1780  -10.5170   20.9600 N.ar   54  DG54       -0.1918
   1110  C4       -13.9710  -11.0290   21.2850 C.ar   54  DG54        0.1722
   1111  P        -16.0460  -11.9580   27.0030 P.3    55  DA55        0.2141
   1112  OP1      -15.5980  -12.2450   28.3880 O.3    55  DA55       -0.4373
   1113  OP2      -15.9290  -12.9990   25.9590 O.2    55  DA55       -0.5172
   1114  O5'      -17.5640  -11.4650   26.9940 O.3    55  DA55       -0.3114
   1115  C5'      -17.9970  -10.7070   25.8850 C.3    55  DA55        0.1811
   1116  C4'      -18.8440  -11.5580   24.9580 C.3    55  DA55        0.1746
   1117  O4'      -18.3880  -11.4130   23.5870 O.3    55  DA55       -0.3327
   1118  C3'      -18.7630  -13.0570   25.1840 C.3    55  DA55        0.1558
   1119  O3'      -19.5300  -13.4500   26.3180 O.3    55  DA55       -0.3138
   1120  C2'      -19.3410  -13.5530   23.8620 C.3    55  DA55        0.0865
   1121  C1'      -18.5760  -12.6400   22.9030 C.3    55  DA55        0.2094
   1122  N9       -17.4680  -12.9910   22.2220 N.ar   55  DA55       -0.2714
   1123  C8       -16.1800  -12.9250   22.6840 C.ar   55  DA55        0.1815
   1124  N7       -15.3220  -13.6000   21.9560 N.ar   55  DA55       -0.2190
   1125  C5       -16.1010  -14.1480   20.9490 C.ar   55  DA55        0.1564
   1126  C6       -15.7880  -14.9710   19.8530 C.ar   55  DA55        0.2291
   1127  N6       -14.5540  -15.4020   19.5810 N.2    55  DA55       -0.0223
   1128  N1       -16.7990  -15.3400   19.0380 N.ar   55  DA55       -0.2001
   1129  C2       -18.0350  -14.9070   19.3110 C.ar   55  DA55        0.2018
   1130  N3       -18.4520  -14.1310   20.3080 N.ar   55  DA55       -0.2048
   1131  C4       -17.4250  -13.7820   21.1000 C.ar   55  DA55        0.1694
   1132  P        -19.0030  -14.4500   26.8850 P.3    56  DG56        0.2141
   1133  OP1      -20.0110  -14.6290   27.9610 O.3    56  DG56       -0.4373
   1134  OP2      -17.6360  -13.9880   27.2270 O.2    56  DG56       -0.5172
   1135  O5'      -18.8570  -15.8280   26.0970 O.3    56  DG56       -0.3114
   1136  C5'      -19.9850  -16.4420   25.4840 C.3    56  DG56        0.1811
   1137  C4'      -19.5760  -17.7340   24.8190 C.3    56  DG56        0.1746
   1138  O4'      -18.6440  -17.4500   23.7450 O.3    56  DG56       -0.3327
   1139  C3'      -18.8340  -18.7260   25.7010 C.3    56  DG56        0.1558
   1140  O3'      -19.7580  -19.5080   26.4440 O.3    56  DG56       -0.3138
   1141  C2'      -18.0940  -19.5700   24.6720 C.3    56  DG56        0.0865
   1142  C1'      -17.7030  -18.5060   23.6430 C.3    56  DG56        0.2094
   1143  N9       -16.3610  -17.8230   23.8740 N.ar   56  DG56       -0.2713
   1144  C8       -16.0490  -16.8010   24.7380 C.ar   56  DG56        0.1816
   1145  N7       -14.7960  -16.4400   24.6770 N.ar   56  DG56       -0.2173
   1146  C5       -14.2460  -17.2690   23.7170 C.ar   56  DG56        0.1748
   1147  C6       -12.9200  -17.3510   23.2180 C.ar   56  DG56        0.3023
   1148  O6       -11.9360  -16.6750   23.5430 O.2    56  DG56       -0.2633
   1149  N1       -12.7910  -18.3380   22.2450 N.ar   56  DG56       -0.1709
   1150  C2       -13.8120  -19.1460   21.8070 C.ar   56  DG56        0.2606
   1151  N2       -13.4940  -20.0400   20.8600 N.pl3  56  DG56       -0.0859
   1152  N3       -15.0480  -19.0830   22.2620 N.ar   56  DG56       -0.1918
   1153  C4       -15.1970  -18.1320   23.2080 C.ar   56  DG56        0.1722
   1154  P        -19.3070  -20.1130   27.9190 P.3    57  DA57        0.2141
   1155  OP1      -20.4390  -20.8630   28.5170 O.2    57  DA57       -0.5172
   1156  OP2      -18.3330  -19.4230   28.8030 O.3    57  DA57       -0.4373
   1157  O5'      -18.5010  -21.0900   26.9490 O.3    57  DA57       -0.3114
   1158  C5'      -17.6200  -22.1060   27.4770 C.3    57  DA57        0.1811
   1159  C4'      -17.7650  -23.3860   26.6880 C.3    57  DA57        0.1746
   1160  O4'      -19.1220  -23.8730   26.8320 O.3    57  DA57       -0.3327
   1161  C3'      -17.5490  -23.2420   25.1880 C.3    57  DA57        0.1558
   1162  O3'      -16.1720  -23.4020   24.8540 O.3    57  DA57       -0.3138
   1163  C2'      -18.4130  -24.3540   24.6030 C.3    57  DA57        0.0865
   1164  C1'      -19.5720  -24.4060   25.6010 C.3    57  DA57        0.2094
   1165  N9       -20.7730  -23.6440   25.1980 N.ar   57  DA57       -0.2714
   1166  C8       -21.3080  -22.5470   25.8210 C.ar   57  DA57        0.1815
   1167  N7       -22.4410  -22.1420   25.2970 N.ar   57  DA57       -0.2193
   1168  C5       -22.6640  -23.0330   24.2590 C.ar   57  DA57        0.1518
   1169  C6       -23.7000  -23.1450   23.3150 C.ar   57  DA57        0.1919
   1170  N6       -24.7490  -22.3200   23.2670 N.pl3  57  DA57       -0.1054
   1171  N1       -23.6200  -24.1460   22.4130 N.ar   57  DA57       -0.2040
   1172  C2       -22.5690  -24.9730   22.4640 C.ar   57  DA57        0.2016
   1173  N3       -21.5360  -24.9690   23.3020 N.ar   57  DA57       -0.2048
   1174  C4       -21.6440  -23.9620   24.1850 C.ar   57  DA57        0.1691
   1175  P        -15.3500  -22.4210   23.6770 P.3    58  DC58        0.2141
   1176  OP1      -13.8880  -22.3820   23.4580 O.2    58  DC58       -0.5172
   1177  OP2      -16.1230  -21.1600   23.7170 O.3    58  DC58       -0.4373
   1178  O5'      -16.0420  -23.2510   22.4980 O.3    58  DC58       -0.3114
   1179  C5'      -15.6090  -24.5760   22.2290 C.3    58  DC58        0.1811
   1180  C4'      -16.5710  -25.3260   21.3400 C.3    58  DC58        0.1746
   1181  O4'      -17.9270  -25.2330   21.8450 O.3    58  DC58       -0.3327
   1182  C3'      -16.6690  -24.8230   19.9120 C.3    58  DC58        0.1558
   1183  O3'      -15.5990  -25.3170   19.1310 O.3    58  DC58       -0.3138
   1184  C2'      -18.0390  -25.3280   19.4690 C.3    58  DC58        0.0866
   1185  C1'      -18.8450  -25.2540   20.7700 C.3    58  DC58        0.2106
   1186  N1       -19.6740  -24.1180   20.8570 N.ar   58  DC58       -0.2556
   1187  C2       -20.8990  -24.0200   20.1870 C.ar   58  DC58        0.3531
   1188  O2       -21.3060  -24.9980   19.5380 O.2    58  DC58       -0.2443
   1189  N3       -21.6030  -22.8650   20.2650 N.ar   58  DC58       -0.1739
   1190  C4       -21.1260  -21.8400   20.9730 C.ar   58  DC58        0.1759
   1191  N4       -21.8540  -20.7220   21.0220 N.pl3  58  DC58       -0.1070
   1192  C5       -19.8870  -21.9200   21.6590 C.ar   58  DC58        0.0566
   1193  C6       -19.1950  -23.0620   21.5790 C.ar   58  DC58        0.0849
   1194  P        -15.3610  -24.7950   17.1980 P.3    59  DA59        0.2141
   1195  OP1      -14.0600  -24.8200   16.4840 O.2    59  DA59       -0.5172
   1196  OP2      -15.8530  -23.5240   17.7760 O.3    59  DA59       -0.4373
   1197  O5'      -16.5110  -25.1940   16.1960 O.3    59  DA59       -0.3114
   1198  C5'      -16.8030  -24.3330   15.1340 C.3    59  DA59        0.1811
   1199  C4'      -18.1740  -23.7570   15.2960 C.3    59  DA59        0.1746
   1200  O4'      -18.4670  -23.4240   16.6790 O.3    59  DA59       -0.3327
   1201  C3'      -18.3230  -22.4480   14.5610 C.3    59  DA59        0.1558
   1202  O3'      -18.4300  -22.6330   13.1630 O.3    59  DA59       -0.3138
   1203  C2'      -19.4960  -21.7870   15.2750 C.3    59  DA59        0.0865
   1204  C1'      -19.2650  -22.2430   16.7220 C.3    59  DA59        0.2094
   1205  N9       -18.6260  -21.3360   17.5000 N.ar   59  DA59       -0.2714
   1206  C8       -17.3710  -21.5380   18.0130 C.ar   59  DA59        0.1815
   1207  N7       -16.9560  -20.5690   18.7930 N.ar   59  DA59       -0.2193
   1208  C5       -18.0090  -19.6680   18.7910 C.ar   59  DA59        0.1518
   1209  C6       -18.1940  -18.4280   19.4280 C.ar   59  DA59        0.1919
   1210  N6       -17.2830  -17.8620   20.2230 N.pl3  59  DA59       -0.1054
   1211  N1       -19.3610  -17.7830   19.2170 N.ar   59  DA59       -0.2040
   1212  C2       -20.2740  -18.3520   18.4210 C.ar   59  DA59        0.2016
   1213  N3       -20.2160  -19.5110   17.7690 N.ar   59  DA59       -0.2048
   1214  C4       -19.0440  -20.1260   17.9990 C.ar   59  DA59        0.1691
   1215  P        -17.5140  -21.4780   11.9540 P.3    60  DT60        0.2141
   1216  OP1      -17.7490  -21.9650   10.5760 O.2    60  DT60       -0.5172
   1217  OP2      -16.1190  -21.3700   12.4690 O.3    60  DT60       -0.4373
   1218  O5'      -18.2150  -20.0580   12.1050 O.3    60  DT60       -0.3114
   1219  C5'      -19.5660  -19.8860   11.7110 C.3    60  DT60        0.1811
   1220  C4'      -20.1830  -18.7370   12.4600 C.3    60  DT60        0.1746
   1221  O4'      -20.1130  -19.0080   13.8750 O.3    60  DT60       -0.3327
   1222  C3'      -19.5030  -17.3940   12.2990 C.3    60  DT60        0.1558
   1223  O3'      -20.0040  -16.7210   11.1720 O.3    60  DT60       -0.3138
   1224  C2'      -19.8970  -16.6590   13.5640 C.3    60  DT60        0.0866
   1225  C1'      -19.9570  -17.7980   14.5760 C.3    60  DT60        0.2106
   1226  N1       -18.7020  -17.7800   15.3580 N.ar   60  DT60       -0.2559
   1227  C2       -18.5590  -16.8310   16.3520 C.ar   60  DT60        0.3545
   1228  O2       -19.4160  -16.0050   16.6100 O.2    60  DT60       -0.2443
   1229  N3       -17.3690  -16.8830   17.0380 N.ar   60  DT60       -0.1530
   1230  C4       -16.3320  -17.7680   16.8330 C.ar   60  DT60        0.2833
   1231  O4       -15.3240  -17.6900   17.5310 O.3    60  DT60       -0.2709
   1232  C5       -16.5560  -18.7210   15.7830 C.ar   60  DT60        0.0539
   1233  C6       -17.7030  -18.6940   15.1010 C.ar   60  DT60        0.0824
   1234  C7       -15.4850  -19.7270   15.4830 C.3    60  DT60        0.0377
   1235  P        -19.1660  -15.5330   10.5490 P.3    61  DC61        0.2141
   1236  OP1      -19.7980  -15.0340    9.3040 O.2    61  DC61       -0.5172
   1237  OP2      -17.7410  -15.9410   10.5700 O.3    61  DC61       -0.4373
   1238  O5'      -19.2700  -14.3740   11.6500 O.3    61  DC61       -0.3114
   1239  C5'      -20.5200  -13.7030   11.7710 C.3    61  DC61        0.1811
   1240  C4'      -20.5670  -12.6540   12.8610 C.3    61  DC61        0.1746
   1241  O4'      -20.4070  -13.2860   14.1620 O.3    61  DC61       -0.3327
   1242  C3'      -19.5110  -11.5560   12.7720 C.3    61  DC61        0.1558
   1243  O3'      -20.0500  -10.2860   12.4290 O.3    61  DC61       -0.3138
   1244  C2'      -18.8850  -11.4620   14.1600 C.3    61  DC61        0.0866
   1245  C1'      -19.5440  -12.5440   14.9980 C.3    61  DC61        0.2106
   1246  N1       -18.3660  -13.4410   15.3240 N.ar   61  DC61       -0.2556
   1247  C2       -17.6730  -12.9750   16.4470 C.ar   61  DC61        0.3531
   1248  O2       -18.1780  -12.0660   17.1270 O.2    61  DC61       -0.2443
   1249  N3       -16.4750  -13.5250   16.7580 N.ar   61  DC61       -0.1739
   1250  C4       -15.9700  -14.4980   15.9980 C.ar   61  DC61        0.1759
   1251  N4       -14.7870  -15.0100   16.3440 N.pl3  61  DC61       -0.1070
   1252  C5       -16.6570  -14.9840   14.8560 C.ar   61  DC61        0.0566
   1253  C6       -17.8390  -14.4380   14.5530 C.ar   61  DC61        0.0849
   1254  P        -19.0300   -9.5180   11.6080 P.3    62  DC62        0.2141
   1255  OP1      -19.5680   -9.5670   10.2160 O.2    62  DC62       -0.5172
   1256  OP2      -17.5720   -9.6820   11.8280 O.3    62  DC62       -0.4373
   1257  O5'      -19.5550   -8.2530   12.4400 O.3    62  DC62       -0.3114
   1258  C5'      -18.6730   -7.1840   12.7530 C.3    62  DC62        0.1811
   1259  C4'      -18.5900   -6.9460   14.2530 C.3    62  DC62        0.1746
   1260  O4'      -18.2950   -8.1870   14.9590 O.3    62  DC62       -0.3327
   1261  C3'      -17.4000   -6.0620   14.6040 C.3    62  DC62        0.1558
   1262  O3'      -17.5800   -4.6770   14.3530 O.3    62  DC62       -0.3138
   1263  C2'      -17.0420   -6.4460   16.0390 C.3    62  DC62        0.0866
   1264  C1'      -17.4030   -7.9270   16.0470 C.3    62  DC62        0.2106
   1265  N1       -16.1590   -8.5840   15.9110 N.ar   62  DC62       -0.2556
   1266  C2       -15.1900   -8.6460   16.9190 C.ar   62  DC62        0.3531
   1267  O2       -15.3120   -7.9070   17.9110 O.2    62  DC62       -0.2443
   1268  N3       -14.1520   -9.5060   16.7850 N.ar   62  DC62       -0.1739
   1269  C4       -14.0620  -10.2790   15.7020 C.ar   62  DC62        0.1759
   1270  N4       -13.0220  -11.1110   15.6130 N.pl3  62  DC62       -0.1070
   1271  C5       -15.0330  -10.2310   14.6690 C.ar   62  DC62        0.0566
   1272  C6       -16.0560   -9.3810   14.8060 C.ar   62  DC62        0.0849
   1273  P        -16.3480   -3.9470   13.9280 P.3    63  DT63        0.2141
   1274  OP1      -16.9400   -2.5930   13.8270 O.3    63  DT63       -0.4373
   1275  OP2      -15.6700   -4.5700   12.7670 O.2    63  DT63       -0.5172
   1276  O5'      -15.2340   -3.9480   15.0720 O.3    63  DT63       -0.3114
   1277  C5'      -15.4240   -3.1770   16.2490 C.3    63  DT63        0.1811
   1278  C4'      -14.1910   -3.2430   17.1040 C.3    63  DT63        0.1746
   1279  O4'      -14.0010   -4.6150   17.5300 O.3    63  DT63       -0.3327
   1280  C3'      -12.8900   -2.9060   16.3920 C.3    63  DT63        0.1558
   1281  O3'      -12.6520   -1.5140   16.2510 O.3    63  DT63       -0.3138
   1282  C2'      -11.8570   -3.6380   17.2370 C.3    63  DT63        0.0866
   1283  C1'      -12.6230   -4.9140   17.5870 C.3    63  DT63        0.2106
   1284  N1       -12.3830   -6.0060   16.6370 N.ar   63  DT63       -0.2559
   1285  C2       -11.2320   -6.7380   16.8640 C.ar   63  DT63        0.3545
   1286  O2       -10.5310   -6.5840   17.8480 O.2    63  DT63       -0.2443
   1287  N3       -10.9290   -7.6600   15.8920 N.ar   63  DT63       -0.1530
   1288  C4       -11.6450   -7.9190   14.7420 C.ar   63  DT63        0.2833
   1289  O4       -11.2460   -8.7800   13.9620 O.3    63  DT63       -0.2709
   1290  C5       -12.8260   -7.1180   14.5780 C.ar   63  DT63        0.0539
   1291  C6       -13.1440   -6.2140   15.5080 C.ar   63  DT63        0.0824
   1292  C7       -13.6730   -7.3240   13.3570 C.3    63  DT63        0.0377
   1293  P        -11.5580   -0.8880   14.9850 P.3    64  DA64        0.2141
   1294  OP1      -10.5700   -1.9820   14.8040 O.2    64  DA64       -0.5172
   1295  OP2      -11.1980    0.3000   15.7950 O.3    64  DA64       -0.4373
   1296  O5'      -11.9410   -0.4030   13.5260 O.3    64  DA64       -0.3114
   1297  C5'      -12.9900    0.5150   13.3640 C.3    64  DA64        0.1811
   1298  C4'      -13.5880    0.4200   11.9940 C.3    64  DA64        0.1746
   1299  O4'      -14.8580    1.0810   12.2150 O.3    64  DA64       -0.3327
   1300  C3'      -12.8640    1.2540   10.9220 C.3    64  DA64        0.1558
   1301  O3'      -12.4420    0.4820    9.7900 O.3    64  DA64       -0.3138
   1302  C2'      -13.9320    2.2510   10.4630 C.3    64  DA64        0.0865
   1303  C1'      -14.7850    2.3880   11.7200 C.3    64  DA64        0.2094
   1304  N9       -14.2260    3.4870   12.9500 N.ar   64  DA64       -0.2714
   1305  C8       -13.5090    3.3950   14.1140 C.ar   64  DA64        0.1815
   1306  N7       -12.9490    4.5230   14.4810 N.ar   64  DA64       -0.2193
   1307  C5       -13.3230    5.4170   13.4910 C.ar   64  DA64        0.1518
   1308  C6       -13.0520    6.7830   13.2980 C.ar   64  DA64        0.1919
   1309  N6       -12.3100    7.5140   14.1320 N.pl3  64  DA64       -0.1054
   1310  N1       -13.5760    7.3770   12.2050 N.ar   64  DA64       -0.2040
   1311  C2       -14.3210    6.6440   11.3700 C.ar   64  DA64        0.2016
   1312  N3       -14.6460    5.3550   11.4440 N.ar   64  DA64       -0.2048
   1313  C4       -14.1090    4.7930   12.5400 C.ar   64  DA64        0.1691
   1314  P        -10.9830    0.7410    8.9600 P.3    65  DT65        0.2141
   1315  OP1      -10.5380   -0.0100    7.7620 O.2    65  DT65       -0.5172
   1316  OP2      -10.1050    0.7690   10.1570 O.3    65  DT65       -0.4373
   1317  O5'      -11.2380    2.2310    8.4920 O.3    65  DT65       -0.3114
   1318  C5'      -12.0370    2.4970    7.3510 C.3    65  DT65        0.1811
   1319  C4'      -11.9350    3.9490    6.9890 C.3    65  DT65        0.1746
   1320  O4'      -12.6650    4.7280    7.9700 O.3    65  DT65       -0.3327
   1321  C3'      -10.5040    4.4830    6.9780 C.3    65  DT65        0.1558
   1322  O3'       -9.9360    4.3740    5.6690 O.3    65  DT65       -0.3138
   1323  C2'      -10.6970    5.9360    7.3920 C.3    65  DT65        0.0866
   1324  C1'      -11.9010    5.8520    8.3500 C.3    65  DT65        0.2106
   1325  N1       -11.5960    5.7900    9.8220 N.ar   65  DT65       -0.2559
   1326  C2       -11.4050    7.0560   10.3440 C.ar   65  DT65        0.3545
   1327  O2       -11.8020    8.0680    9.7940 O.2    65  DT65       -0.2443
   1328  N3       -10.7280    7.0950   11.5390 N.ar   65  DT65       -0.1533
   1329  C4       -10.2340    6.0210   12.2490 C.ar   65  DT65        0.2804
   1330  O4        -9.6480    6.2150   13.3110 O.2    65  DT65       -0.2654
   1331  C5       -10.4710    4.7410   11.6420 C.ar   65  DT65        0.0534
   1332  C6       -11.1270    4.6740   10.4800 C.ar   65  DT65        0.0824
   1333  C7        -9.9710    3.5100   12.3380 C.3    65  DT65        0.0377
   1334  P         -8.2760    4.0420    5.3950 P.3    66  DG66        0.2141
   1335  OP1       -8.1990    3.5300    4.0110 O.2    66  DG66       -0.5172
   1336  OP2       -7.7330    3.2340    6.5080 O.3    66  DG66       -0.4373
   1337  O5'       -7.5380    5.4520    5.4660 O.3    66  DG66       -0.3114
   1338  C5'       -7.8000    6.4450    4.4950 C.3    66  DG66        0.1811
   1339  C4'       -7.7690    7.8060    5.1500 C.3    66  DG66        0.1746
   1340  O4'       -8.5790    7.7790    6.3590 O.3    66  DG66       -0.3327
   1341  C3'       -6.4090    8.2940    5.6550 C.3    66  DG66        0.1558
   1342  O3'       -5.5050    8.7350    4.6230 O.3    66  DG66       -0.3138
   1343  C2'       -6.9060    9.4520    6.5150 C.3    66  DG66        0.0865
   1344  C1'       -8.1430    8.8430    7.1880 C.3    66  DG66        0.2094
   1345  N9        -7.8070    8.5470    8.4090 N.ar   66  DG66       -0.2713
   1346  C8        -7.7940    7.2230    8.7750 C.ar   66  DG66        0.1816
   1347  N7        -7.4860    7.0380   10.0300 N.ar   66  DG66       -0.2173
   1348  C5        -7.2850    8.3130   10.5250 C.ar   66  DG66        0.1748
   1349  C6        -6.9260    8.7530   11.8250 C.ar   66  DG66        0.3023
   1350  O6        -6.7090    8.0680   12.8330 O.2    66  DG66       -0.2633
   1351  N1        -6.8250   10.1400   11.8960 N.ar   66  DG66       -0.1709
   1352  C2        -7.0430   10.9970   10.8450 C.ar   66  DG66        0.2606
   1353  N2        -6.9000   12.3030   11.1070 N.pl3  66  DG66       -0.0859
   1354  N3        -7.3760   10.6040    9.6310 N.ar   66  DG66       -0.1918
   1355  C4        -7.4790    9.2610    9.5380 C.ar   66  DG66        0.1722
   1356  P         -3.8200    8.9650    4.9060 P.3    67  DC67        0.2141
   1357  OP1       -3.2400    8.7930    3.5520 O.2    67  DC67       -0.5172
   1358  OP2       -3.8650    7.8010    5.8190 O.3    67  DC67       -0.4373
   1359  O5'       -3.0380   10.0910    5.7450 O.3    67  DC67       -0.3114
   1360  C5'       -2.9720   11.4380    5.2930 C.3    67  DC67        0.1811
   1361  C4'       -2.9420   12.4550    6.4140 C.3    67  DC67        0.1746
   1362  O4'       -3.9410   12.1490    7.4270 O.3    67  DC67       -0.3327
   1363  C3'       -1.6670   12.5590    7.2370 C.3    67  DC67        0.1558
   1364  O3'       -0.5780   13.1830    6.5800 O.3    67  DC67       -0.3138
   1365  C2'       -2.1740   13.3250    8.4530 C.3    67  DC67        0.0866
   1366  C1'       -3.5010   12.6110    8.6920 C.3    67  DC67        0.2106
   1367  N1        -3.2580   11.4510    9.6240 N.ar   67  DC67       -0.2556
   1368  C2        -3.0800   11.6300   11.0000 C.ar   67  DC67        0.3531
   1369  O2        -2.8260   12.7690   11.4270 O.2    67  DC67       -0.2443
   1370  N3        -3.1890   10.5600   11.8240 N.ar   67  DC67       -0.1739
   1371  C4        -3.4630    9.3560   11.3200 C.ar   67  DC67        0.1759
   1372  N4        -3.5610    8.3310   12.1710 N.pl3  67  DC67       -0.1070
   1373  C5        -3.6460    9.1540    9.9290 C.ar   67  DC67        0.0566
   1374  C6        -3.5380   10.2130    9.1190 C.ar   67  DC67        0.0849
   1375  P          0.4330   12.5420    6.5760 P.3    68  DG68        0.2141
   1376  OP1        0.8840   12.7010    5.1730 O.2    68  DG68       -0.5172
   1377  OP2        0.8550   11.3640    7.3660 O.3    68  DG68       -0.4373
   1378  O5'        0.8890   13.7990    7.4530 O.3    68  DG68       -0.3114
   1379  C5'        2.1280   13.6960    8.1270 C.3    68  DG68        0.1811
   1380  C4'        2.0840   14.2730    9.5160 C.3    68  DG68        0.1746
   1381  O4'        0.8210   13.9830   10.1670 O.3    68  DG68       -0.3327
   1382  C3'        3.0880   13.6640   10.4750 C.3    68  DG68        0.1558
   1383  O3'        4.4260   14.0510   10.2330 O.3    68  DG68       -0.3138
   1384  C2'        2.5140   14.0710   11.8200 C.3    68  DG68        0.0865
   1385  C1'        1.0480   13.7470   11.5460 C.3    68  DG68        0.2094
   1386  N9         0.9280   12.2660   12.0090 N.ar   68  DG68       -0.2713
   1387  C8         0.7610   11.1950   11.1650 C.ar   68  DG68        0.1816
   1388  N7         0.4310   10.0960   11.7860 N.ar   68  DG68       -0.2173
   1389  C5         0.3720   10.4590   13.1190 C.ar   68  DG68        0.1748
   1390  C6         0.0650    9.6920   14.2720 C.ar   68  DG68        0.3023
   1391  O6        -0.2280    8.4920   14.3380 O.2    68  DG68       -0.2633
   1392  N1         0.1220   10.4550   15.4350 N.ar   68  DG68       -0.1709
   1393  C2         0.4360   11.7930   15.4810 C.ar   68  DG68        0.2606
   1394  N2         0.4390   12.3580   16.6960 N.pl3  68  DG68       -0.0859
   1395  N3         0.7250   12.5180   14.4180 N.ar   68  DG68       -0.1918
   1396  C4         0.6760   11.7970   13.2780 C.ar   68  DG68        0.1722
   1397  P          5.4140   12.8670    9.6240 P.3    69  DT69        0.2141
   1398  OP1        6.2490   13.8580    8.9220 O.2    69  DT69       -0.5172
   1399  OP2        5.1930   11.5070    9.0440 O.3    69  DT69       -0.4373
   1400  O5'        5.9190   12.6050   11.1300 O.3    69  DT69       -0.3114
   1401  C5'        6.1090   13.7000   12.0760 C.3    69  DT69        0.1811
   1402  C4'        6.0290   13.1640   13.5040 C.3    69  DT69        0.1746
   1403  O4'        4.6450   12.8140   13.8030 O.3    69  DT69       -0.3327
   1404  C3'        6.7500   11.8400   13.8060 C.3    69  DT69        0.1558
   1405  O3'        8.1870   11.9160   13.9160 O.3    69  DT69       -0.3138
   1406  C2'        6.0720   11.5380   15.1350 C.3    69  DT69        0.0866
   1407  C1'        4.5930   11.7350   14.7340 C.3    69  DT69        0.2106
   1408  N1         3.8380   10.4930   14.0310 N.ar   69  DT69       -0.2559
   1409  C2         3.3990    9.5450   14.9360 C.ar   69  DT69        0.3545
   1410  O2         3.6620    9.5900   16.1250 O.2    69  DT69       -0.2443
   1411  N3         2.6380    8.5360   14.3970 N.ar   69  DT69       -0.1533
   1412  C4         2.2790    8.3830   13.0740 C.ar   69  DT69        0.2804
   1413  O4         1.5890    7.4230   12.7410 O.2    69  DT69       -0.2654
   1414  C5         2.7740    9.4070   12.1970 C.ar   69  DT69        0.0534
   1415  C6         3.5170   10.3990   12.6940 C.ar   69  DT69        0.0824
   1416  C7         2.4380    9.3290   10.7370 C.3    69  DT69        0.0377
   1417  P          9.3160   10.6000   13.5830 P.3    70  DG70        0.2141
   1418  OP1       10.6890   11.1600   13.6030 O.3    70  DG70       -0.4373
   1419  OP2        8.9220    9.4790   12.6900 O.2    70  DG70       -0.5172
   1420  O5'        8.9490   10.0920   15.0520 O.3    70  DG70       -0.3114
   1421  C5'        9.8190    9.2640   15.7950 C.3    70  DG70        0.1811
   1422  C4'        9.2200    8.9800   17.1440 C.3    70  DG70        0.1746
   1423  O4'        7.7850    9.1950   17.1150 O.3    70  DG70       -0.3327
   1424  C3'        9.3930    7.5520   17.6050 C.3    70  DG70        0.1558
   1425  O3'       10.6260    7.3710   18.2590 O.3    70  DG70       -0.3138
   1426  C2'        8.1980    7.3030   18.5070 C.3    70  DG70        0.0865
   1427  C1'        7.1300    8.2240   17.9020 C.3    70  DG70        0.2094
   1428  N9         6.1330    7.3930   16.9700 N.ar   70  DG70       -0.2713
   1429  C8         5.7510    7.6230   15.6700 C.ar   70  DG70        0.1816
   1430  N7         4.8310    6.7980   15.2500 N.ar   70  DG70       -0.2173
   1431  C5         4.5870    5.9750   16.3340 C.ar   70  DG70        0.1748
   1432  C6         3.6910    4.8860   16.4830 C.ar   70  DG70        0.3023
   1433  O6         2.9050    4.4210   15.6480 O.2    70  DG70       -0.2633
   1434  N1         3.7630    4.3220   17.7540 N.ar   70  DG70       -0.1709
   1435  C2         4.5960    4.7550   18.7580 C.ar   70  DG70        0.2606
   1436  N2         4.5230    4.0860   19.9160 N.pl3  70  DG70       -0.0859
   1437  N3         5.4350    5.7650   18.6340 N.ar   70  DG70       -0.1918
   1438  C4         5.3830    6.3270   17.4080 C.ar   70  DG70        0.1722
   1439  P         11.1750    6.3050   17.7670 P.3    71  DC71        0.2141
   1440  OP1       12.5910    6.4390   18.2170 O.3    71  DC71       -0.4373
   1441  OP2       10.8340    6.4250   16.3310 O.2    71  DC71       -0.5172
   1442  O5'       10.5570    4.9180   18.2860 O.3    71  DC71       -0.3114
   1443  C5'       10.8180    4.4500   19.5890 C.3    71  DC71        0.1811
   1444  C4'        9.8330    3.3670   19.9450 C.3    71  DC71        0.1746
   1445  O4'        8.5150    3.7850   19.5230 O.3    71  DC71       -0.3327
   1446  C3'       10.0180    2.0380   19.2420 C.3    71  DC71        0.1558
   1447  O3'       11.1090    1.2470   19.7970 O.3    71  DC71       -0.3138
   1448  C2'        8.6260    1.4350   19.4550 C.3    71  DC71        0.0866
   1449  C1'        7.7380    2.6480   19.2220 C.3    71  DC71        0.2106
   1450  N1         7.2350    2.7340   17.9170 N.ar   71  DC71       -0.2556
   1451  C2         6.1630    1.9190   17.5340 C.ar   71  DC71        0.3531
   1452  O2         5.6260    1.1960   18.3900 O.2    71  DC71       -0.2443
   1453  N3         5.7440    1.9420   16.2460 N.ar   71  DC71       -0.1739
   1454  C4         6.3510    2.7340   15.3610 C.ar   71  DC71        0.1759
   1455  N4         5.9040    2.7230   14.1030 N.pl3  71  DC71       -0.1070
   1456  C5         7.4390    3.5670   15.7290 C.ar   71  DC71        0.0566
   1457  C6         7.8490    3.5410   17.0020 C.ar   71  DC71        0.0849
   1458  P         11.1520   -0.0960   19.4140 P.3    72  DT72        0.2141
   1459  OP1       12.3740   -0.7040   20.0090 O.3    72  DT72       -0.4373
   1460  OP2       11.1980    0.4510   18.0260 O.2    72  DT72       -0.5172
   1461  O5'        9.9750   -1.1740   19.5070 O.3    72  DT72       -0.3114
   1462  C5'        9.5420   -1.6920   20.7870 C.3    72  DT72        0.1811
   1463  C4'        8.0550   -2.0240   20.7690 C.3    72  DT72        0.1746
   1464  O4'        7.3430   -1.0620   19.9390 O.3    72  DT72       -0.3327
   1465  C3'        7.6170   -3.3700   20.2060 C.3    72  DT72        0.1558
   1466  O3'        7.7080   -4.4290   21.1440 O.3    72  DT72       -0.3138
   1467  C2'        6.1580   -3.1130   19.8660 C.3    72  DT72        0.0866
   1468  C1'        6.2080   -1.6770   19.3530 C.3    72  DT72        0.2106
   1469  N1         6.3490   -1.5870   17.8650 N.ar   72  DT72       -0.2559
   1470  C2         5.2750   -1.8870   17.0490 C.ar   72  DT72        0.3545
   1471  O2         4.2310   -2.3530   17.4710 O.2    72  DT72       -0.2443
   1472  N3         5.4670   -1.6230   15.7150 N.ar   72  DT72       -0.1533
   1473  C4         6.6010   -1.1000   15.1280 C.ar   72  DT72        0.2804
   1474  O4         6.6230   -0.9180   13.9130 O.2    72  DT72       -0.2654
   1475  C5         7.6720   -0.8160   16.0400 C.ar   72  DT72        0.0534
   1476  C6         7.5120   -1.0630   17.3430 C.ar   72  DT72        0.0824
   1477  C7         8.9490   -0.2450   15.4970 C.3    72  DT72        0.0377
   1478  P          7.6010   -6.0430   20.6050 P.3    73  DA73        0.2141
   1479  OP1        8.1800   -6.6220   21.8350 O.3    73  DA73       -0.4373
   1480  OP2        8.4070   -6.0030   19.3620 O.2    73  DA73       -0.5172
   1481  O5'        6.2530   -6.8190   20.2710 O.3    73  DA73       -0.3114
   1482  C5'        5.2060   -6.8870   21.2350 C.3    73  DA73        0.1811
   1483  C4'        3.9140   -6.3600   20.6510 C.3    73  DA73        0.1746
   1484  O4'        4.1660   -5.1310   19.9220 O.3    73  DA73       -0.3327
   1485  C3'        3.1990   -7.2330   19.6370 C.3    73  DA73        0.1558
   1486  O3'        2.4440   -8.2240   20.3180 O.3    73  DA73       -0.3138
   1487  C2'        2.2940   -6.2190   18.9540 C.3    73  DA73        0.0865
   1488  C1'        3.2160   -5.0010   18.8780 C.3    73  DA73        0.2094
   1489  N9         3.8250   -4.9420   17.6810 N.ar   73  DA73       -0.2714
   1490  C8         5.1710   -5.1500   17.5250 C.ar   73  DA73        0.1815
   1491  N7         5.5930   -4.9770   16.2950 N.ar   73  DA73       -0.2193
   1492  C5         4.4470   -4.6330   15.5960 C.ar   73  DA73        0.1518
   1493  C6         4.2220   -4.3190   14.2440 C.ar   73  DA73        0.1919
   1494  N6         5.1840   -4.3020   13.3190 N.pl3  73  DA73       -0.1054
   1495  N1         2.9590   -4.0210   13.8720 N.ar   73  DA73       -0.2040
   1496  C2         1.9950   -4.0370   14.8000 C.ar   73  DA73        0.2016
   1497  N3         2.0830   -4.3140   16.0990 N.ar   73  DA73       -0.2048
   1498  C4         3.3500   -4.6080   16.4360 C.ar   73  DA73        0.1691
   1499  P          1.8280   -9.7530   19.2740 P.3    74  DC74        0.2141
   1500  OP1        1.0300  -10.4670   20.2970 O.3    74  DC74       -0.4373
   1501  OP2        2.7760  -10.5020   18.4170 O.2    74  DC74       -0.5172
   1502  O5'        0.8580   -9.0180   18.2310 O.3    74  DC74       -0.3114
   1503  C5'       -0.0090   -7.9660   18.6330 C.3    74  DC74        0.1812
   1504  C4'       -0.5400   -7.2060   17.4420 C.3    74  DC74        0.1775
   1505  O4'       -1.0570   -8.1230   16.4440 O.3    74  DC74       -0.3326
   1506  C3'       -1.6820   -6.2370   17.7190 C.3    74  DC74        0.1859
   1507  O3'       -1.1980   -4.9770   18.1540 O.3    74  DC74       -0.2203
   1508  C2'       -2.4070   -6.1500   16.3810 C.3    74  DC74        0.0895
   1509  C1'       -2.0590   -7.4720   15.6920 C.3    74  DC74        0.2107
   1510  N1        -3.0670   -8.6410   15.4290 N.ar   74  DC74       -0.2556
   1511  C2        -4.0340   -8.4800   14.4300 C.ar   74  DC74        0.3531
   1512  O2        -4.2930   -7.3330   14.0280 O.2    74  DC74       -0.2443
   1513  N3        -4.6570   -9.5750   13.9330 N.ar   74  DC74       -0.1739
   1514  C4        -4.3470  -10.7870   14.3960 C.ar   74  DC74        0.1759
   1515  N4        -4.9870  -11.8370   13.8760 N.pl3  74  DC74       -0.1070
   1516  C5        -3.3700  -10.9710   15.4080 C.ar   74  DC74        0.0566
   1517  C6        -2.7570   -9.8870   15.8960 C.ar   74  DC74        0.0849
   1518  P         -2.1180   -3.5040   19.7740 P.3    75  DC75        0.5411
   1519  OP1       -2.9310   -4.1860   20.8230 O.2    75  DC75       -0.2272
   1520  OP2       -2.7790   -3.0120   18.5340 O.2    75  DC75       -0.2272
   1521  O5'       -1.3590   -2.2850   20.4700 O.3    75  DC75       -0.2722
   1522  C5'       -1.1520   -2.2880   21.8760 C.3    75  DC75        0.1850
   1523  C4'        0.0080   -1.3950   22.2540 C.3    75  DC75        0.1748
   1524  O4'        1.0430   -1.4730   21.2310 O.3    75  DC75       -0.3327
   1525  C3'       -0.2420    0.1030   22.3510 C.3    75  DC75        0.1558
   1526  O3'       -0.9100    0.4660   23.5670 O.3    75  DC75       -0.3138
   1527  C2'        1.1870    0.6310   22.3140 C.3    75  DC75        0.0866
   1528  C1'        1.8250   -0.2910   21.2730 C.3    75  DC75        0.2106
   1529  N1         1.7230    0.4820   19.9570 N.ar   75  DC75       -0.2556
   1530  C2         2.5670    1.5620   19.6740 C.ar   75  DC75        0.3531
   1531  O2         3.3340    1.9700   20.5630 O.2    75  DC75       -0.2443
   1532  N3         2.5220    2.1290   18.4450 N.ar   75  DC75       -0.1739
   1533  C4         1.6820    1.6580   17.5230 C.ar   75  DC75        0.1759
   1534  N4         1.6730    2.2490   16.3260 N.pl3  75  DC75       -0.1070
   1535  C5         0.8190    0.5650   17.7900 C.ar   75  DC75        0.0566
   1536  C6         0.8660    0.0070   19.0050 C.ar   75  DC75        0.0849
   1537  P         -1.9290    1.7700   23.6490 P.3    76  DG76        0.2141
   1538  OP1       -2.4300    2.3890   24.8890 O.3    76  DG76       -0.4373
   1539  OP2       -2.6180    2.0280   22.3660 O.2    76  DG76       -0.5172
   1540  O5'       -0.4280    2.2370   23.5570 O.3    76  DG76       -0.3114
   1541  C5'        0.1460    2.6350   24.7460 C.3    76  DG76        0.1811
   1542  C4'        1.0440    3.8090   24.4260 C.3    76  DG76        0.1746
   1543  O4'        1.9340    3.4740   23.3330 O.3    76  DG76       -0.3327
   1544  C3'        0.3220    5.0330   23.9130 C.3    76  DG76        0.1558
   1545  O3'       -0.2410    5.6860   25.0320 O.3    76  DG76       -0.3138
   1546  C2'        1.5150    5.7760   23.3140 C.3    76  DG76        0.0865
   1547  C1'        2.2960    4.6520   22.6440 C.3    76  DG76        0.2094
   1548  N9         1.7400    4.5140   21.2030 N.ar   76  DG76       -0.2713
   1549  C8         0.6960    3.7720   20.7050 C.ar   76  DG76        0.1816
   1550  N7         0.4120    4.0510   19.4620 N.ar   76  DG76       -0.2173
   1551  C5         1.3220    5.0330   19.1140 C.ar   76  DG76        0.1748
   1552  C6         1.5050    5.7310   17.8930 C.ar   76  DG76        0.3023
   1553  O6         0.8700    5.6090   16.8380 O.2    76  DG76       -0.2633
   1554  N1         2.5470    6.6510   17.9710 N.ar   76  DG76       -0.1709
   1555  C2         3.3180    6.8710   19.0880 C.ar   76  DG76        0.2606
   1556  N2         4.2780    7.7980   18.9700 N.pl3  76  DG76       -0.0859
   1557  N3         3.1590    6.2300   20.2290 N.ar   76  DG76       -0.1918
   1558  C4         2.1520    5.3330   20.1770 C.ar   76  DG76        0.1722
   1559  P         -1.2650    7.0810   24.8180 P.3    77  DT77        0.2141
   1560  OP1       -2.2040    6.8790   25.9470 O.3    77  DT77       -0.4373
   1561  OP2       -1.7610    6.9950   23.4250 O.2    77  DT77       -0.5172
   1562  O5'       -0.5470    8.5060   24.9860 O.3    77  DT77       -0.3114
   1563  C5'        0.7800    8.7180   24.4850 C.3    77  DT77        0.1811
   1564  C4'        0.8050    9.7080   23.3280 C.3    77  DT77        0.1746
   1565  O4'        1.2330    9.0440   22.1050 O.3    77  DT77       -0.3327
   1566  C3'       -0.5220   10.3250   22.9290 C.3    77  DT77        0.1558
   1567  O3'       -0.9520   11.3270   23.8520 O.3    77  DT77       -0.3138
   1568  C2'       -0.1570   10.8810   21.5580 C.3    77  DT77        0.0866
   1569  C1'        0.6760    9.7320   20.9860 C.3    77  DT77        0.2106
   1570  N1        -0.0070    8.7910   20.2020 N.ar   77  DT77       -0.2559
   1571  C2         0.0300    8.9130   18.8260 C.ar   77  DT77        0.3545
   1572  O2         0.6570    9.7870   18.2530 O.2    77  DT77       -0.2443
   1573  N3        -0.6970    7.9710   18.1390 N.ar   77  DT77       -0.1533
   1574  C4        -1.4410    6.9420   18.6780 C.ar   77  DT77        0.2804
   1575  O4        -2.0400    6.1730   17.9310 O.2    77  DT77       -0.2654
   1576  C5        -1.4310    6.8830   20.1130 C.ar   77  DT77        0.0534
   1577  C6        -0.7320    7.7870   20.8050 C.ar   77  DT77        0.0824
   1578  C7        -2.2120    5.7990   20.7950 C.3    77  DT77        0.0377
   1579  P         -2.7190   11.4760   24.3770 P.3    78  DG78        0.2141
   1580  OP1       -3.1790   12.4490   25.4010 O.3    78  DG78       -0.4373
   1581  OP2       -3.3810   10.1510   24.2940 O.2    78  DG78       -0.5172
   1582  O5'       -2.8620   12.0790   22.8940 O.3    78  DG78       -0.3114
   1583  C5'       -2.3280   13.3770   22.6680 C.3    78  DG78        0.1811
   1584  C4'       -2.2540   13.8310   21.2220 C.3    78  DG78        0.1746
   1585  O4'       -1.4750   12.9270   20.3930 O.3    78  DG78       -0.3327
   1586  C3'       -3.5480   13.9630   20.4410 C.3    78  DG78        0.1558
   1587  O3'       -4.3820   15.0280   20.8820 O.3    78  DG78       -0.3138
   1588  C2'       -2.9810   14.1400   19.0370 C.3    78  DG78        0.0865
   1589  C1'       -1.8540   13.1130   19.0450 C.3    78  DG78        0.2094
   1590  N9        -2.2960   11.8510   18.3860 N.ar   78  DG78       -0.2713
   1591  C8        -2.5070   10.6200   18.9560 C.ar   78  DG78        0.1816
   1592  N7        -2.8760    9.7100   18.0960 N.ar   78  DG78       -0.2173
   1593  C5        -2.9100   10.3760   16.8860 C.ar   78  DG78        0.1748
   1594  C6        -3.2420    9.9140   15.5860 C.ar   78  DG78        0.3023
   1595  O6        -3.5840    8.7750   15.2430 O.2    78  DG78       -0.2633
   1596  N1        -3.1480   10.9240   14.6340 N.ar   78  DG78       -0.1709
   1597  C2        -2.7800   12.2210   14.9000 C.ar   78  DG78        0.2606
   1598  N2        -2.7450   13.0530   13.8510 N.pl3  78  DG78       -0.0859
   1599  N3        -2.4690   12.6660   16.1020 N.ar   78  DG78       -0.1918
   1600  C4        -2.5540   11.7020   17.0430 C.ar   78  DG78        0.1722
   1601  P         -5.8510   14.7110   21.2100 P.3    79  DA79        0.2141
   1602  OP1       -6.2000   15.4350   22.4560 O.3    79  DA79       -0.4373
   1603  OP2       -6.1380   13.2480   21.0920 O.2    79  DA79       -0.5172
   1604  O5'       -6.4810   15.4650   19.9590 O.3    79  DA79       -0.3114
   1605  C5'       -5.7650   16.5220   19.3360 C.3    79  DA79        0.1812
   1606  C4'       -5.8940   16.4320   17.8400 C.3    79  DA79        0.1775
   1607  O4'       -5.1030   15.3460   17.2900 O.3    79  DA79       -0.3326
   1608  C3'       -7.2940   16.1500   17.3590 C.3    79  DA79        0.1864
   1609  O3'       -8.0770   17.3170   17.4100 O.3    79  DA79       -0.2133
   1610  C2'       -7.0660   15.5950   15.9640 C.3    79  DA79        0.0894
   1611  C1'       -5.7640   14.8170   16.1550 C.3    79  DA79        0.2095
   1612  N9        -6.0910   13.4650   16.2320 N.ar   79  DA79       -0.2714
   1613  C8        -5.9460   12.7530   17.3940 C.ar   79  DA79        0.1815
   1614  N7        -6.0750   11.4560   17.2390 N.ar   79  DA79       -0.2193
   1615  C5        -6.3220   11.3070   15.8840 C.ar   79  DA79        0.1518
   1616  C6        -6.5500   10.1740   15.0830 C.ar   79  DA79        0.1919
   1617  N6        -6.5650    8.9260   15.5560 N.pl3  79  DA79       -0.1054
   1618  N1        -6.7640   10.3710   13.7650 N.ar   79  DA79       -0.2040
   1619  C2        -6.7480   11.6230   13.2920 C.ar   79  DA79        0.2016
   1620  N3        -6.5450   12.7650   13.9440 N.ar   79  DA79       -0.2048
   1621  C4        -6.3360   12.5350   15.2510 C.ar   79  DA79        0.1691
   1622  P         -8.6720   18.8830   16.8540 P.3    80  DA80        0.3939
   1623  OP1       -9.9220   18.8240   17.6580 O.3    80  DA80       -0.1425
   1624  OP2       -7.4390   18.2210   17.3610 O.3    80  DA80       -0.1496
   1625  O5'       -8.9570   18.3200   15.3900 O.3    80  DA80       -0.2926
   1626  C5'       -9.5050   17.0230   15.2200 C.3    80  DA80        0.1828
   1627  C4'      -10.0840   16.8590   13.8350 C.3    80  DA80        0.1754
   1628  O4'       -9.0140   16.5870   12.8860 O.3    80  DA80       -0.3510
   1629  C3'      -10.9910   15.6440   13.7370 C.3    80  DA80        0.1839
   1630  O3'      -12.3100   15.9540   14.1620 O.3    80  DA80       -0.2204
   1631  C2'      -10.8740   15.2430   12.2740 C.3    80  DA80        0.0676
   1632  C1'       -9.3980   15.5400   12.0050 C.3    80  DA80        0.1450
   1633  N9        -9.5610   13.4290   13.7330 N.ar   80  DA80       -0.2032
   1634  C8        -9.2600   13.2300   15.0550 C.ar   80  DA80        0.2005
   1635  N7        -9.3170   11.9730   15.4270 N.ar   80  DA80       -0.2179
   1636  C5        -9.6820   11.3010   14.2710 C.ar   80  DA80        0.1534
   1637  C6        -9.9100    9.9410   14.0000 C.ar   80  DA80        0.1919
   1638  N6        -9.7970    8.9750   14.9150 N.pl3  80  DA80       -0.1054
   1639  N1       -10.2620    9.6040   12.7410 N.ar   80  DA80       -0.2040
   1640  C2       -10.3740   10.5720   11.8240 C.ar   80  DA80        0.2016
   1641  N3       -10.1850   11.8820   11.9580 N.ar   80  DA80       -0.2031
   1642  C4        -9.8370   12.1850   13.2200 C.ar   80  DA80        0.1862
@<TRIPOS>BOND
     1   498   497    2
     2   478   477    2
     3   499   497    1
     4   497   485    1
     5   497   500    1
     6   485   484    1
     7   481   480    1
     8   481   482    1
     9   500   501    1
    10   477   480    1
    11   477   479    1
    12   477   464    1
    13   501   502    1
    14   517   516    2
    15   482   484    1
    16   482   483    1
    17   484   486    1
    18   518   516    1
    19   464   463    1
    20   516   505    1
    21   516   519    1
    22   505   504    1
    23   502   504    1
    24   502   503    1
    25   535   533    1
    26   486   487    1
    27   457   456    2
    28   504   506    1
    29   483   487    1
    30   463   461    1
    31   463   465    1
    32   460   459    1
    33   460   461    1
    34   459   456    1
    35   461   462    1
    36   519   520    1
    37   503   507    1
    38   487   488    1
    39   465   466    1
    40   515   514   ar
    41   515   508   ar
    42   456   458    1
    43   456   442    1
    44   514   512   ar
    45   533   531   ar
    46   533   534   ar
    47   532   531    2
    48   506   507    1
    49   520   521    1
    50   495   488   ar
    51   495   494   ar
    52   507   508    1
    53   531   530   ar
    54   488   489   ar
    55   534   527   ar
    56   442   441    1
    57   462   466    1
    58   508   509   ar
    59   466   467    1
    60   512   513    1
    61   512   511   ar
    62   496   494    1
    63   494   492   ar
    64   525   523    1
    65   525   526    1
    66   489   490    2
    67   489   491   ar
    68   521   523    1
    69   521   522    1
    70   435   434    2
    71   523   524    1
    72   530   528   ar
    73   509   511   ar
    74   509   510    2
    75   527   526    1
    76   527   528   ar
    77   467   468   ar
    78   467   476   ar
    79   522   526    1
    80   441   439    1
    81   441   443    1
    82   538   536    2
    83   468   469   ar
    84   492   491   ar
    85   492   493    2
    86   528   529    1
    87   438   439    1
    88   438   437    1
    89   439   440    1
    90   443   444    1
    91   476   475   ar
    92   476   470   ar
    93   434   436    1
    94   434   437    1
    95   434   423    1
    96   475   474   ar
    97   524   536    1
    98   552   551    2
    99   469   470   ar
   100   536   537    1
   101   536   539    1
   102   549   548   ar
   103   549   550   ar
   104   470   471   ar
   105   423   422    1
   106   529   575    1
   107   474   473   ar
   108   551   550   ar
   109   551   553   ar
   110   440   444    1
   111   444   445    1
   112   574   573    2
   113   548   547   ar
   114   550   557   ar
   115   539   540    1
   116   575   573   ar
   117   575   576   ar
   118   471   473   ar
   119   471   472    1
   120   597   598   ar
   121   597   595   ar
   122   445   446   ar
   123   445   455   ar
   124   573   572   ar
   125   577   576    1
   126   598   599   ar
   127   416   415    2
   128   422   424    1
   129   422   420    1
   130   454   455    1
   131   454   452    1
   132   553   554   ar
   133   446   447   ar
   134   455   448   ar
   135   576   578   ar
   136   453   452    2
   137   453   638    1
   138   596   595    1
   139   547   557   ar
   140   547   546    1
   141   557   556   ar
   142   452   451    2
   143   424   425    1
   144   595   594   ar
   145   639   638    1
   146   639   640    2
   147   447   448   ar
   148   540   541    1
   149   448   449    1
   150   599   600   ar
   151   542   546    1
   152   542   541    1
   153   638   636    1
   154   420   419    1
   155   420   421    1
   156   419   418    1
   157   572   571   ar
   158   572   579   ar
   159   415   417    1
   160   415   418    1
   161   415   401    1
   162   451   449    1
   163   640   641    1
   164   614   613    2
   165   449   450    2
   166   554   556   ar
   167   554   555    1
   168   578   579   ar
   169   546   545    1
   170   594   600   ar
   171   594   593   ar
   172   636   637    1
   173   636   635    2
   174   600   591   ar
   175   541   543    1
   176   571   570   ar
   177   579   569   ar
   178   641   635    1
   179   641   632    1
   180   613   615   ar
   181   613   612   ar
   182   425   421    1
   183   425   426    1
   184   635   634    1
   185   615   616   ar
   186   543   545    1
   187   631   632    1
   188   631   627    1
   189   631   630    1
   190   632   633    1
   191   401   400    1
   192   655   654    2
   193   611   612    1
   194   611   607    1
   195   611   610    1
   196   593   592   ar
   197   627   626    1
   198   426   433   ar
   199   426   427   ar
   200   591   590    1
   201   591   592   ar
   202   428   427    2
   203   570   569   ar
   204   634   633    2
   205   612   619   ar
   206   433   432   ar
   207   569   568    1
   208   427   429   ar
   209   590   589    1
   210   590   586    1
   211   616   617    2
   212   616   618   ar
   213   560   558    2
   214   607   606    1
   215   610   608    1
   216   652   651    1
   217   652   648    1
   218   652   653    1
   219   668   672    1
   220   668   667    1
   221   630   628    1
   222   432   430   ar
   223   672   671    1
   224   672   673    1
   225   654   653   ar
   226   654   656   ar
   227   544   558    1
   228   544   561    1
   229   667   666    1
   230   667   669    1
   231   429   430   ar
   232   671   669    1
   233   651   649    1
   234   564   568    1
   235   564   563    1
   236   400   402    1
   237   400   398    1
   238   430   431    1
   239   402   403    1
   240   648   647    1
   241   619   618   ar
   242   675   674    2
   243   558   559    2
   244   568   567    1
   245   589   587    1
   246   618   620    1
   247   653   660   ar
   248   626   628    1
   249   626   625    1
   250   561   562    1
   251   656   657   ar
   252   586   585    1
   253   670   669    1
   254   670   682    1
   255   666   665    1
   256   606   608    1
   257   606   605    1
   258   647   649    1
   259   647   646    1
   260   673   674   ar
   261   673   680   ar
   262   412   411    1
   263   674   676   ar
   264   628   629    1
   265   608   609    1
   266   649   650    1
   267   686   687    1
   268   686   685    1
   269   625   624    1
   270   650   662    1
   271   398   397    1
   272   398   399    1
   273   563   562    1
   274   563   565    1
   275   660   659   ar
   276   657   658    2
   277   657   659   ar
   278   411   413   ar
   279   411   410   ar
   280   413   414   ar
   281   687   688    1
   282   687   689    1
   283   688   692    1
   284   403   404    1
   285   403   399    1
   286   567   565    1
   287   585   587    1
   288   585   584    1
   289   609   621    1
   290   587   588    1
   291   680   679   ar
   292   605   604    1
   293   683   682    2
   294   624   621    1
   295   397   396    1
   296   410   408   ar
   297   659   661    1
   298   629   642    1
   299   414   404   ar
   300   414   407   ar
   301   646   645    1
   302   665   662    1
   303   676   677   ar
   304   682   685    1
   305   682   684    1
   306   404   405   ar
   307   604   601    1
   308   396   393    1
   309   408   407   ar
   310   408   409    2
   311   407   406   ar
   312   662   663    2
   313   662   664    1
   314   565   566    1
   315   645   642    1
   316   394   393    2
   317   704   703    2
   318   707   708    1
   319   707   706    1
   320   405   406   ar
   321   566   580    1
   322   588   601    1
   323   583   584    1
   324   583   580    1
   325   679   677   ar
   326   679   681    1
   327   621   623    2
   328   621   622    1
   329   692   693    1
   330   692   691    1
   331   690   689    1
   332   690   703    1
   333   677   678    2
   334   708   709    1
   335   708   710    1
   336   689   691    1
   337   709   713    1
   338   393   395    1
   339   393   381    1
   340   642   643    2
   341   642   644    1
   342   693   702   ar
   343   693   694   ar
   344   703   706    1
   345   703   705    1
   346   601   603    2
   347   601   602    1
   348   582   580    2
   349   701   702   ar
   350   701   700   ar
   351   580   581    1
   352   702   696   ar
   353   694   695   ar
   354   711   710    1
   355   711   723    1
   356   713   712    1
   357   713   714    1
   358   710   712    1
   359   700   699   ar
   360   381   380    1
   361   724   723    2
   362   696   695   ar
   363   696   697   ar
   364   723   726    1
   365   723   725    1
   366   714   721   ar
   367   714   715   ar
   368   699   697   ar
   369   721   720   ar
   370   382   380    1
   371   382   383    1
   372   697   698    1
   373   727   726    1
   374   727   728    1
   375   380   378    1
   376   729   728    1
   377   729   733    1
   378   716   715    2
   379   386   385    2
   380   728   730    1
   381   715   717   ar
   382   387   385   ar
   383   387   388   ar
   384   385   384   ar
   385   720   722    1
   386   720   718   ar
   387   389   388    2
   388   388   390   ar
   389   733   734    1
   390   733   732    1
   391   383   384    1
   392   383   379    1
   393   384   391   ar
   394   378   377    1
   395   378   379    1
   396   717   718   ar
   397   376   377    1
   398   376   373    1
   399   390   391   ar
   400   390   392    1
   401   374   373    2
   402   741   734   ar
   403   741   740   ar
   404   718   719    2
   405   375   373    1
   406   730   732    1
   407   730   731    1
   408   734   735   ar
   409   742   740    1
   410   731   743    1
   411   373   360    1
   412   740   738   ar
   413   735   736    2
   414   735   737   ar
   415   738   737   ar
   416   738   739    2
   417   743   744    2
   418   743   745    1
   419   743   746    1
   420   360   359    1
   421   369   370   ar
   422   369   367   ar
   423   370   371   ar
   424   368   367    1
   425   367   366   ar
   426   359   361    1
   427   359   357    1
   428   371   372   ar
   429   746   747    1
   430   762   760    1
   431   366   372   ar
   432   366   365   ar
   433   361   362    1
   434   372   363   ar
   435   747   748    1
   436   749   748    1
   437   749   753    1
   438   365   364   ar
   439   363   364   ar
   440   363   362    1
   441   760   761   ar
   442   760   758   ar
   443   761   754   ar
   444   356   357    1
   445   356   355    1
   446   759   758    2
   447   748   750    1
   448   357   358    1
   449   758   757   ar
   450   354   352    2
   451   362   358    1
   452   753   754    1
   453   753   752    1
   454   754   755   ar
   455   757   755   ar
   456   353   352    1
   457   755   756    2
   458   352   355    1
   459   352   338    1
   460   271   270    2
   461   750   752    1
   462   750   751    1
   463   346   345    2
   464   347   345   ar
   465   347   348   ar
   466   345   344   ar
   467   272   270    1
   468   292   290    2
   469   751   763    1
   470   349   348    1
   471   291   290    1
   472   270   256    1
   473   270   273    1
   474   348   350   ar
   475   338   337    1
   476   344   343   ar
   477   344   351   ar
   478   256   255    1
   479   343   342   ar
   480   337   339    1
   481   337   335    1
   482   290   278    1
   483   290   293    1
   484   332   330    2
   485   350   351   ar
   486   351   341   ar
   487   311   309    2
   488   765   763    2
   489   333   330    1
   490   333   334    1
   491   339   340    1
   492   274   273    1
   493   274   275    1
   494   310   309    1
   495   331   330    1
   496   782   780    1
   497   342   341   ar
   498   763   766    1
   499   763   764    1
   500   341   340    1
   501   249   248    2
   502   330   317    1
   503   780   781   ar
   504   780   778   ar
   505   309   312    1
   506   309   298    1
   507   278   277    1
   508   779   778    2
   509   255   253    1
   510   255   257    1
   511   334   335    1
   512   293   294    1
   513   781   774   ar
   514   778   777   ar
   515   335   336    1
   516   766   767    1
   517   340   336    1
   518   252   253    1
   519   252   251    1
   520   769   773    1
   521   769   768    1
   522   253   254    1
   523   275   277    1
   524   275   276    1
   525   774   775   ar
   526   774   773    1
   527   777   775   ar
   528   294   295    1
   529   767   768    1
   530   325   324    1
   531   277   279    1
   532   312   313    1
   533   257   258    1
   534   775   776    2
   535   251   248    1
   536   248   250    1
   537   248   234    1
   538   322   321   ar
   539   322   323   ar
   540   773   772    1
   541   317   316    1
   542   298   297    1
   543   768   770    1
   544   324   323   ar
   545   324   326   ar
   546   321   320   ar
   547   316   314    1
   548   316   318    1
   549   323   329   ar
   550   313   314    1
   551   297   295    1
   552   297   299    1
   553   276   280    1
   554   254   258    1
   555   234   233    1
   556   295   296    1
   557   258   259    1
   558   307   308   ar
   559   307   305   ar
   560   326   327   ar
   561   279   280    1
   562   320   329   ar
   563   320   319    1
   564   289   287    1
   565   308   301   ar
   566   314   315    1
   567   329   328   ar
   568   318   319    1
   569   770   772    1
   570   770   771    1
   571   288   287   ar
   572   288   281   ar
   573   799   798    2
   574   306   305    1
   575   280   281    1
   576   296   300    1
   577   327   328   ar
   578   305   304   ar
   579   287   285   ar
   580   315   319    1
   581   299   300    1
   582   281   282   ar
   583   235   233    1
   584   235   236    1
   585   233   231    1
   586   798   797   ar
   587   798   800   ar
   588   259   260   ar
   589   259   269   ar
   590   301   300    1
   591   301   302   ar
   592   797   795   ar
   593   802   800    1
   594   771   783    1
   595   800   801   ar
   596   260   261   ar
   597   304   302   ar
   598   268   269   ar
   599   268   266   ar
   600   231   230    1
   601   231   232    1
   602   269   262   ar
   603   302   303    2
   604   795   796    2
   605   795   794   ar
   606   285   286    2
   607   285   284   ar
   608   282   284   ar
   609   282   283    2
   610   801   794   ar
   611   794   793    1
   612   236   232    1
   613   236   237    1
   614   230   229    1
   615   267   266    1
   616   266   265   ar
   617   785   783    2
   618   261   262   ar
   619   783   784    1
   620   783   786    1
   621   789   793    1
   622   789   788    1
   623   227   226    2
   624   245   244    1
   625   262   263   ar
   626   246   244   ar
   627   246   247   ar
   628   819   818    2
   629   793   792    1
   630   919   918    2
   631   229   226    1
   632   244   243   ar
   633   820   818   ar
   634   820   821   ar
   635   237   247   ar
   636   237   238   ar
   637   883   884   ar
   638   883   881   ar
   639   931   935    1
   640   931   930    1
   641   818   817   ar
   642   884   885   ar
   643   265   263   ar
   644   247   240   ar
   645   915   916    1
   646   915   913    1
   647   935   934    1
   648   935   936    1
   649   787   786    1
   650   787   788    1
   651   822   821    1
   652   930   929    1
   653   930   932    1
   654   916   912    1
   655   916   917    1
   656   263   264    2
   657   226   228    1
   658   226   213    1
   659   821   823   ar
   660   934   932    1
   661   788   790    1
   662   859   858    2
   663   900   899    2
   664   938   937    2
   665   882   881    1
   666   817   816   ar
   667   817   824   ar
   668   881   880   ar
   669   238   239   ar
   670   885   886   ar
   671   243   241   ar
   672   912   911    1
   673   918   917   ar
   674   918   920   ar
   675   929   928    1
   676   213   212    1
   677   842   843   ar
   678   842   840   ar
   679   843   844   ar
   680   816   815   ar
   681   240   239   ar
   682   240   241   ar
   683   823   824   ar
   684   932   933    1
   685   933   944    1
   686   792   790    1
   687   911   913    1
   688   911   910    1
   689   824   814   ar
   690   860   858   ar
   691   860   861   ar
   692   914   913    1
   693   914   925    1
   694   917   924   ar
   695   936   937   ar
   696   936   943   ar
   697   858   857   ar
   698   937   939   ar
   699   241   242    2
   700   790   791    1
   701   841   840    1
   702   886   880   ar
   703   886   877   ar
   704   880   879   ar
   705   899   901   ar
   706   899   898   ar
   707   840   839   ar
   708   920   921   ar
   709   815   814   ar
   710   844   845   ar
   711   928   925    1
   712   862   861    2
   713   950   949    1
   714   950   954    1
   715   814   813    1
   716   901   902   ar
   717   948   949    1
   718   948   947    1
   719   214   212    1
   720   214   215    1
   721   861   863   ar
   722   212   210    1
   723   943   942   ar
   724   949   951    1
   725   926   925    2
   726   897   896    1
   727   897   898    1
   728   897   893    1
   729   939   940   ar
   730   896   894    1
   731   910   909    1
   732   925   927    1
   733   924   923   ar
   734   877   876    1
   735   877   878   ar
   736   845   839   ar
   737   845   836   ar
   738   944   945    2
   739   944   947    1
   740   944   946    1
   741   839   838   ar
   742   879   878   ar
   743   898   905   ar
   744   857   856    1
   745   857   864   ar
   746   954   955    1
   747   954   953    1
   748   813   809    1
   749   813   812    1
   750   876   875    1
   751   876   872    1
   752   791   803    1
   753   921   923   ar
   754   921   922    1
   755   856   852    1
   756   856   855    1
   757   955   962   ar
   758   955   956   ar
   759   809   808    1
   760   902   903    1
   761   902   904   ar
   762   962   961   ar
   763   942   940   ar
   764   224   223   ar
   765   224   225   ar
   766   940   941    1
   767   210   209    1
   768   210   211    1
   769   223   222   ar
   770   893   892    1
   771   909   906    1
   772   863   864   ar
   773   863   865    1
   774   838   837   ar
   775   836   835    1
   776   836   837   ar
   777   215   216    1
   778   215   211    1
   779   852   851    1
   780   875   873    1
   781   957   956    2
   782   872   871    1
   783   956   958   ar
   784   951   953    1
   785   951   952    1
   786   835   831    1
   787   835   834    1
   788   905   904   ar
   789   892   894    1
   790   892   891    1
   791   855   853    1
   792   894   895    1
   793   961   959   ar
   794   225   216   ar
   795   225   219   ar
   796   209   208    1
   797   812   810    1
   798   895   906    1
   799   222   220   ar
   800   952   963    1
   801   216   217   ar
   802   805   803    2
   803   806   803    1
   804   806   807    1
   805   803   804    1
   806   831   830    1
   807   958   959   ar
   808   906   907    2
   809   906   908    1
   810   808   807    1
   811   808   810    1
   812   959   960    1
   813   834   832    1
   814   219   220   ar
   815   219   218   ar
   816   220   221    1
   817   871   873    1
   818   871   870    1
   819   851   853    1
   820   851   850    1
   821   208   205    1
   822   873   874    1
   823   217   218   ar
   824   810   811    1
   825   891   890    1
   826   853   854    1
   827   202   201    1
   828   206   205    2
   829   963   964    2
   830   963   965    1
   831   963   966    1
   832   830   832    1
   833   830   829    1
   834   874   887    1
   835   850   849    1
   836   205   207    1
   837   205   191    1
   838   890   887    1
   839   870   869    1
   840   832   833    1
   841   854   866    1
   842   201   200    2
   843   201   203    1
   844   869   866    1
   845   967   966    1
   846   967   968    1
   847   982   980    1
   848   811   825    1
   849   849   846    1
   850   200   198    1
   851   829   828    1
   852   191   190    1
   853   828   825    1
   854   969   968    1
   855   969   973    1
   856   203   204    2
   857   887   888    2
   858   887   889    1
   859   833   846    1
   860   981   980   ar
   861   981   974   ar
   862   980   978   ar
   863   192   190    1
   864   192   193    1
   865   968   970    1
   866   866   868    2
   867   866   867    1
   868   198   199    2
   869   198   197    1
   870   827   825    2
   871   825   826    1
   872   190   188    1
   873   846   848    2
   874   846   847    1
   875   204   197    1
   876   204   194    1
   877   974   973    1
   878   974   975   ar
   879   973   972    1
   880   193   194    1
   881   193   189    1
   882   978   979    2
   883   978   977   ar
   884   197   196    1
   885   970   972    1
   886   970   971    1
   887   977   975   ar
   888   975   976    2
   889   194   195    1
   890   104   103    2
   891   188   189    1
   892   188   187    1
   893   196   195    2
   894  1357  1356    2
   895   971   983    1
   896   178   177    1
   897  1335  1334    2
   898    83    81    1
   899   186   187    1
   900   186   183    1
   901    82    81    1
   902    82    68    1
   903   105   103    1
   904   103   106    1
   905   103    89    1
   906   179   177   ar
   907   179   180   ar
   908  1338  1339    1
   909  1338  1337    1
   910   177   176   ar
   911  1342  1356    1
   912  1342  1341    1
   913    61    60    2
   914  1002  1000    1
   915   985   983    2
   916    81    84    1
   917   185   183    2
   918  1356  1359    1
   919  1356  1358    1
   920   983   984    1
   921   983   986    1
   922   180   181   ar
   923    68    67    1
   924  1339  1341    1
   925  1339  1340    1
   926   999   998    2
   927  1376  1375    2
   928   124   122    2
   929   183   184    1
   930   183   170    1
   931  1360  1359    1
   932  1360  1361    1
   933   106   107    1
   934  1334  1337    1
   935  1334  1322    1
   936  1334  1336    1
   937   159   158    1
   938   176   175   ar
   939   176   182   ar
   940  1000   998   ar
   941  1000  1001   ar
   942  1341  1343    1
   943    89    88    1
   944  1322  1321    1
   945   998   997   ar
   946   175   174   ar
   947   181   182   ar
   948    64    65    1
   949    64    63    1
   950   107   108    1
   951   182   173   ar
   952   986   987    1
   953   123   122    1
   954    60    62    1
   955    60    63    1
   956    60    49    1
   957  1001   994   ar
   958    84    85    1
   959  1340  1344    1
   960   122   111    1
   961   122   125    1
   962    85    86    1
   963  1361  1363    1
   964  1361  1362    1
   965    67    65    1
   966    67    69    1
   967   997   995   ar
   968    65    66    1
   969   158   160   ar
   970   158   157   ar
   971  1343  1344    1
   972  1375  1364    1
   973  1375  1377    1
   974  1375  1378    1
   975  1364  1363    1
   976   174   173   ar
   977   170   169    1
   978   111   110    1
   979    88    86    1
   980    88    90    1
   981   989   993    1
   982   989   988    1
   983   173   172    1
   984   160   161   ar
   985   171   169    1
   986   171   172    1
   987   987   988    1
   988   994   995   ar
   989   994   993    1
   990   145   143    2
   991   169   167    1
   992  1321  1319    1
   993  1321  1323    1
   994    49    48    1
   995  1319  1318    1
   996  1319  1320    1
   997   164   162    2
   998   995   996    2
   999   110   108    1
  1000   110   112    1
  1001    86    87    1
  1002  1344  1345    1
  1003   157   155   ar
  1004  1363  1365    1
  1005   108   109    1
  1006   125   126    1
  1007  1318  1317    1
  1008  1323  1324    1
  1009   138   137    1
  1010  1362  1366    1
  1011    69    70    1
  1012  1378  1379    1
  1013   993   992    1
  1014   135   134   ar
  1015   135   136   ar
  1016   120   121   ar
  1017   120   118   ar
  1018   988   990    1
  1019   172   168    1
  1020   121   114   ar
  1021  1315  1314    2
  1022   165   162    1
  1023   165   166    1
  1024    66    70    1
  1025   161   154   ar
  1026  1320  1324    1
  1027    90    91    1
  1028   162   163    1
  1029   162   151    1
  1030  1019  1018    2
  1031   134   133   ar
  1032  1379  1380    1
  1033   126   127    1
  1034   109   113    1
  1035  1022  1020    1
  1036   155   154   ar
  1037   155   156    2
  1038   143   144    1
  1039   143   146    1
  1040   143   130    1
  1041  1324  1325    1
  1042    48    46    1
  1043    48    50    1
  1044  1345  1346   ar
  1045  1345  1355   ar
  1046   137   136   ar
  1047   137   139   ar
  1048   167   168    1
  1049   167   166    1
  1050  1365  1366    1
  1051   136   142   ar
  1052   119   118    1
  1053  1317  1314    1
  1054    87    91    1
  1055    70    71    1
  1056   112   113    1
  1057   118   117   ar
  1058   990   992    1
  1059   990   991    1
  1060   154   153    1
  1061  1366  1367    1
  1062  1346  1347   ar
  1063    46    45    1
  1064    46    47    1
  1065    42    41    2
  1066   114   113    1
  1067   114   115   ar
  1068    50    51    1
  1069  1398  1397    2
  1070   146   147    1
  1071  1018  1020   ar
  1072  1018  1017   ar
  1073  1314  1301    1
  1074  1314  1316    1
  1075    91    92    1
  1076  1399  1397    1
  1077    93    92   ar
  1078    93    94   ar
  1079  1374  1367   ar
  1080  1374  1373   ar
  1081  1020  1021   ar
  1082    45    44    1
  1083   150   151    1
  1084   150   152    1
  1085   150   148    1
  1086   129   127    1
  1087   129   130    1
  1088   129   131    1
  1089  1236  1235    2
  1090   133   142   ar
  1091   133   132    1
  1092   127   128    1
  1093    92   102   ar
  1094   139   140   ar
  1095  1380  1381    1
  1096  1380  1382    1
  1097  1355  1354   ar
  1098  1355  1348   ar
  1099   142   141   ar
  1100  1397  1383    1
  1101  1397  1400    1
  1102  1367  1368   ar
  1103    71    72    1
  1104    71    80    1
  1105  1354  1352   ar
  1106   152   153    1
  1107   117   115   ar
  1108   128   132    1
  1109    94    95   ar
  1110   991  1003    1
  1111  1301  1300    1
  1112  1039  1038    2
  1113  1327  1326    2
  1114  1017  1015   ar
  1115  1325  1326   ar
  1116  1325  1332   ar
  1117    72    73    2
  1118   115   116    2
  1119    44    41    1
  1120  1373  1371   ar
  1121    47    51    1
  1122   153   149    1
  1123  1347  1348   ar
  1124  1021  1014   ar
  1125    41    27    1
  1126    41    43    1
  1127    51    52    1
  1128  1005  1003    2
  1129   147   148    1
  1130  1381  1385    1
  1131  1255  1254    2
  1132  1383  1382    1
  1133   132   131    1
  1134  1326  1328   ar
  1135   148   149    1
  1136  1302  1300    1
  1137  1302  1303    1
  1138  1382  1384    1
  1139  1332  1331   ar
  1140   140   141   ar
  1141  1348  1349   ar
  1142   102    95   ar
  1143   102   101   ar
  1144  1235  1237    1
  1145  1235  1223    1
  1146  1235  1238    1
  1147  1216  1215    2
  1148    95    96   ar
  1149    80    79    1
  1150    80    74    1
  1151  1003  1006    1
  1152  1003  1004    1
  1153  1416  1414    1
  1154  1015  1014   ar
  1155  1015  1016    2
  1156  1038  1040   ar
  1157  1038  1037   ar
  1158  1352  1353    1
  1159  1352  1351   ar
  1160    27    26    1
  1161  1300  1298    1
  1162    73    74    1
  1163    79    78    2
  1164  1014  1013    1
  1165  1368  1369    2
  1166  1368  1370   ar
  1167  1040  1041   ar
  1168  1400  1401    1
  1169  1387  1388   ar
  1170  1387  1386   ar
  1171  1223  1222    1
  1172   101    99   ar
  1173  1371  1370   ar
  1174  1371  1372    1
  1175  1311  1312   ar
  1176  1311  1310   ar
  1177    52    59   ar
  1178    52    53   ar
  1179  1006  1007    1
  1180  1312  1313   ar
  1181    74    75    2
  1182  1328  1329   ar
  1183  1385  1384    1
  1184  1385  1386    1
  1185    54    53    2
  1186  1009  1013    1
  1187  1009  1008    1
  1188  1254  1256    1
  1189  1254  1243    1
  1190  1254  1257    1
  1191  1331  1329   ar
  1192  1331  1333    1
  1193  1238  1239    1
  1194  1219  1218    1
  1195  1219  1220    1
  1196  1303  1299    1
  1197  1303  1304    1
  1198    96    97    2
  1199    96    98   ar
  1200  1239  1240    1
  1201  1388  1389   ar
  1202    59    58   ar
  1203  1640  1641   ar
  1204  1640  1639   ar
  1205  1349  1351   ar
  1206  1349  1350    2
  1207  1013  1012    1
  1208  1215  1218    1
  1209  1215  1217    1
  1210  1215  1202    1
  1211  1641  1642   ar
  1212  1037  1036   ar
  1213  1037  1044   ar
  1214    53    55   ar
  1215  1298  1299    1
  1216  1298  1297    1
  1217  1632  1631    1
  1218  1632  1628    1
  1219  1386  1396   ar
  1220    78    77    1
  1221  1401  1402    1
  1222  1042  1041    1
  1223  1041  1043   ar
  1224    26    28    1
  1225    26    24    1
  1226    28    29    1
  1227  1036  1035   ar
  1228  1414  1415   ar
  1229  1414  1412   ar
  1230  1310  1308   ar
  1231    99    98   ar
  1232    99   100    1
  1233  1329  1330    2
  1234  1631  1629    1
  1235  1222  1220    1
  1236  1222  1224    1
  1237  1243  1242    1
  1238  1257  1258    1
  1239  1220  1221    1
  1240  1007  1008    1
  1241  1313  1304   ar
  1242  1313  1307   ar
  1243    75    77    1
  1244    75    76    1
  1245  1419  1417    2
  1246  1415  1408   ar
  1247  1413  1412    2
  1248  1639  1637   ar
  1249  1258  1259    1
  1250  1275  1273    2
  1251  1242  1240    1
  1252  1242  1244    1
  1253    58    56   ar
  1254  1008  1010    1
  1255  1240  1241    1
  1256  1628  1627    1
  1257    77  1289    1
  1258  1304  1305   ar
  1259    24    23    1
  1260    24    25    1
  1261    55    56   ar
  1262  1044  1043   ar
  1263  1044  1034   ar
  1264  1412  1411   ar
  1265  1389  1396   ar
  1266  1389  1390   ar
  1267  1202  1201    1
  1268  1642  1633   ar
  1269  1642  1636   ar
  1270  1012  1010    1
  1271  1396  1395   ar
  1272  1619  1618   ar
  1273  1619  1620   ar
  1274  1308  1307   ar
  1275  1308  1309    1
  1276  1494  1493    1
  1277  1292  1290    1
  1278  1297  1296    1
  1279  1035  1034   ar
  1280    56    57    1
  1281  1010  1011    1
  1282  1307  1306   ar
  1283  1402  1403    1
  1284  1402  1404    1
  1285  1296  1293    1
  1286    23    22    1
  1287  1224  1225    1
  1288  1417  1418    1
  1289  1417  1405    1
  1290  1417  1420    1
  1291    29    25    1
  1292    29    30    1
  1293  1633  1634   ar
  1294  1629  1627    1
  1295  1629  1630    1
  1296    38    37    1
  1297  1618  1616   ar
  1298  1403  1407    1
  1299  1404  1405    1
  1300  1404  1406    1
  1301  1274  1273    1
  1302  1627  1626    1
  1303  1598  1597    1
  1304  1495  1493   ar
  1305  1495  1496   ar
  1306  1221  1225    1
  1307  1515  1514    1
  1308  1474  1473    2
  1309  1273  1262    1
  1310  1273  1276    1
  1311  1513  1514   ar
  1312  1513  1511   ar
  1313  1620  1621   ar
  1314  1034  1033    1
  1315  1289  1288    1
  1316  1637  1636   ar
  1317  1637  1638    1
  1318    39    37   ar
  1319    39    40   ar
  1320  1512  1511    2
  1321  1408  1407    1
  1322  1408  1409   ar
  1323  1025  1023    2
  1324  1455  1454    1
  1325  1305  1306   ar
  1326  1244  1245    1
  1327  1241  1245    1
  1328  1493  1492   ar
  1329  1259  1261    1
  1330  1259  1260    1
  1331  1636  1635   ar
  1332  1390  1391    2
  1333  1390  1392   ar
  1334    22    19    1
  1335    37    36   ar
  1336  1262  1261    1
  1337  1514  1516   ar
  1338  1411  1409   ar
  1339  1395  1393   ar
  1340  1511  1510   ar
  1341    20    19    2
  1342    30    40   ar
  1343    30    31   ar
  1344  1253  1252   ar
  1345  1253  1246   ar
  1346  1201  1203    1
  1347  1201  1199    1
  1348  1225  1226    1
  1349  1290  1288   ar
  1350  1290  1291   ar
  1351  1261  1263    1
  1352  1596  1597   ar
  1353  1596  1594   ar
  1354    40    33   ar
  1355  1271  1272   ar
  1356  1271  1269   ar
  1357  1407  1406    1
  1358  1288  1287   ar
  1359  1011  1023    1
  1360  1496  1497   ar
  1361  1294  1293    2
  1362  1272  1265   ar
  1363  1252  1250   ar
  1364  1597  1599   ar
  1365  1409  1410    2
  1366  1260  1264    1
  1367  1293  1295    1
  1368  1293  1281    1
  1369  1245  1246    1
  1370  1420  1421    1
  1371  1634  1635   ar
  1372  1276  1277    1
  1373  1616  1617    1
  1374  1616  1615   ar
  1375  1233  1226   ar
  1376  1233  1232   ar
  1377  1473  1472   ar
  1378  1473  1475   ar
  1379  1198  1199    1
  1380  1198  1197    1
  1381    19    21    1
  1382    19     6    1
  1383    36    34   ar
  1384  1626  1625    1
  1385  1595  1594    2
  1386  1430  1429   ar
  1387  1430  1431   ar
  1388  1621  1615   ar
  1389  1621  1612   ar
  1390  1203  1204    1
  1391  1199  1200    1
  1392  1033  1029    1
  1393  1033  1032    1
  1394  1246  1247   ar
  1395  1023  1026    1
  1396  1023  1024    1
  1397  1226  1227   ar
  1398  1454  1456   ar
  1399  1454  1453   ar
  1400    31    32   ar
  1401  1625  1622    1
  1402  1516  1517   ar
  1403  1026  1027    1
  1404  1510  1509    1
  1405  1510  1517   ar
  1406  1392  1393   ar
  1407  1393  1394    1
  1408  1234  1232    1
  1409  1477  1475    1
  1410  1291  1284   ar
  1411  1029  1028    1
  1412    33    34   ar
  1413    33    32   ar
  1414  1594  1593   ar
  1415  1492  1491   ar
  1416  1492  1498   ar
  1417  1270  1269    1
  1418  1433  1432    2
  1419  1429  1428   ar
  1420  1509  1508    1
  1421  1509  1505    1
  1422  1269  1268   ar
  1423  1472  1470   ar
  1424  1456  1457   ar
  1425  1232  1230   ar
  1426  1421  1422    1
  1427  1615  1614   ar
  1428    34    35    2
  1429  1287  1285   ar
  1430  1265  1264    1
  1431  1265  1266   ar
  1432  1610  1611    1
  1433  1610  1608    1
  1434  1250  1251    1
  1435  1250  1249   ar
  1436  1263  1264    1
  1437  1475  1476   ar
  1438  1497  1498   ar
  1439  1599  1600   ar
  1440  1061  1060    2
  1441  1611  1612    1
  1442  1611  1607    1
  1443  1197  1194    1
  1444  1612  1613   ar
  1445  1453  1451   ar
  1446  1277  1278    1
  1447  1281  1280    1
  1448  1491  1490   ar
  1449  1534  1533    1
  1450  1441  1439    2
  1451  1431  1432   ar
  1452  1431  1438   ar
  1453  1227  1228    2
  1454  1227  1229   ar
  1455  1508  1506    1
  1456  1280  1278    1
  1457  1280  1282    1
  1458     6     5    1
  1459  1498  1489   ar
  1460  1027  1028    1
  1461  1505  1504    1
  1462  1247  1249   ar
  1463  1247  1248    2
  1464  1432  1434   ar
  1465  1195  1194    2
  1466  1032  1030    1
  1467  1284  1285   ar
  1468  1284  1283    1
  1469  1028  1030    1
  1470  1200  1204    1
  1471  1204  1205    1
  1472  1268  1266   ar
  1473  1230  1229   ar
  1474  1230  1231    1
  1475  1553  1552    2
  1476  1030  1031    1
  1477  1622  1624    1
  1478  1622  1623    1
  1479  1285  1286    2
  1480  1593  1600   ar
  1481  1593  1592   ar
  1482  1266  1267    2
  1483  1428  1438   ar
  1484  1428  1427    1
  1485  1457  1450   ar
  1486  1600  1590   ar
  1487  1470  1471    2
  1488  1470  1469   ar
  1489  1060  1059   ar
  1490  1060  1062   ar
  1491  1278  1279    1
  1492  1423  1422    1
  1493  1423  1427    1
  1494  1422  1424    1
  1495  1058  1059   ar
  1496  1058  1057   ar
  1497  1194  1196    1
  1498  1194  1183    1
  1499  1047  1045    2
  1500  1282  1283    1
  1501  1614  1613   ar
  1502  1607  1606    1
  1503  1476  1469   ar
  1504     7     5    1
  1505     7     8    1
  1506  1608  1609    1
  1507  1608  1606    1
  1508  1624  1609    1
  1509     5     3    1
  1510  1438  1437   ar
  1511    16    15    1
  1512    16    17    2
  1513  1504  1506    1
  1514  1504  1503    1
  1515  1205  1214   ar
  1516  1205  1206   ar
  1517  1533  1535   ar
  1518  1533  1532   ar
  1519  1490  1489   ar
  1520  1279  1283    1
  1521  1231    15    1
  1522  1451  1450   ar
  1523  1451  1452    2
  1524  1083  1082    2
  1525  1059  1066   ar
  1526    15    13    1
  1527  1424  1425    1
  1528  1424  1426    1
  1529  1489  1488    1
  1530  1506  1507    1
  1531  1062  1063   ar
  1532  1434  1435   ar
  1533  1439  1440    1
  1534  1439  1425    1
  1535  1439  1442    1
  1536  1213  1214   ar
  1537  1213  1212   ar
  1538  1535  1536   ar
  1539    17    18    1
  1540  1606  1605    1
  1541  1469  1468    1
  1542  1552  1554   ar
  1543  1552  1551   ar
  1544  1427  1426    1
  1545  1450  1449    1
  1546  1575  1574    2
  1547  1057  1056   ar
  1548  1554  1555   ar
  1549  1214  1208   ar
  1550  1206  1207   ar
  1551  1460  1458    2
  1552  1592  1591   ar
  1553  1573  1574   ar
  1554  1573  1571   ar
  1555    13    14    1
  1556    13    12    2
  1557  1502  1503    1
  1558  1502  1499    1
  1559  1031  1045    1
  1560  1572  1571    2
  1561  1442  1443    1
  1562    14  1127    1
  1563  1590  1591   ar
  1564  1590  1589    1
  1565  1501  1499    2
  1566  1212  1211   ar
  1567  1532  1530   ar
  1568    18    12    1
  1569    18     9    1
  1570  1082  1084   ar
  1571  1082  1081   ar
  1572  1045  1046    1
  1573  1045  1048    1
  1574  1520  1518    2
  1575  1066  1056   ar
  1576  1066  1065   ar
  1577  1437  1435   ar
  1578  1574  1576   ar
  1579  1084  1085   ar
  1580    12    11    1
  1581  1105  1104    2
  1582  1435  1436    1
  1583  1063  1065   ar
  1584  1063  1064    1
  1585  1208  1207   ar
  1586  1208  1209   ar
  1587     3     2    1
  1588     3     4    1
  1589  1571  1570   ar
  1590     8     9    1
  1591     8     4    1
  1592  1056  1055    1
  1593  1488  1487    1
  1594  1488  1484    1
  1595  1487  1485    1
  1596  1556  1555    1
  1597  1536  1529   ar
  1598  1588  1589    1
  1599  1588  1586    1
  1600  1128  1129   ar
  1601  1128  1126   ar
  1602     9    10    1
  1603  1589  1585    1
  1604  1555  1557   ar
  1605  1551  1550   ar
  1606  1551  1558   ar
  1607  1183  1182    1
  1608  1106  1104   ar
  1609  1106  1107   ar
  1610  1211  1209   ar
  1611  1449  1448    1
  1612  1449  1445    1
  1613  1446  1448    1
  1614  1446  1447    1
  1615  1446  1444    1
  1616  1499  1500    1
  1617  1499  1486    1
  1618  1129  1130   ar
  1619  1605  1604    1
  1620  1468  1467    1
  1621  1468  1464    1
  1622     2     1    1
  1623  1480  1478    2
  1624    11    10    2
  1625  1048  1049    1
  1626  1108  1107    1
  1627  1458  1461    1
  1628  1458  1447    1
  1629  1458  1459    1
  1630  1209  1210    1
  1631  1104  1103   ar
  1632  1550  1549   ar
  1633  1081  1080   ar
  1634  1081  1088   ar
  1635  1184  1182    1
  1636  1184  1185    1
  1637  1461  1462    1
  1638  1445  1444    1
  1639  1188  1187    2
  1640  1127  1126    2
  1641  1443  1444    1
  1642  1080  1079   ar
  1643  1485  1486    1
  1644  1485  1483    1
  1645  1530  1529   ar
  1646  1530  1531    2
  1647  1051  1055    1
  1648  1051  1050    1
  1649  1085  1086    1
  1650  1085  1087   ar
  1651  1518  1521    1
  1652  1518  1519    2
  1653  1126  1125   ar
  1654  1107  1109   ar
  1655  1467  1465    1
  1656  1055  1054    1
  1657  1182  1180    1
  1658  1484  1483    1
  1659  1464  1463    1
  1660  1529  1528    1
  1661  1604  1601    1
  1662  1576  1578    1
  1663  1576  1577   ar
  1664  1558  1557   ar
  1665  1558  1548   ar
  1666  1187  1189   ar
  1667  1187  1186   ar
  1668  1570  1577   ar
  1669  1570  1569    1
  1670  1465  1463    1
  1671  1465  1466    1
  1672  1189  1190   ar
  1673  1481  1478    1
  1674  1481  1482    1
  1675  1130  1131   ar
  1676  1585  1584    1
  1677  1088  1087   ar
  1678  1088  1078   ar
  1679  1586  1587    1
  1680  1586  1584    1
  1681  1049  1050    1
  1682  1521  1522    1
  1683  1478  1466    1
  1684  1478  1479    1
  1685  1103  1102   ar
  1686  1103  1110   ar
  1687  1483  1482    1
  1688  1079  1078   ar
  1689  1549  1548   ar
  1690  1463  1462    1
  1691  1185  1186    1
  1692  1185  1181    1
  1693  1050  1052    1
  1694  1186  1193   ar
  1695  1151  1150    1
  1696  1587  1601    1
  1697  1125  1131   ar
  1698  1125  1124   ar
  1699  1109  1110   ar
  1700  1190  1191    1
  1701  1190  1192   ar
  1702  1569  1568    1
  1703  1569  1565    1
  1704  1603  1601    2
  1705  1131  1122   ar
  1706  1054  1052    1
  1707  1548  1547    1
  1708  1601  1602    1
  1709  1584  1583    1
  1710  1078  1077    1
  1711  1524  1528    1
  1712  1524  1523    1
  1713  1528  1527    1
  1714  1102  1101   ar
  1715  1110  1100   ar
  1716  1180  1181    1
  1717  1180  1179    1
  1718  1052  1053    1
  1719  1568  1566    1
  1720  1193  1192   ar
  1721  1150  1149   ar
  1722  1150  1152   ar
  1723  1522  1523    1
  1724  1124  1123   ar
  1725  1565  1564    1
  1726  1122  1123   ar
  1727  1122  1121    1
  1728  1179  1178    1
  1729  1149  1147   ar
  1730  1523  1525    1
  1731  1152  1153   ar
  1732  1101  1100   ar
  1733  1527  1525    1
  1734  1525  1526    1
  1735  1539  1537    2
  1736  1100  1099    1
  1737  1171  1172   ar
  1738  1171  1169   ar
  1739  1077  1073    1
  1740  1077  1076    1
  1741  1172  1173   ar
  1742  1178  1175    1
  1743  1069  1067    2
  1744  1547  1546    1
  1745  1547  1543    1
  1746  1583  1582    1
  1747  1053  1067    1
  1748  1073  1072    1
  1749  1582  1579    1
  1750  1121  1117    1
  1751  1121  1120    1
  1752  1566  1564    1
  1753  1566  1567    1
  1754  1153  1146   ar
  1755  1153  1143   ar
  1756  1147  1148    2
  1757  1147  1146   ar
  1758  1170  1169    1
  1759  1173  1174   ar
  1760  1546  1544    1
  1761  1169  1168   ar
  1762  1564  1563    1
  1763  1543  1542    1
  1764  1099  1098    1
  1765  1099  1095    1
  1766  1561  1559    2
  1767  1176  1175    2
  1768  1070  1067    1
  1769  1070  1071    1
  1770  1067  1068    1
  1771  1540  1537    1
  1772  1540  1541    1
  1773  1526  1537    1
  1774  1117  1116    1
  1775  1076  1074    1
  1776  1142  1138    1
  1777  1142  1143    1
  1778  1142  1141    1
  1779  1537  1538    1
  1780  1175  1177    1
  1781  1175  1162    1
  1782  1146  1145   ar
  1783  1138  1137    1
  1784  1567  1579    1
  1785  1120  1118    1
  1786  1143  1144   ar
  1787  1544  1542    1
  1788  1544  1545    1
  1789  1098  1096    1
  1790  1174  1168   ar
  1791  1174  1165   ar
  1792  1072  1074    1
  1793  1072  1071    1
  1794  1168  1167   ar
  1795  1095  1094    1
  1796  1581  1579    2
  1797  1074  1075    1
  1798  1579  1580    1
  1799  1542  1541    1
  1800  1563  1562    1
  1801  1163  1161    1
  1802  1163  1164    1
  1803  1141  1139    1
  1804  1145  1144   ar
  1805  1559  1562    1
  1806  1559  1545    1
  1807  1559  1560    1
  1808  1137  1136    1
  1809  1137  1139    1
  1810  1162  1161    1
  1811  1116  1118    1
  1812  1116  1115    1
  1813  1091  1089    2
  1814  1118  1119    1
  1815  1161  1159    1
  1816  1165  1164    1
  1817  1165  1166   ar
  1818  1167  1166   ar
  1819  1096  1094    1
  1820  1096  1097    1
  1821  1136  1135    1
  1822  1164  1160    1
  1823  1094  1093    1
  1824  1075  1089    1
  1825  1139  1140    1
  1826  1092  1089    1
  1827  1092  1093    1
  1828  1115  1114    1
  1829  1113  1111    2
  1830  1089  1090    1
  1831  1135  1132    1
  1832  1119  1132    1
  1833  1140  1154    1
  1834  1097  1111    1
  1835  1159  1160    1
  1836  1159  1158    1
  1837  1132  1134    2
  1838  1132  1133    1
  1839  1157  1158    1
  1840  1157  1154    1
  1841  1114  1111    1
  1842  1111  1112    1
  1843  1154  1155    2
  1844  1154  1156    1
