@<TRIPOS>MOLECULE
dna.pdb
 1946 2178 0 0 0
SMALL
GASTEIGER

@<TRIPOS>ATOM
      1  O5'       11.2030   -2.0910    0.5400 O.3     1  DA1        -0.2176
      2  C5'       12.3160   -1.6510   -0.2590 C.3     1  DA1         0.2140
      3  C4'       12.9380   -2.8280   -0.9820 C.3     1  DA1         0.1776
      4  O4'       13.5180   -3.7680   -0.0300 O.3     1  DA1        -0.3326
      5  C3'       11.9630   -3.6810   -1.7660 C.3     1  DA1         0.1559
      6  O3'       11.6450   -3.0890   -3.0080 O.3     1  DA1        -0.3138
      7  C2'       12.7290   -4.9840   -1.8990 C.3     1  DA1         0.0865
      8  C1'       13.3570   -5.0950   -0.5140 C.3     1  DA1         0.2094
      9  N9        12.3540   -5.7760    0.4090 N.ar    1  DA1        -0.2714
     10  C8        11.2790   -5.2250    1.0550 C.ar    1  DA1         0.1815
     11  N7        10.5640   -6.0950    1.7290 N.ar    1  DA1        -0.2193
     12  C5        11.2140   -7.2990    1.5100 C.ar    1  DA1         0.1518
     13  C6        10.9550   -8.6080    1.9510 C.ar    1  DA1         0.1919
     14  N6         9.9270   -8.9330    2.7400 N.pl3   1  DA1        -0.1054
     15  N1        11.7980   -9.5840    1.5500 N.ar    1  DA1        -0.2040
     16  C2        12.8280   -9.2570    0.7610 C.ar    1  DA1         0.2016
     17  N3        13.1750   -8.0650    0.2810 N.ar    1  DA1        -0.2048
     18  C4        12.3180   -7.1180    0.6970 C.ar    1  DA1         0.1691
     19  P         10.1610   -2.5640   -3.3130 P.3     2  DT2         0.2141
     20  OP1       10.3120   -1.4480   -4.2740 O.2     2  DT2        -0.5172
     21  OP2        9.2550   -2.4440   -2.1490 O.3     2  DT2        -0.4373
     22  O5'        9.6360   -3.8630   -4.0830 O.3     2  DT2        -0.3114
     23  C5'       10.4200   -4.3560   -5.1600 C.3     2  DT2         0.1811
     24  C4'       10.6000   -5.8520   -5.1010 C.3     2  DT2         0.1746
     25  O4'       11.1650   -6.2510   -3.8250 O.3     2  DT2        -0.3327
     26  C3'        9.3310   -6.6790   -5.2180 C.3     2  DT2         0.1558
     27  O3'        8.8970   -6.8120   -6.5600 O.3     2  DT2        -0.3138
     28  C2'        9.7270   -7.9990   -4.5700 C.3     2  DT2         0.0866
     29  C1'       10.6930   -7.5350   -3.4740 C.3     2  DT2         0.2106
     30  N1        10.1620   -7.4700   -2.1290 N.ar    2  DT2        -0.2559
     31  C2        10.0700   -8.6160   -1.3610 C.ar    2  DT2         0.3545
     32  O2        10.4650   -9.7040   -1.7410 O.2     2  DT2        -0.2443
     33  N3         9.4960   -8.4420   -0.1250 N.ar    2  DT2        -0.1533
     34  C4         9.0150   -7.2650    0.4090 C.ar    2  DT2         0.2804
     35  O4         8.5260   -7.2660    1.5360 O.2     2  DT2        -0.2654
     36  C5         9.1450   -6.1210   -0.4490 C.ar    2  DT2         0.0534
     37  C6         9.7000   -6.2610   -1.6560 C.ar    2  DT2         0.0824
     38  C7         8.6500   -4.7930    0.0420 C.3     2  DT2         0.0377
     39  P          7.3390   -7.4440   -6.8560 P.3     3  DA3         0.2141
     40  OP1        7.3730   -7.4100   -8.3600 O.2     3  DA3        -0.5172
     41  OP2        6.1350   -6.9220   -6.1400 O.3     3  DA3        -0.4373
     42  O5'        7.6630   -8.9400   -6.3850 O.3     3  DA3        -0.3114
     43  C5'        6.6610   -9.9530   -6.3780 C.3     3  DA3         0.1811
     44  C4'        6.9470  -10.9760   -5.3010 C.3     3  DA3         0.1746
     45  O4'        7.4410  -10.2960   -4.1170 O.3     3  DA3        -0.3327
     46  C3'        5.6890  -11.6930   -4.8370 C.3     3  DA3         0.1558
     47  O3'        5.3530  -12.8220   -5.6280 O.3     3  DA3        -0.3138
     48  C2'        6.0090  -12.0480   -3.3960 C.3     3  DA3         0.0865
     49  C1'        6.8340  -10.8390   -2.9510 C.3     3  DA3         0.2094
     50  N9         5.9940   -9.8130   -2.2790 N.ar    3  DA3        -0.2714
     51  C8         5.9500   -8.5140   -2.7130 C.ar    3  DA3         0.1815
     52  N7         5.4250   -7.6830   -1.8440 N.ar    3  DA3        -0.2193
     53  C5         5.1020   -8.4910   -0.7660 C.ar    3  DA3         0.1518
     54  C6         4.5130   -8.2150    0.4810 C.ar    3  DA3         0.1919
     55  N6         4.1320   -6.9950    0.8640 N.pl3   3  DA3        -0.1054
     56  N1         4.3280   -9.2490    1.3290 N.ar    3  DA3        -0.2040
     57  C2         4.7120  -10.4720    0.9450 C.ar    3  DA3         0.2016
     58  N3         5.2760  -10.8550   -0.1980 N.ar    3  DA3        -0.2048
     59  C4         5.4450   -9.8060   -1.0200 C.ar    3  DA3         0.1691
     60  P          3.9370  -13.0190   -5.9940 P.3     4  DC4         0.2141
     61  OP1        4.7460  -13.3060   -7.2100 O.2     4  DC4        -0.5172
     62  OP2        2.5990  -12.3810   -6.1350 O.3     4  DC4        -0.4373
     63  O5'        3.7860  -14.3800   -5.1830 O.3     4  DC4        -0.3114
     64  C5'        2.5220  -14.7770   -4.7120 C.3     4  DC4         0.1811
     65  C4'        2.5470  -14.9560   -3.2260 C.3     4  DC4         0.1746
     66  O4'        3.3240  -13.9130   -2.5860 O.3     4  DC4        -0.3327
     67  C3'        1.1620  -14.7810   -2.6590 C.3     4  DC4         0.1558
     68  O3'        0.4180  -15.9660   -2.8490 O.3     4  DC4        -0.3138
     69  C2'        1.4190  -14.3670   -1.2170 C.3     4  DC4         0.0866
     70  C1'        2.6850  -13.5220   -1.3760 C.3     4  DC4         0.2106
     71  N1         2.2970  -12.0910   -1.4150 N.ar    4  DC4        -0.2556
     72  C2         1.9610  -11.3940   -0.2490 C.ar    4  DC4         0.3531
     73  O2         1.8610  -12.0260    0.8170 O.2     4  DC4        -0.2443
     74  N3         1.7540  -10.0570   -0.3160 N.ar    4  DC4        -0.1739
     75  C4         1.8700   -9.4220   -1.4820 C.ar    4  DC4         0.1759
     76  N4         1.6570   -8.1040   -1.5000 N.pl3   4  DC4        -0.1070
     77  C5         2.2100  -10.1100   -2.6750 C.ar    4  DC4         0.0566
     78  C6         2.4140  -11.4300   -2.6050 C.ar    4  DC4         0.0849
     79  P         -0.9760  -15.8930   -3.7160 P.3     5  DC5         0.2141
     80  OP1       -1.4810  -17.2220   -4.1300 O.3     5  DC5        -0.4373
     81  OP2       -0.9760  -14.7700   -4.6850 O.2     5  DC5        -0.5172
     82  O5'       -1.7680  -15.3930   -2.4300 O.3     5  DC5        -0.3114
     83  C5'       -1.8600  -16.2310   -1.2710 C.3     5  DC5         0.1811
     84  C4'       -2.6500  -15.5530   -0.1780 C.3     5  DC5         0.1746
     85  O4'       -1.8660  -14.5050    0.4550 O.3     5  DC5        -0.3327
     86  C3'       -3.9350  -14.8590   -0.5880 C.3     5  DC5         0.1558
     87  O3'       -5.0280  -15.7300   -0.7460 O.3     5  DC5        -0.3138
     88  C2'       -4.1680  -13.9020    0.5680 C.3     5  DC5         0.0866
     89  C1'       -2.7370  -13.4830    0.9130 C.3     5  DC5         0.2106
     90  N1        -2.4490  -12.2090    0.1890 N.ar    5  DC5        -0.2556
     91  C2        -2.6270  -11.0050    0.8810 C.ar    5  DC5         0.3531
     92  O2        -2.9820  -11.0460    2.0710 O.2     5  DC5        -0.2443
     93  N3        -2.4090   -9.8350    0.2340 N.ar    5  DC5        -0.1739
     94  C4        -2.0310   -9.8390   -1.0440 C.ar    5  DC5         0.1759
     95  N4        -1.8280   -8.6620   -1.6400 N.pl3   5  DC5        -0.1070
     96  C5        -1.8450  -11.0480   -1.7630 C.ar    5  DC5         0.0566
     97  C6        -2.0610  -12.2020   -1.1200 C.ar    5  DC5         0.0849
     98  P         -6.2740  -15.2860   -1.6880 P.3     6  DA6         0.2141
     99  OP1       -7.0190  -16.1860   -2.6200 O.2     6  DA6        -0.5172
    100  OP2       -5.5030  -14.1470   -2.2360 O.3     6  DA6        -0.4373
    101  O5'       -7.3010  -14.7350   -0.5930 O.3     6  DA6        -0.3114
    102  C5'       -8.4270  -15.5190   -0.1700 C.3     6  DA6         0.1811
    103  C4'       -9.3630  -14.6880    0.6840 C.3     6  DA6         0.1746
    104  O4'       -8.6460  -14.2550    1.8660 O.3     6  DA6        -0.3327
    105  C3'       -9.8620  -13.4050    0.0430 C.3     6  DA6         0.1558
    106  O3'      -11.0490  -13.5930   -0.7120 O.3     6  DA6        -0.3138
    107  C2'      -10.1140  -12.4990    1.2360 C.3     6  DA6         0.0865
    108  C1'       -8.9990  -12.9230    2.1880 C.3     6  DA6         0.2094
    109  N9        -7.8240  -12.0700    2.0580 N.ar    6  DA6        -0.2714
    110  C8        -6.8220  -12.1070    1.1240 C.ar    6  DA6         0.1815
    111  N7        -6.0010  -11.0860    1.1880 N.ar    6  DA6        -0.2193
    112  C5        -6.4980  -10.3250    2.2350 C.ar    6  DA6         0.1518
    113  C6        -6.0750   -9.1130    2.8080 C.ar    6  DA6         0.1919
    114  N6        -5.0080   -8.4300    2.3870 N.pl3   6  DA6        -0.1054
    115  N1        -6.7940   -8.6230    3.8400 N.ar    6  DA6        -0.2040
    116  C2        -7.8620   -9.3100    4.2610 C.ar    6  DA6         0.2016
    117  N3        -8.3580  -10.4580    3.8050 N.ar    6  DA6        -0.2048
    118  C4        -7.6220  -10.9180    2.7790 C.ar    6  DA6         0.1691
    119  P        -11.4840  -12.4660   -1.8690 P.3     7  DG7         0.2141
    120  OP1      -11.9170  -13.2210   -3.0670 O.2     7  DG7        -0.5172
    121  OP2      -10.8350  -11.1330   -2.0310 O.3     7  DG7        -0.4373
    122  O5'      -12.7420  -12.3090   -0.9090 O.3     7  DG7        -0.3114
    123  C5'      -13.5700  -11.1610   -0.9950 C.3     7  DG7         0.1811
    124  C4'      -13.7440  -10.5480    0.3670 C.3     7  DG7         0.1746
    125  O4'      -12.4770  -10.5570    1.0710 O.3     7  DG7        -0.3327
    126  C3'      -14.1500   -9.0910    0.3360 C.3     7  DG7         0.1558
    127  O3'      -15.5590   -8.9980    0.2080 O.3     7  DG7        -0.3138
    128  C2'      -13.6560   -8.5790    1.6830 C.3     7  DG7         0.0865
    129  C1'      -12.3620   -9.3830    1.8600 C.3     7  DG7         0.2094
    130  N9       -11.2060   -8.6710    1.5180 N.ar    7  DG7        -0.2713
    131  C8       -10.3970   -8.9480    0.4420 C.ar    7  DG7         0.1816
    132  N7        -9.3670   -8.1520    0.3540 N.ar    7  DG7        -0.2173
    133  C5        -9.4980   -7.3000    1.4340 C.ar    7  DG7         0.1748
    134  C6        -8.6820   -6.2210    1.8640 C.ar    7  DG7         0.3023
    135  O6        -7.6410   -5.7960    1.3490 O.2     7  DG7        -0.2633
    136  N1        -9.1810   -5.6170    3.0150 N.ar    7  DG7        -0.1709
    137  C2       -10.3260   -6.0040    3.6700 C.ar    7  DG7         0.2606
    138  N2       -10.6460   -5.3000    4.7650 N.pl3   7  DG7        -0.0859
    139  N3       -11.0940   -7.0030    3.2830 N.ar    7  DG7        -0.1918
    140  C4       -10.6290   -7.6040    2.1670 C.ar    7  DG7         0.1722
    141  P        -16.2340   -7.6000   -0.1410 P.3     8  DC8         0.2141
    142  OP1      -17.6540   -7.9950   -0.2850 O.3     8  DC8        -0.4373
    143  OP2      -15.4920   -7.0380   -1.2930 O.2     8  DC8        -0.5172
    144  O5'      -16.1260   -6.4700    0.9850 O.3     8  DC8        -0.3114
    145  C5'      -16.9670   -6.5360    2.1250 C.3     8  DC8         0.1811
    146  C4'      -16.5940   -5.4880    3.1410 C.3     8  DC8         0.1746
    147  O4'      -15.2320   -5.6980    3.5920 O.3     8  DC8        -0.3327
    148  C3'      -16.6030   -4.0510    2.6480 C.3     8  DC8         0.1558
    149  O3'      -17.9030   -3.4870    2.6380 O.3     8  DC8        -0.3138
    150  C2'      -15.6570   -3.3630    3.6220 C.3     8  DC8         0.0866
    151  C1'      -14.6280   -4.4580    3.8900 C.3     8  DC8         0.2106
    152  N1       -13.4350   -4.3450    3.0730 N.ar    8  DC8        -0.2556
    153  C2       -12.5130   -3.3580    3.4380 C.ar    8  DC8         0.3531
    154  O2       -12.6840   -2.7440    4.5050 O.2     8  DC8        -0.2443
    155  N3       -11.4640   -3.1010    2.6200 N.ar    8  DC8        -0.1739
    156  C4       -11.3210   -3.7840    1.4840 C.ar    8  DC8         0.1759
    157  N4       -10.2720   -3.4960    0.7100 N.pl3   8  DC8        -0.1070
    158  C5       -12.2450   -4.7880    1.0960 C.ar    8  DC8         0.0566
    159  C6       -13.2790   -5.0390    1.9070 C.ar    8  DC8         0.0849
    160  P        -18.2980   -2.0790    1.7920 P.3     9  DT9         0.2141
    161  OP1      -19.6950   -1.7550    2.1750 O.3     9  DT9        -0.4373
    162  OP2      -18.0060   -2.5910    0.4250 O.2     9  DT9        -0.5172
    163  O5'      -17.3980   -0.7900    2.0430 O.3     9  DT9        -0.3114
    164  C5'      -17.2670   -0.2490    3.3500 C.3     9  DT9         0.1811
    165  C4'      -16.0840    0.6890    3.4210 C.3     9  DT9         0.1746
    166  O4'      -14.8280   -0.0410    3.3650 O.3     9  DT9        -0.3327
    167  C3'      -15.9440    1.7500    2.3390 C.3     9  DT9         0.1558
    168  O3'      -16.7880    2.8740    2.5920 O.3     9  DT9        -0.3138
    169  C2'      -14.4780    2.1500    2.4870 C.3     9  DT9         0.0866
    170  C1'      -13.8140    0.8290    2.8870 C.3     9  DT9         0.2106
    171  N1       -13.0120    0.0260    2.4530 N.ar    9  DT9        -0.2559
    172  C2       -11.6680    0.3300    2.3400 C.ar    9  DT9         0.3545
    173  O2       -11.0700    1.0080    3.1570 O.2     9  DT9        -0.2443
    174  N3       -11.0460   -0.1890    1.2310 N.ar    9  DT9        -0.1533
    175  C4       -11.6190   -0.9640    0.2440 C.ar    9  DT9         0.2804
    176  O4       -10.9290   -1.3580   -0.6930 O.2     9  DT9        -0.2654
    177  C5       -13.0170   -1.2350    0.4320 C.ar    9  DT9         0.0534
    178  C6       -13.6470   -0.7430    1.5020 C.ar    9  DT9         0.0824
    179  C7       -13.7320   -2.0700   -0.5890 C.3     9  DT9         0.0377
    180  P        -17.5130    3.7850    1.3510 P.3    10  DT10        0.2141
    181  OP1      -18.6060    4.7880    1.2960 O.3    10  DT10       -0.4373
    182  OP2      -17.0140    3.1750    0.0930 O.2    10  DT10       -0.5172
    183  O5'      -16.2990    4.4790    2.1090 O.3    10  DT10       -0.3114
    184  C5'      -16.4960    5.1060    3.3860 C.3    10  DT10        0.1811
    185  C4'      -15.2420    5.8250    3.8080 C.3    10  DT10        0.1746
    186  O4'      -14.1560    4.8600    3.9230 O.3    10  DT10       -0.3327
    187  C3'      -14.7420    6.8990    2.8500 C.3    10  DT10        0.1558
    188  O3'      -14.0840    7.8750    3.6480 O.3    10  DT10       -0.3138
    189  C2'      -13.7460    6.1220    1.9910 C.3    10  DT10        0.0866
    190  C1'      -13.1100    5.2150    3.0390 C.3    10  DT10        0.2106
    191  N1       -12.6020    4.1240    2.5560 N.ar   10  DT10       -0.2559
    192  C2       -11.2540    3.8200    2.5140 C.ar   10  DT10        0.3545
    193  O2       -10.4800    4.1090    3.4090 O.2    10  DT10       -0.2443
    194  N3       -10.8410    3.1640    1.3800 N.ar   10  DT10       -0.1533
    195  C4       -11.6230    2.7890    0.3070 C.ar   10  DT10        0.2804
    196  O4       -11.1080    2.2030   -0.6420 O.2    10  DT10       -0.2654
    197  C5       -13.0100    3.1400    0.4250 C.ar   10  DT10        0.0534
    198  C6       -13.4390    3.7790    1.5170 C.ar   10  DT10        0.0824
    199  C7       -13.9430    2.7750   -0.6920 C.3    10  DT10        0.0377
    200  P        -14.0180    9.0330    3.1050 P.3    11  DA11        0.2141
    201  OP1      -14.6620   10.1310    3.8720 O.3    11  DA11       -0.4373
    202  OP2      -14.4600    8.7540    1.7130 O.2    11  DA11       -0.5172
    203  O5'      -12.4390    9.2580    3.0800 O.3    11  DA11       -0.3114
    204  C5'      -11.6920    9.3920    4.2860 C.3    11  DA11        0.1811
    205  C4'      -10.2850    8.8970    4.0720 C.3    11  DA11        0.1746
    206  O4'      -10.3520    7.4670    3.8390 O.3    11  DA11       -0.3327
    207  C3'       -9.6250    9.4250    2.8050 C.3    11  DA11        0.1558
    208  O3'       -9.0340   10.7100    3.0590 O.3    11  DA11       -0.3138
    209  C2'       -8.5570    8.3600    2.5670 C.3    11  DA11        0.0865
    210  C1'       -9.3300    7.0900    2.9290 C.3    11  DA11        0.2094
    211  N9       -10.0230    6.6110    1.6180 N.ar   11  DA11       -0.2714
    212  C8       -11.3780    6.5440    1.4220 C.ar   11  DA11        0.1815
    213  N7       -11.7210    6.0350    0.2620 N.ar   11  DA11       -0.2193
    214  C5       -10.5080    5.7490   -0.3450 C.ar   11  DA11        0.1518
    215  C6       -10.1850    5.1900   -1.5950 C.ar   11  DA11        0.1919
    216  N6       -11.0970    4.8040   -2.4900 N.pl3  11  DA11       -0.1054
    217  N1        -8.8770    5.0410   -1.8940 N.ar   11  DA11       -0.2040
    218  C2        -7.9640    5.4270   -0.9960 C.ar   11  DA11        0.2016
    219  N3        -8.1450    5.9630    0.2090 N.ar   11  DA11       -0.2048
    220  C4        -9.4540    6.0990    0.4760 C.ar   11  DA11        0.1691
    221  P         -9.7260   12.0190    2.5670 P.3    12  DT12        0.2141
    222  OP1       -9.2210   13.2930    3.1220 O.3    12  DT12       -0.4373
    223  OP2      -11.0180   12.0460    1.8470 O.2    12  DT12       -0.5172
    224  O5'       -8.6340   11.3420    1.6090 O.3    12  DT12       -0.3114
    225  C5'       -7.2380   11.3610    1.9030 C.3    12  DT12        0.1811
    226  C4'       -6.4450   11.1130    0.6330 C.3    12  DT12        0.1746
    227  O4'       -6.5900    9.7150    0.2460 O.3    12  DT12       -0.3327
    228  C3'       -6.8820   11.9160   -0.6000 C.3    12  DT12        0.1558
    229  O3'       -6.3430   13.2560   -0.6370 O.3    12  DT12       -0.3138
    230  C2'       -6.2920   11.0310   -1.6950 C.3    12  DT12        0.0866
    231  C1'       -6.6040    9.6250   -1.1670 C.3    12  DT12        0.2106
    232  N1        -7.9980    9.2520   -1.7390 N.ar   12  DT12       -0.2559
    233  C2        -8.0540    8.7940   -3.0420 C.ar   12  DT12        0.3545
    234  O2        -7.0800    8.7450   -3.7720 O.2    12  DT12       -0.2443
    235  N3        -9.2990    8.3920   -3.4630 N.ar   12  DT12       -0.1533
    236  C4       -10.4670    8.4030   -2.7300 C.ar   12  DT12        0.2804
    237  O4       -11.5100    8.0100   -3.2460 O.2    12  DT12       -0.2654
    238  C5       -10.3270    8.8930   -1.3870 C.ar   12  DT12        0.0534
    239  C6        -9.1280    9.2900   -0.9520 C.ar   12  DT12        0.0824
    240  C7       -11.5420    8.9440   -0.5080 C.3    12  DT12        0.0377
    241  P         -7.2070   14.6320   -1.1590 P.3    13  DT13        0.2141
    242  OP1       -6.9210   15.8860   -0.3770 O.3    13  DT13       -0.4373
    243  OP2       -8.6550   14.2100   -1.2330 O.2    13  DT13       -0.5172
    244  O5'       -6.6810   14.6510   -2.6940 O.3    13  DT13       -0.3114
    245  C5'       -5.2130   14.5720   -2.6790 C.3    13  DT13        0.1811
    246  C4'       -4.8420   13.7830   -3.9180 C.3    13  DT13        0.1746
    247  O4'       -5.4040   12.4860   -3.8880 O.3    13  DT13       -0.3327
    248  C3'       -5.3650   14.3870   -5.2130 C.3    13  DT13        0.1558
    249  O3'       -4.6320   15.5360   -5.6030 O.3    13  DT13       -0.3138
    250  C2'       -5.2470   13.2010   -6.1510 C.3    13  DT13        0.0866
    251  C1'       -5.6420   12.0570   -5.2200 C.3    13  DT13        0.2106
    252  N1        -7.0510   11.7260   -5.4980 N.ar   13  DT13       -0.2559
    253  C2        -7.4390   10.9770   -6.5930 C.ar   13  DT13        0.3545
    254  O2        -6.6660   10.6300   -7.4670 O.2    13  DT13       -0.2443
    255  N3        -8.7730   10.6500   -6.6290 N.ar   13  DT13       -0.1533
    256  C4        -9.7360   10.9870   -5.7000 C.ar   13  DT13        0.2804
    257  O4       -10.8950   10.6180   -5.8700 O.2    13  DT13       -0.2654
    258  C5        -9.2550   11.7650   -4.5940 C.ar   13  DT13        0.0534
    259  C6        -7.9620   12.0980   -4.5340 C.ar   13  DT13        0.0824
    260  C7       -10.2270   12.1830   -3.5310 C.3    13  DT13        0.0377
    261  P         -5.2770   16.7160   -6.6390 P.3    14  DC14        0.2141
    262  OP1       -4.2180   17.7540   -6.5780 O.2    14  DC14       -0.5172
    263  OP2       -6.6640   17.0480   -6.2080 O.3    14  DC14       -0.4373
    264  O5'       -5.3360   16.1470   -8.1220 O.3    14  DC14       -0.3114
    265  C5'       -4.1450   15.7000   -8.7400 C.3    14  DC14        0.1811
    266  C4'       -4.4370   14.9430  -10.0110 C.3    14  DC14        0.1746
    267  O4'       -5.2050   13.7410   -9.7020 O.3    14  DC14       -0.3327
    268  C3'       -5.3410   15.6760  -10.9940 C.3    14  DC14        0.1558
    269  O3'       -4.6560   16.6490  -11.7790 O.3    14  DC14       -0.3138
    270  C2'       -5.8940   14.5360  -11.8390 C.3    14  DC14        0.0866
    271  C1'       -6.0530   13.4310  -10.7990 C.3    14  DC14        0.2106
    272  N1        -7.4370   13.3210  -10.3570 N.ar   14  DC14       -0.2556
    273  C2        -8.3370   12.5510  -11.1020 C.ar   14  DC14        0.3531
    274  O2        -7.9120   11.9200  -12.0850 O.2    14  DC14       -0.2443
    275  N3        -9.6390   12.5160  -10.7330 N.ar   14  DC14       -0.1739
    276  C4       -10.0500   13.2110   -9.6710 C.ar   14  DC14        0.1759
    277  N4       -11.3430   13.1470   -9.3450 N.pl3  14  DC14       -0.1070
    278  C5        -9.1540   13.9980   -8.9030 C.ar   14  DC14        0.0566
    279  C6        -7.8690   14.0290   -9.2710 C.ar   14  DC14        0.0849
    280  P         -5.5510   17.6840  -12.7950 P.3    15  DA15        0.2141
    281  OP1       -4.4640   18.3720  -13.5300 O.2    15  DA15       -0.5172
    282  OP2       -6.4450   18.4140  -11.8660 O.3    15  DA15       -0.4373
    283  O5'       -6.4530   16.8930  -13.8490 O.3    15  DA15       -0.3114
    284  C5'       -5.9800   16.6860  -15.1710 C.3    15  DA15        0.1811
    285  C4'       -6.9330   15.7710  -15.9070 C.3    15  DA15        0.1746
    286  O4'       -7.5680   14.8680  -14.9660 O.3    15  DA15       -0.3327
    287  C3'       -8.1230   16.4630  -16.5500 C.3    15  DA15        0.1558
    288  O3'       -7.7570   17.0880  -17.7640 O.3    15  DA15       -0.3138
    289  C2'       -9.0610   15.2790  -16.7630 C.3    15  DA15        0.0865
    290  C1'       -8.8500   14.5140  -15.4590 C.3    15  DA15        0.2094
    291  N9        -9.9090   14.8840  -14.5380 N.ar   15  DA15       -0.2714
    292  C8        -9.7250   15.6850  -13.4410 C.ar   15  DA15        0.1815
    293  N7       -10.7990   15.8220  -12.7000 N.ar   15  DA15       -0.2193
    294  C5       -11.7530   15.0600  -13.3550 C.ar   15  DA15        0.1518
    295  C6       -13.1050   14.7920  -13.0750 C.ar   15  DA15        0.1919
    296  N6       -13.7520   15.2850  -12.0170 N.pl3  15  DA15       -0.1054
    297  N1       -13.7750   13.9920  -13.9310 N.ar   15  DA15       -0.2040
    298  C2       -13.1250   13.4980  -14.9910 C.ar   15  DA15        0.2016
    299  N3       -11.8590   13.6770  -15.3590 N.ar   15  DA15       -0.2048
    300  C4       -11.2200   14.4770  -14.4890 C.ar   15  DA15        0.1691
    301  P         -8.4650   18.5840  -18.1730 P.3    16  DA16        0.2141
    302  OP1       -7.7270   19.2410  -19.2810 O.2    16  DA16       -0.5172
    303  OP2       -8.8390   19.3710  -16.9700 O.3    16  DA16       -0.4373
    304  O5'       -9.7790   17.9040  -18.7770 O.3    16  DA16       -0.3114
    305  C5'       -9.6540   16.8060  -19.6760 C.3    16  DA16        0.1811
    306  C4'      -11.0050   16.3040  -20.1440 C.3    16  DA16        0.1746
    307  O4'      -11.7150   15.6670  -19.0430 O.3    16  DA16       -0.3327
    308  C3'      -11.8970   17.4560  -20.6050 C.3    16  DA16        0.1558
    309  O3'      -12.4090   17.2960  -21.9300 O.3    16  DA16       -0.3138
    310  C2'      -12.8490   17.7530  -19.4450 C.3    16  DA16        0.0865
    311  C1'      -12.8740   16.4070  -18.7290 C.3    16  DA16        0.2094
    312  N9       -13.1290   16.2920  -17.4940 N.ar   16  DA16       -0.2714
    313  C8       -12.4440   17.2490  -16.7920 C.ar   16  DA16        0.1815
    314  N7       -13.0530   17.6380  -15.6960 N.ar   16  DA16       -0.2193
    315  C5       -14.2160   16.8860  -15.6780 C.ar   16  DA16        0.1518
    316  C6       -15.2920   16.8290  -14.7740 C.ar   16  DA16        0.1919
    317  N6       -15.3680   17.5730  -13.6680 N.pl3  16  DA16       -0.1054
    318  N1       -16.2970   15.9710  -15.0500 N.ar   16  DA16       -0.2040
    319  C2       -16.2190   15.2250  -16.1570 C.ar   16  DA16        0.2016
    320  N3       -15.2610   15.1890  -17.0810 N.ar   16  DA16       -0.2048
    321  C4       -14.2780   16.0530  -16.7790 C.ar   16  DA16        0.1691
    322  P        -12.8560   18.4790  -22.6940 P.3    17  DT17        0.2141
    323  OP1      -12.6110   18.5750  -24.1440 O.2    17  DT17       -0.5172
    324  OP2      -12.4360   19.5840  -21.8110 O.3    17  DT17       -0.4373
    325  O5'      -14.4190   18.2170  -22.5010 O.3    17  DT17       -0.3114
    326  C5'      -15.0620   17.3070  -23.3620 C.3    17  DT17        0.1811
    327  C4'      -16.4860   17.1190  -22.9210 C.3    17  DT17        0.1746
    328  O4'      -16.4710   16.4910  -21.6130 O.3    17  DT17       -0.3327
    329  C3'      -17.2940   18.3990  -22.7460 C.3    17  DT17        0.1558
    330  O3'      -17.8830   18.9400  -23.9780 O.3    17  DT17       -0.3138
    331  C2'      -18.3490   17.9030  -21.7750 C.3    17  DT17        0.0866
    332  C1'      -17.5510   17.0170  -20.8220 C.3    17  DT17        0.2106
    333  N1       -17.1030   17.7410  -19.6480 N.ar   17  DT17       -0.2559
    334  C2       -18.0190   17.9220  -18.6290 C.ar   17  DT17        0.3545
    335  O2       -19.1760   17.5470  -18.7020 O.2    17  DT17       -0.2443
    336  N3       -17.5310   18.5620  -17.5160 N.ar   17  DT17       -0.1533
    337  C4       -16.2470   19.0290  -17.3240 C.ar   17  DT17        0.2804
    338  O4       -15.9580   19.5840  -16.2670 O.2    17  DT17       -0.2654
    339  C5       -15.3560   18.8040  -18.4270 C.ar   17  DT17        0.0534
    340  C6       -15.8040   18.1840  -19.5210 C.ar   17  DT17        0.0824
    341  C7       -13.9370   19.2760  -18.3150 C.3    17  DT17        0.0377
    342  P        -18.0290   20.5790  -24.2040 P.3    18  DT18        0.2141
    343  OP1      -18.0470   21.1330  -25.5730 O.2    18  DT18       -0.5172
    344  OP2      -17.1180   21.1780  -23.2000 O.3    18  DT18       -0.4373
    345  O5'      -19.4790   20.6880  -23.5330 O.3    18  DT18       -0.3114
    346  C5'      -20.6120   20.0630  -24.1140 C.3    18  DT18        0.1811
    347  C4'      -21.8190   20.2010  -23.2240 C.3    18  DT18        0.1746
    348  O4'      -21.7290   19.2510  -22.1350 O.3    18  DT18       -0.3327
    349  C3'      -21.9770   21.5500  -22.5430 C.3    18  DT18        0.1558
    350  O3'      -22.6120   22.5040  -23.3710 O.3    18  DT18       -0.3138
    351  C2'      -22.7780   21.2100  -21.2960 C.3    18  DT18        0.0866
    352  C1'      -22.2470   19.8180  -20.9510 C.3    18  DT18        0.2106
    353  N1       -21.2030   19.8630  -19.9530 N.ar   18  DT18       -0.2559
    354  C2       -21.6310   19.7870  -18.6410 C.ar   18  DT18        0.3545
    355  O2       -22.7730   19.4980  -18.3300 O.2    18  DT18       -0.2443
    356  N3       -20.6690   20.0640  -17.6990 N.ar   18  DT18       -0.1533
    357  C4       -19.3530   20.4020  -17.9330 C.ar   18  DT18        0.2804
    358  O4       -18.6070   20.6230  -16.9820 O.2    18  DT18       -0.2654
    359  C5       -18.9860   20.4610  -19.3200 C.ar   18  DT18        0.0534
    360  C6       -19.9010   20.1960  -20.2560 C.ar   18  DT18        0.0824
    361  C7       -17.5740   20.8210  -19.6780 C.3    18  DT18        0.0377
    362  P        -22.3510   24.2640  -23.2340 P.3    19  DA19        0.2141
    363  OP1      -22.9340   24.9000  -24.4420 O.2    19  DA19       -0.5172
    364  OP2      -20.9050   24.4390  -22.9340 O.3    19  DA19       -0.4373
    365  O5'      -23.1740   24.7410  -21.9500 O.3    19  DA19       -0.3114
    366  C5'      -24.6010   24.6650  -21.9360 C.3    19  DA19        0.1811
    367  C4'      -25.1270   24.6570  -20.5180 C.3    19  DA19        0.1746
    368  O4'      -24.5230   23.5670  -19.7780 O.3    19  DA19       -0.3327
    369  C3'      -24.8480   25.8940  -19.6760 C.3    19  DA19        0.1558
    370  O3'      -25.8340   26.8930  -19.9020 O.3    19  DA19       -0.3138
    371  C2'      -24.9200   25.3610  -18.2470 C.3    19  DA19        0.0865
    372  C1'      -24.4590   23.9120  -18.4080 C.3    19  DA19        0.2094
    373  N9       -23.0710   23.7040  -17.9450 N.ar   19  DA19       -0.2714
    374  C8       -21.9830   23.5560  -18.7660 C.ar   19  DA19        0.1815
    375  N7       -20.8570   23.3600  -18.1220 N.ar   19  DA19       -0.2193
    376  C5       -21.2300   23.3810  -16.7870 C.ar   19  DA19        0.1518
    377  C6       -20.4960   23.2310  -15.5980 C.ar   19  DA19        0.1919
    378  N6       -19.1790   23.0200  -15.5630 N.pl3  19  DA19       -0.1054
    379  N1       -21.1720   23.3060  -14.4310 N.ar   19  DA19       -0.2040
    380  C2       -22.4930   23.5170  -14.4670 C.ar   19  DA19        0.2016
    381  N3       -23.2920   23.6720  -15.5200 N.ar   19  DA19       -0.2048
    382  C4       -22.5900   23.5940  -16.6630 C.ar   19  DA19        0.1691
    383  P        -25.5230   28.5380  -19.5360 P.3    20  DA20        0.2141
    384  OP1      -26.4010   29.6310  -20.0570 O.2    20  DA20       -0.5172
    385  OP2      -24.1060   28.5030  -19.9430 O.3    20  DA20       -0.4373
    386  O5'      -25.5360   28.5850  -17.9190 O.3    20  DA20       -0.3114
    387  C5'      -26.7550   28.6440  -17.1680 C.3    20  DA20        0.1811
    388  C4'      -26.4780   28.5350  -15.6610 C.3    20  DA20        0.1746
    389  O4'      -25.8790   27.2500  -15.3070 O.3    20  DA20       -0.3327
    390  C3'      -25.5480   29.6080  -15.1080 C.3    20  DA20        0.1558
    391  O3'      -26.3230   30.7760  -14.7630 O.3    20  DA20       -0.3138
    392  C2'      -24.8740   28.9050  -13.9060 C.3    20  DA20        0.0865
    393  C1'      -24.7900   27.4540  -14.4020 C.3    20  DA20        0.2094
    394  N9       -23.4830   27.0890  -15.2600 N.ar   20  DA20       -0.2714
    395  C8       -23.1630   27.0210  -16.5910 C.ar   20  DA20        0.1815
    396  N7       -21.8770   26.8970  -16.8190 N.ar   20  DA20       -0.2193
    397  C5       -21.3140   26.8840  -15.5530 C.ar   20  DA20        0.1518
    398  C6       -19.9850   26.7750  -15.1090 C.ar   20  DA20        0.1919
    399  N6       -18.9390   26.6540  -15.9300 N.pl3  20  DA20       -0.1054
    400  N1       -19.7650   26.7960  -13.7770 N.ar   20  DA20       -0.2040
    401  C2       -20.8140   26.9160  -12.9550 C.ar   20  DA20        0.2016
    402  N3       -22.1070   27.0250  -13.2520 N.ar   20  DA20       -0.2048
    403  C4       -22.2910   27.0020  -14.5820 C.ar   20  DA20        0.1691
    404  P        -25.6830   32.4630  -14.9800 P.3    21  DT21        0.2141
    405  OP1      -26.6780   33.5090  -14.6310 O.3    21  DT21       -0.4373
    406  OP2      -24.9560   32.5390  -16.2700 O.2    21  DT21       -0.5172
    407  O5'      -24.6080   32.3890  -13.8080 O.3    21  DT21       -0.3114
    408  C5'      -25.0050   32.0810  -12.4750 C.3    21  DT21        0.1811
    409  C4'      -23.7940   32.0060  -11.5810 C.3    21  DT21        0.1746
    410  O4'      -22.9680   30.8840  -11.9840 O.3    21  DT21       -0.3327
    411  C3'      -22.8640   33.2000  -11.6810 C.3    21  DT21        0.1558
    412  O3'      -23.3210   34.2810  -10.8810 O.3    21  DT21       -0.3138
    413  C2'      -21.5390   32.6190  -11.1990 C.3    21  DT21        0.0866
    414  C1'      -21.6000   31.2090  -11.7910 C.3    21  DT21        0.2106
    415  N1       -20.9320   31.0450  -13.1460 N.ar   21  DT21       -0.2559
    416  C2       -19.5930   30.7030  -13.1230 C.ar   21  DT21        0.3545
    417  O2       -18.9730   30.5200  -12.0900 O.2    21  DT21       -0.2443
    418  N3       -19.0020   30.5830  -14.3570 N.ar   21  DT21       -0.1533
    419  C4       -19.6020   30.7670  -15.5860 C.ar   21  DT21        0.2804
    420  O4       -18.9400   30.6220  -16.6100 O.2    21  DT21       -0.2654
    421  C5       -20.9920   31.1210  -15.5270 C.ar   21  DT21        0.0534
    422  C6       -21.5920   31.2440  -14.3390 C.ar   21  DT21        0.0824
    423  C7       -21.7340   31.3430  -16.8120 C.3    21  DT21        0.0377
    424  P        -23.1600   35.7470  -11.3860 P.3    22  DC22        0.2141
    425  OP1      -24.4090   36.3360  -10.8380 O.3    22  DC22       -0.4373
    426  OP2      -22.3860   36.5180  -12.4230 O.2    22  DC22       -0.5172
    427  O5'      -22.2200   35.6580  -10.1130 O.3    22  DC22       -0.3114
    428  C5'      -21.2880   36.6810   -9.8570 C.3    22  DC22        0.1811
    429  C4'      -19.9650   36.0890   -9.4460 C.3    22  DC22        0.1746
    430  O4'      -19.6830   34.8970  -10.2210 O.3    22  DC22       -0.3327
    431  C3'      -18.8010   36.9940   -9.7700 C.3    22  DC22        0.1558
    432  O3'      -18.6830   38.0060   -8.8130 O.3    22  DC22       -0.3138
    433  C2'      -17.6340   36.0280   -9.8250 C.3    22  DC22        0.0866
    434  C1'      -18.2940   34.8460  -10.5340 C.3    22  DC22        0.2106
    435  N1       -18.0410   35.1310  -12.0120 N.ar   22  DC22       -0.2556
    436  C2       -16.7920   34.9750  -12.6240 C.ar   22  DC22        0.3531
    437  O2       -15.7880   34.8310  -11.9060 O.2    22  DC22       -0.2443
    438  N3       -16.7150   34.9870  -13.9760 N.ar   22  DC22       -0.1739
    439  C4       -17.8190   35.1450  -14.7060 C.ar   22  DC22        0.1759
    440  N4       -17.6940   35.1500  -16.0360 N.pl3  22  DC22       -0.1070
    441  C5       -19.0940   35.3050  -14.1050 C.ar   22  DC22        0.0566
    442  C6       -19.1660   35.2930  -12.7700 C.ar   22  DC22        0.0849
    443  P        -18.0690   39.5400   -9.4350 P.3    23  DG23        0.2141
    444  OP1      -18.1770   40.4280   -8.2560 O.3    23  DG23       -0.4373
    445  OP2      -18.9990   39.6780  -10.5800 O.2    23  DG23       -0.5172
    446  O5'      -16.6180   39.7110  -10.0950 O.3    23  DG23       -0.3114
    447  C5'      -15.4750   39.8790   -9.2700 C.3    23  DG23        0.1811
    448  C4'      -14.1970   39.4910   -9.9730 C.3    23  DG23        0.1746
    449  O4'      -14.4240   38.3310  -10.8120 O.3    23  DG23       -0.3327
    450  C3'      -13.5940   40.5120  -10.9220 C.3    23  DG23        0.1558
    451  O3'      -12.8550   41.5090  -10.2400 O.3    23  DG23       -0.3138
    452  C2'      -12.7200   39.6330  -11.8030 C.3    23  DG23        0.0865
    453  C1'      -13.5670   38.3740  -11.9240 C.3    23  DG23        0.2094
    454  N9       -14.3360   38.4260  -13.1310 N.ar   23  DG23       -0.2713
    455  C8       -15.7020   38.5590  -13.1980 C.ar   23  DG23        0.1816
    456  N7       -16.1710   38.4530  -14.4120 N.ar   23  DG23       -0.2173
    457  C5       -15.0520   38.2350  -15.1940 C.ar   23  DG23        0.1748
    458  C6       -14.9270   38.0450  -16.5940 C.ar   23  DG23        0.3023
    459  O6       -15.8220   38.0310  -17.4480 O.2    23  DG23       -0.2633
    460  N1       -13.6020   37.8570  -16.9780 N.ar   23  DG23       -0.1709
    461  C2       -12.5290   37.8530  -16.1190 C.ar   23  DG23        0.2606
    462  N2       -11.3270   37.6550  -16.6750 N.pl3  23  DG23       -0.0859
    463  N3       -12.6300   38.0300  -14.8160 N.ar   23  DG23       -0.1918
    464  C4       -13.9070   38.2150  -14.4200 C.ar   23  DG23        0.1722
    465  P        -12.3050   42.8610  -10.9550 P.3    24  DC24        0.2141
    466  OP1      -11.5240   43.5650   -9.9030 O.3    24  DC24       -0.4373
    467  OP2      -13.5890   43.4390  -11.4300 O.2    24  DC24       -0.5172
    468  O5'      -11.3640   42.6460  -12.2190 O.3    24  DC24       -0.3114
    469  C5'      -10.1330   41.9200  -12.0950 C.3    24  DC24        0.1811
    470  C4'       -9.5370   41.6820  -13.4540 C.3    24  DC24        0.1746
    471  O4'      -10.2970   40.6810  -14.1800 O.3    24  DC24       -0.3327
    472  C3'       -9.5620   42.8960  -14.3600 C.3    24  DC24        0.1558
    473  O3'       -8.5150   43.7990  -14.0180 O.3    24  DC24       -0.3138
    474  C2'       -9.4500   42.2580  -15.7420 C.3    24  DC24        0.0866
    475  C1'      -10.3210   41.0120  -15.5610 C.3    24  DC24        0.2106
    476  N1       -11.7350   41.2350  -15.9560 N.ar   24  DC24       -0.2556
    477  C2       -11.9660   41.2560  -17.3360 C.ar   24  DC24        0.3531
    478  O2       -11.0240   40.9940  -18.1040 O.2    24  DC24       -0.2443
    479  N3       -13.2030   41.5600  -17.7940 N.ar   24  DC24       -0.1739
    480  C4       -14.1840   41.8360  -16.9330 C.ar   24  DC24        0.1759
    481  N4       -15.3870   42.1310  -17.4300 N.pl3  24  DC24       -0.1070
    482  C5       -13.9710   41.8200  -15.5310 C.ar   24  DC24        0.0566
    483  C6       -12.7470   41.5190  -15.0830 C.ar   24  DC24        0.0849
    484  P         -8.5470   45.4480  -14.6750 P.3    25  DA25        0.2141
    485  OP1       -7.5390   46.5260  -14.5730 O.2    25  DA25       -0.5172
    486  OP2       -9.9550   45.6900  -14.2820 O.3    25  DA25       -0.4373
    487  O5'       -8.6500   44.9650  -16.1960 O.3    25  DA25       -0.3114
    488  C5'       -7.5410   45.0830  -17.0730 C.3    25  DA25        0.1811
    489  C4'       -7.9990   45.6180  -18.4020 C.3    25  DA25        0.1746
    490  O4'       -8.8480   44.6300  -19.0450 O.3    25  DA25       -0.3327
    491  C3'       -8.8840   46.8490  -18.3140 C.3    25  DA25        0.1558
    492  O3'       -8.1720   48.0610  -18.1240 O.3    25  DA25       -0.3138
    493  C2'       -9.6720   46.7690  -19.6120 C.3    25  DA25        0.0865
    494  C1'       -9.9350   45.2650  -19.6790 C.3    25  DA25        0.2094
    495  N9       -11.2330   44.9340  -18.5830 N.ar   25  DA25       -0.2714
    496  C8       -11.2680   44.7270  -17.2290 C.ar   25  DA25        0.1815
    497  N7       -12.4810   44.6020  -16.7440 N.ar   25  DA25       -0.2193
    498  C5       -13.2980   44.7370  -17.8560 C.ar   25  DA25        0.1518
    499  C6       -14.6950   44.7010  -18.0130 C.ar   25  DA25        0.1919
    500  N6       -15.5480   44.5100  -17.0040 N.pl3  25  DA25       -0.1054
    501  N1       -15.1900   44.8710  -19.2580 N.ar   25  DA25       -0.2040
    502  C2       -14.3340   45.0620  -20.2680 C.ar   25  DA25        0.2016
    503  N3       -13.0040   45.1140  -20.2460 N.ar   25  DA25       -0.2048
    504  C4       -12.5440   44.9430  -18.9950 C.ar   25  DA25        0.1691
    505  P         -8.8140   49.3460  -17.1240 P.3    26  DT26        0.2141
    506  OP1       -7.8540   50.4690  -17.2490 O.2    26  DT26       -0.5172
    507  OP2       -9.0900   48.7890  -15.7770 O.3    26  DT26       -0.4373
    508  O5'      -10.1830   49.7180  -17.8470 O.3    26  DT26       -0.3114
    509  C5'      -10.1980   50.1120  -19.2100 C.3    26  DT26        0.1811
    510  C4'      -11.6010   50.3500  -19.7090 C.3    26  DT26        0.1746
    511  O4'      -12.3650   49.1220  -19.6540 O.3    26  DT26       -0.3327
    512  C3'      -12.4370   51.3360  -18.9130 C.3    26  DT26        0.1558
    513  O3'      -12.1230   52.6850  -19.2120 O.3    26  DT26       -0.3138
    514  C2'      -13.8620   50.9390  -19.2860 C.3    26  DT26        0.0866
    515  C1'      -13.7320   49.4200  -19.4490 C.3    26  DT26        0.2106
    516  N1       -14.2480   48.6540  -18.2240 N.ar   26  DT26       -0.2559
    517  C2       -15.6110   48.4380  -18.1590 C.ar   26  DT26        0.3545
    518  O2       -16.3840   48.8080  -19.0250 O.2    26  DT26       -0.2443
    519  N3       -16.0410   47.7700  -17.0380 N.ar   26  DT26       -0.1533
    520  C4       -15.2620   47.3070  -15.9980 C.ar   26  DT26        0.2804
    521  O4       -15.7940   46.7240  -15.0570 O.2    26  DT26       -0.2654
    522  C5       -13.8580   47.5710  -16.1380 C.ar   26  DT26        0.0534
    523  C6       -13.4120   48.2180  -17.2180 C.ar   26  DT26        0.0824
    524  C7       -12.9270   47.1070  -15.0570 C.3    26  DT26        0.0377
    525  P        -12.8890   53.9010  -18.4510 P.3    27  DT27        0.2141
    526  OP1      -12.0870   55.0300  -18.9830 O.2    27  DT27       -0.5172
    527  OP2      -12.8300   53.5730  -17.0000 O.3    27  DT27       -0.4373
    528  O5'      -14.4090   54.0340  -18.9380 O.3    27  DT27       -0.3114
    529  C5'      -14.7330   54.6010  -20.2100 C.3    27  DT27        0.1811
    530  C4'      -16.1290   54.2110  -20.6320 C.3    27  DT27        0.1746
    531  O4'      -16.2350   52.7650  -20.5950 O.3    27  DT27       -0.3327
    532  C3'      -17.2870   54.6830  -19.7630 C.3    27  DT27        0.1558
    533  O3'      -17.7340   56.0010  -20.0500 O.3    27  DT27       -0.3138
    534  C2'      -18.3710   53.6560  -20.0660 C.3    27  DT27        0.0866
    535  C1'      -17.5500   52.3810  -20.2110 C.3    27  DT27        0.2106
    536  N1       -17.5150   51.6400  -18.9490 N.ar   27  DT27       -0.2559
    537  C2       -18.3650   50.5590  -18.8180 C.ar   27  DT27        0.3545
    538  O2       -19.1810   50.2490  -19.6680 O.2    27  DT27       -0.2443
    539  N3       -18.2280   49.8490  -17.6500 N.ar   27  DT27       -0.1533
    540  C4       -17.3440   50.1050  -16.6220 C.ar   27  DT27        0.2804
    541  O4       -17.3380   49.3760  -15.6340 O.2    27  DT27       -0.2654
    542  C5       -16.4960   51.2440  -16.8320 C.ar   27  DT27        0.0534
    543  C6       -16.6090   51.9530  -17.9590 C.ar   27  DT27        0.0824
    544  C7       -15.5000   51.6060  -15.7700 C.3    27  DT27        0.0377
    545  P        -18.6510   56.8340  -18.9500 P.3    28  DA28        0.2141
    546  OP1      -19.0220   58.2240  -19.2980 O.2    28  DA28       -0.5172
    547  OP2      -17.6570   56.5540  -17.8880 O.3    28  DA28       -0.4373
    548  O5'      -19.9590   56.0410  -18.4720 O.3    28  DA28       -0.3114
    549  C5'      -21.2050   56.2660  -19.1150 C.3    28  DA28        0.1811
    550  C4'      -22.1610   55.1120  -18.9360 C.3    28  DA28        0.1746
    551  O4'      -21.4400   53.8560  -18.9890 O.3    28  DA28       -0.3327
    552  C3'      -22.9160   55.0400  -17.6200 C.3    28  DA28        0.1558
    553  O3'      -24.0380   55.9040  -17.5970 O.3    28  DA28       -0.3138
    554  C2'      -23.3070   53.5720  -17.5720 C.3    28  DA28        0.0865
    555  C1'      -22.0840   52.9030  -18.1840 C.3    28  DA28        0.2094
    556  N9       -21.0620   52.4220  -17.2260 N.ar   28  DA28       -0.2714
    557  C8       -19.8300   52.9660  -16.9710 C.ar   28  DA28        0.1815
    558  N7       -19.1190   52.2830  -16.1060 N.ar   28  DA28       -0.2193
    559  C5       -19.9400   51.2180  -15.7690 C.ar   28  DA28        0.1518
    560  C6       -19.7670   50.1300  -14.8960 C.ar   28  DA28        0.1919
    561  N6       -18.6620   49.9290  -14.1740 N.pl3  28  DA28       -0.1054
    562  N1       -20.7820   49.2450  -14.7890 N.ar   28  DA28       -0.2040
    563  C2       -21.8880   49.4470  -15.5140 C.ar   28  DA28        0.2016
    564  N3       -22.1670   50.4290  -16.3680 N.ar   28  DA28       -0.2048
    565  C4       -21.1400   51.2910  -16.4500 C.ar   28  DA28        0.1691
    566  P        -24.7350   56.3640  -16.2650 P.3    29  DC29        0.2141
    567  OP1      -25.9600   57.1910  -16.3640 O.2    29  DC29       -0.5172
    568  OP2      -23.4880   56.9540  -15.7220 O.3    29  DC29       -0.4373
    569  O5'      -25.0670   55.0660  -15.4040 O.3    29  DC29       -0.3114
    570  C5'      -26.2690   54.3480  -15.6260 C.3    29  DC29        0.1811
    571  C4'      -26.1920   52.9760  -15.0030 C.3    29  DC29        0.1746
    572  O4'      -24.9320   52.3670  -15.4000 O.3    29  DC29       -0.3327
    573  C3'      -26.1390   52.9230  -13.4810 C.3    29  DC29        0.1558
    574  O3'      -27.4330   53.0060  -12.9000 O.3    29  DC29       -0.3138
    575  C2'      -25.4790   51.5700  -13.2280 C.3    29  DC29        0.0866
    576  C1'      -24.4580   51.5290  -14.3560 C.3    29  DC29        0.2106
    577  N1       -23.1590   51.9330  -13.9240 N.ar   29  DC29       -0.2556
    578  C2       -22.3320   51.0380  -13.2360 C.ar   29  DC29        0.3531
    579  O2       -22.7790   49.9150  -12.9450 O.2    29  DC29       -0.2443
    580  N3       -21.0750   51.4190  -12.9090 N.ar   29  DC29       -0.1739
    581  C4       -20.6380   52.6350  -13.2420 C.ar   29  DC29        0.1759
    582  N4       -19.3920   52.9660  -12.8980 N.pl3  29  DC29       -0.1070
    583  C5       -21.4600   53.5570  -13.9390 C.ar   29  DC29        0.0566
    584  C6       -22.7010   53.1760  -14.2610 C.ar   29  DC29        0.0849
    585  P        -27.5480   52.9830  -11.1500 P.3    30  DC30        0.2141
    586  OP1      -28.8570   52.6470  -11.7360 O.2    30  DC30       -0.5172
    587  OP2      -27.3760   54.2810  -10.4630 O.3    30  DC30       -0.4373
    588  O5'      -27.1400   51.8990  -10.0650 O.3    30  DC30       -0.3114
    589  C5'      -27.8160   50.6660   -9.9650 C.3    30  DC30        0.1811
    590  C4'      -26.8630   49.5360  -10.2640 C.3    30  DC30        0.1746
    591  O4'      -25.5870   50.1020  -10.6860 O.3    30  DC30       -0.3327
    592  C3'      -26.4610   48.6840   -9.0770 C.3    30  DC30        0.1558
    593  O3'      -27.4160   47.7150   -8.7140 O.3    30  DC30       -0.3138
    594  C2'      -25.1610   48.0670   -9.5660 C.3    30  DC30        0.0866
    595  C1'      -24.5180   49.2660  -10.2520 C.3    30  DC30        0.2106
    596  N1       -23.6770   50.0760   -9.3800 N.ar   30  DC30       -0.2556
    597  C2       -22.4130   49.6940   -8.9160 C.ar   30  DC30        0.3531
    598  O2       -22.1250   48.4850   -8.8920 O.2    30  DC30       -0.2443
    599  N3       -21.5440   50.6490   -8.5060 N.ar   30  DC30       -0.1739
    600  C4       -21.8970   51.9340   -8.5480 C.ar   30  DC30        0.1759
    601  N4       -21.0080   52.8400   -8.1340 N.pl3  30  DC30       -0.1070
    602  C5       -23.1730   52.3420   -9.0150 C.ar   30  DC30        0.0566
    603  C6       -24.0280   51.3960   -9.4180 C.ar   30  DC30        0.0849
    604  P        -27.2850   47.1670   -7.5620 P.3    31  DT31        0.2141
    605  OP1      -28.7550   47.1180   -7.3980 O.2    31  DT31       -0.5172
    606  OP2      -26.5220   48.3440   -7.0870 O.3    31  DT31       -0.4373
    607  O5'      -26.6430   45.9410   -6.7580 O.3    31  DT31       -0.3114
    608  C5'      -25.2570   45.6330   -6.8410 C.3    31  DT31        0.1811
    609  C4'      -25.0230   44.1490   -6.7020 C.3    31  DT31        0.1746
    610  O4'      -25.5460   43.7250   -5.4140 O.3    31  DT31       -0.3327
    611  C3'      -25.7110   43.2840   -7.7590 C.3    31  DT31        0.1558
    612  O3'      -24.8630   42.2000   -8.1500 O.3    31  DT31       -0.3138
    613  C2'      -26.9670   42.7720   -7.0520 C.3    31  DT31        0.0866
    614  C1'      -26.5580   42.7510   -5.5790 C.3    31  DT31        0.2106
    615  N1       -27.7640   43.1070   -4.7040 N.ar   31  DT31       -0.2559
    616  C2       -28.6950   42.1210   -4.4390 C.ar   31  DT31        0.3545
    617  O2       -28.6020   40.9860   -4.8730 O.2    31  DT31       -0.2443
    618  N3       -29.7450   42.5120   -3.6450 N.ar   31  DT31       -0.1533
    619  C4       -29.9530   43.7620   -3.1010 C.ar   31  DT31        0.2804
    620  O4       -30.9460   43.9610   -2.4050 O.2    31  DT31       -0.2654
    621  C5       -28.9440   44.7310   -3.4220 C.ar   31  DT31        0.0534
    622  C6       -27.9120   44.3780   -4.1930 C.ar   31  DT31        0.0824
    623  C7       -29.0810   46.1220   -2.8770 C.3    31  DT31        0.0377
    624  P        -23.5390   42.2830   -9.3190 P.3    32  DT32        0.2141
    625  OP1      -23.6460   40.8080   -9.2830 O.2    32  DT32       -0.5172
    626  OP2      -22.2320   42.9540   -9.1340 O.3    32  DT32       -0.4373
    627  O5'      -24.0280   42.7630  -10.7660 O.3    32  DT32       -0.3114
    628  C5'      -25.3600   42.5380  -11.2140 C.3    32  DT32        0.1811
    629  C4'      -25.7090   43.3640  -12.4320 C.3    32  DT32        0.1746
    630  O4'      -25.2150   44.7160  -12.2140 O.3    32  DT32       -0.3327
    631  C3'      -25.1030   42.8740  -13.7500 C.3    32  DT32        0.1558
    632  O3'      -26.0630   42.4810  -14.7300 O.3    32  DT32       -0.3138
    633  C2'      -24.2960   44.0450  -14.3050 C.3    32  DT32        0.0866
    634  C1'      -24.4860   45.1970  -13.3300 C.3    32  DT32        0.2106
    635  N1       -23.3000   45.5710  -13.0860 N.ar   32  DT32       -0.2559
    636  C2       -22.6960   46.5060  -13.9040 C.ar   32  DT32        0.3545
    637  O2       -23.2920   47.1060  -14.7810 O.2    32  DT32       -0.2443
    638  N3       -21.3600   46.7160  -13.6590 N.ar   32  DT32       -0.1533
    639  C4       -20.5860   46.0970  -12.7000 C.ar   32  DT32        0.2804
    640  O4       -19.3970   46.3910  -12.5990 O.2    32  DT32       -0.2654
    641  C5       -21.2850   45.1380  -11.8920 C.ar   32  DT32        0.0534
    642  C6       -22.5840   44.9150  -12.1080 C.ar   32  DT32        0.0824
    643  C7       -20.5290   44.4100  -10.8200 C.3    32  DT32        0.0377
    644  P        -25.4750   41.5490  -15.8220 P.3    33  DA33        0.2141
    645  OP1      -26.7780   40.9130  -16.1190 O.2    33  DA33       -0.5172
    646  OP2      -24.2140   40.7590  -15.7990 O.3    33  DA33       -0.4373
    647  O5'      -25.2380   42.8020  -16.7980 O.3    33  DA33       -0.3114
    648  C5'      -26.3120   43.6300  -17.2790 C.3    33  DA33        0.1811
    649  C4'      -25.7560   44.8970  -17.9030 C.3    33  DA33        0.1746
    650  O4'      -24.7930   45.4680  -16.9840 O.3    33  DA33       -0.3327
    651  C3'      -24.8990   44.6790  -19.1330 C.3    33  DA33        0.1558
    652  O3'      -25.6440   44.4600  -20.3190 O.3    33  DA33       -0.3138
    653  C2'      -24.0360   45.9420  -19.1590 C.3    33  DA33        0.0865
    654  C1'      -23.7150   46.0800  -17.6800 C.3    33  DA33        0.2094
    655  N9       -22.2670   45.3880  -17.4180 N.ar   33  DA33       -0.2714
    656  C8       -21.8680   44.5300  -16.4270 C.ar   33  DA33        0.1815
    657  N7       -20.6560   44.7640  -15.9830 N.ar   33  DA33       -0.2193
    658  C5       -20.2300   45.8480  -16.7340 C.ar   33  DA33        0.1518
    659  C6       -19.0290   46.5790  -16.7440 C.ar   33  DA33        0.1919
    660  N6       -17.9950   46.3130  -15.9420 N.pl3  33  DA33       -0.1054
    661  N1       -18.9260   47.6030  -17.6170 N.ar   33  DA33       -0.2040
    662  C2       -19.9630   47.8700  -18.4190 C.ar   33  DA33        0.2016
    663  N3       -21.1410   47.2570  -18.5020 N.ar   33  DA33       -0.2048
    664  C4       -21.2110   46.2430  -17.6230 C.ar   33  DA33        0.1691
    665  P        -25.1810   43.4200  -21.0720 P.3    34  DT34        0.2141
    666  OP1      -26.1570   42.8420  -22.0230 O.2    34  DT34       -0.5172
    667  OP2      -24.7080   42.6370  -19.9090 O.3    34  DT34       -0.4373
    668  O5'      -23.9170   43.9140  -21.9090 O.3    34  DT34       -0.3114
    669  C5'      -24.0950   44.9890  -22.8090 C.3    34  DT34        0.1811
    670  C4'      -22.7490   45.5660  -23.1830 C.3    34  DT34        0.1746
    671  O4'      -22.1360   46.1840  -22.0280 O.3    34  DT34       -0.3327
    672  C3'      -21.7230   44.5330  -23.6030 C.3    34  DT34        0.1558
    673  O3'      -21.9810   44.1100  -24.9300 O.3    34  DT34       -0.3138
    674  C2'      -20.4650   45.3820  -23.4950 C.3    34  DT34        0.0866
    675  C1'      -20.7300   46.1050  -22.1760 C.3    34  DT34        0.2106
    676  N1       -20.1650   45.4090  -21.0420 N.ar   34  DT34       -0.2559
    677  C2       -18.8090   45.4850  -20.7890 C.ar   34  DT34        0.3545
    678  O2       -18.0430   46.1510  -21.4630 O.2    34  DT34       -0.2443
    679  N3       -18.3760   44.7470  -19.7140 N.ar   34  DT34       -0.1533
    680  C4       -19.1470   43.9590  -18.8850 C.ar   34  DT34        0.2804
    681  O4       -18.6140   43.3550  -17.9570 O.2    34  DT34       -0.2654
    682  C5       -20.5450   43.9310  -19.2130 C.ar   34  DT34        0.0534
    683  C6       -20.9920   44.6400  -20.2530 C.ar   34  DT34        0.0824
    684  C7       -21.4670   43.1010  -18.3700 C.3    34  DT34        0.0377
    685  P        -21.8710   42.5680  -25.3100 P.3    35  DA35        0.2141
    686  OP1      -22.6030   42.3020  -26.5770 O.2    35  DA35       -0.5172
    687  OP2      -22.2710   41.8340  -24.0830 O.3    35  DA35       -0.4373
    688  O5'      -20.2970   42.3710  -25.5810 O.3    35  DA35       -0.3114
    689  C5'      -19.6470   43.1160  -26.6300 C.3    35  DA35        0.1811
    690  C4'      -18.1370   43.2110  -26.4610 C.3    35  DA35        0.1746
    691  O4'      -17.7880   43.9890  -25.2950 O.3    35  DA35       -0.3327
    692  C3'      -17.4050   41.9040  -26.2240 C.3    35  DA35        0.1558
    693  O3'      -17.2290   41.2650  -27.4680 O.3    35  DA35       -0.3138
    694  C2'      -16.1140   42.3860  -25.5730 C.3    35  DA35        0.0865
    695  C1'      -16.7040   43.3870  -24.6050 C.3    35  DA35        0.2094
    696  N9       -17.1250   42.7590  -23.3160 N.ar   35  DA35       -0.2714
    697  C8       -18.4010   42.4480  -22.9240 C.ar   35  DA35        0.1815
    698  N7       -18.4890   42.0530  -21.6760 N.ar   35  DA35       -0.2193
    699  C5       -17.1820   42.1060  -21.2170 C.ar   35  DA35        0.1518
    700  C6       -16.6040   41.8100  -19.9700 C.ar   35  DA35        0.1919
    701  N6       -17.3020   41.3850  -18.9140 N.pl3  35  DA35       -0.1054
    702  N1       -15.2690   41.9690  -19.8450 N.ar   35  DA35       -0.2040
    703  C2       -14.5710   42.3960  -20.9040 C.ar   35  DA35        0.2016
    704  N3       -15.0010   42.7070  -22.1240 N.ar   35  DA35       -0.2048
    705  C4       -16.3310   42.5380  -22.2170 C.ar   35  DA35        0.1691
    706  P        -17.6790   39.7360  -27.6320 P.3    36  DC36        0.2141
    707  OP1      -17.7070   39.4970  -29.0970 O.2    36  DC36       -0.5172
    708  OP2      -18.7730   39.2130  -26.7760 O.3    36  DC36       -0.4373
    709  O5'      -16.2880   39.2280  -27.0590 O.3    36  DC36       -0.3114
    710  C5'      -15.0920   39.8260  -27.5210 C.3    36  DC36        0.1811
    711  C4'      -14.0910   39.9720  -26.4060 C.3    36  DC36        0.1746
    712  O4'      -14.5920   40.8280  -25.3420 O.3    36  DC36       -0.3327
    713  C3'      -13.6900   38.7350  -25.6410 C.3    36  DC36        0.1558
    714  O3'      -12.8820   37.8680  -26.3890 O.3    36  DC36       -0.3138
    715  C2'      -12.9900   39.3400  -24.4430 C.3    36  DC36        0.0866
    716  C1'      -13.9170   40.5070  -24.1290 C.3    36  DC36        0.2106
    717  N1       -14.9150   40.0950  -23.1680 N.ar   36  DC36       -0.2556
    718  C2       -14.5690   39.8590  -21.8320 C.ar   36  DC36        0.3531
    719  O2       -13.3750   39.9460  -21.5000 O.2    36  DC36       -0.2443
    720  N3       -15.5420   39.5430  -20.9450 N.ar   36  DC36       -0.1739
    721  C4       -16.8110   39.4600  -21.3470 C.ar   36  DC36        0.1759
    722  N4       -17.7360   39.1450  -20.4370 N.pl3  36  DC36       -0.1070
    723  C5       -17.1820   39.6960  -22.6960 C.ar   36  DC36        0.0566
    724  C6       -16.2180   40.0080  -23.5690 C.ar   36  DC36        0.0849
    725  P        -13.2620   36.1560  -26.3890 P.3    37  DC37        0.2141
    726  OP1      -13.3060   34.9740  -27.2930 O.2    37  DC37       -0.5172
    727  OP2      -14.5340   36.8160  -25.9700 O.3    37  DC37       -0.4373
    728  O5'      -12.4390   35.7410  -25.0830 O.3    37  DC37       -0.3114
    729  C5'      -11.0630   35.3020  -25.1800 C.3    37  DC37        0.1811
    730  C4'      -10.2720   35.6990  -23.9400 C.3    37  DC37        0.1746
    731  O4'      -10.7350   36.9900  -23.4500 O.3    37  DC37       -0.3327
    732  C3'      -10.3500   34.8050  -22.7090 C.3    37  DC37        0.1558
    733  O3'       -9.4640   33.6990  -22.7590 O.3    37  DC37       -0.3138
    734  C2'       -9.9230   35.7520  -21.6000 C.3    37  DC37        0.0866
    735  C1'      -10.5690   37.0600  -22.0440 C.3    37  DC37        0.2106
    736  N1       -11.8310   37.2400  -21.4820 N.ar   37  DC37       -0.2556
    737  C2       -11.9670   37.6480  -20.1510 C.ar   37  DC37        0.3531
    738  O2       -10.9410   37.8530  -19.4800 O.2    37  DC37       -0.2443
    739  N3       -13.2090   37.8070  -19.6330 N.ar   37  DC37       -0.1739
    740  C4       -14.2820   37.5750  -20.3910 C.ar   37  DC37        0.1759
    741  N4       -15.4850   37.7450  -19.8380 N.pl3  37  DC37       -0.1070
    742  C5       -14.1650   37.1600  -21.7420 C.ar   37  DC37        0.0566
    743  C6       -12.9370   37.0050  -22.2490 C.ar   37  DC37        0.0849
    744  P         -9.6400   32.9050  -22.0220 P.3    38  DA38        0.2141
    745  OP1       -8.7110   31.9390  -22.6800 O.2    38  DA38       -0.5172
    746  OP2      -11.1110   32.7270  -22.0880 O.3    38  DA38       -0.4373
    747  O5'       -9.2890   33.4710  -20.5720 O.3    38  DA38       -0.3114
    748  C5'       -8.1030   34.1710  -20.2760 C.3    38  DA38        0.1811
    749  C4'       -8.1060   34.4900  -18.8130 C.3    38  DA38        0.1746
    750  O4'       -9.0780   35.5450  -18.5810 O.3    38  DA38       -0.3327
    751  C3'       -8.5290   33.3370  -17.8990 C.3    38  DA38        0.1558
    752  O3'       -7.4010   32.4600  -17.6070 O.3    38  DA38       -0.3138
    753  C2'       -9.0510   34.1130  -16.6940 C.3    38  DA38        0.0865
    754  C1'       -9.7450   35.3110  -17.3610 C.3    38  DA38        0.2094
    755  N9       -11.1810   35.1250  -17.5610 N.ar   38  DA38       -0.2714
    756  C8       -11.8500   34.7140  -18.6840 C.ar   38  DA38        0.1815
    757  N7       -13.1360   34.5300  -18.4960 N.ar   38  DA38       -0.2193
    758  C5       -13.3230   34.8410  -17.1590 C.ar   38  DA38        0.1518
    759  C6       -14.4660   34.8460  -16.3400 C.ar   38  DA38        0.1919
    760  N6       -15.6860   34.5160  -16.7710 N.pl3  38  DA38       -0.1054
    761  N1       -14.3090   35.2060  -15.0480 N.ar   38  DA38       -0.2040
    762  C2       -13.0870   35.5380  -14.6170 C.ar   38  DA38        0.2016
    763  N3       -11.9390   35.5720  -15.2900 N.ar   38  DA38       -0.2048
    764  C4       -12.1280   35.2080  -16.5700 C.ar   38  DA38        0.1691
    765  P         -7.5380   30.8040  -17.4910 P.3    39  DG39        0.2141
    766  OP1       -6.1270   30.3720  -17.3990 O.3    39  DG39       -0.4373
    767  OP2       -8.3650   30.2850  -18.6110 O.2    39  DG39       -0.5172
    768  O5'       -8.2600   30.5040  -16.0920 O.3    39  DG39       -0.3114
    769  C5'       -7.5580   30.6770  -14.8690 C.3    39  DG39        0.1811
    770  C4'       -8.4510   31.2170  -13.7620 C.3    39  DG39        0.1746
    771  O4'       -9.4130   32.1910  -14.2620 O.3    39  DG39       -0.3327
    772  C3'       -9.3290   30.1810  -13.0810 C.3    39  DG39        0.1558
    773  O3'       -8.5770   29.3530  -12.1940 O.3    39  DG39       -0.3138
    774  C2'      -10.3310   31.1060  -12.3950 C.3    39  DG39        0.0865
    775  C1'      -10.6380   32.0510  -13.5560 C.3    39  DG39        0.2094
    776  N9       -11.7150   31.6200  -14.3670 N.ar   39  DG39       -0.2713
    777  C8       -11.5930   31.2390  -15.6810 C.ar   39  DG39        0.1816
    778  N7       -12.7340   30.9390  -16.2390 N.ar   39  DG39       -0.2173
    779  C5       -13.6670   31.1340  -15.2370 C.ar   39  DG39        0.1748
    780  C6       -15.0760   30.9680  -15.2430 C.ar   39  DG39        0.3023
    781  O6       -15.8000   30.6010  -16.1770 O.2    39  DG39       -0.2633
    782  N1       -15.6410   31.2750  -14.0080 N.ar   39  DG39       -0.1709
    783  C2       -14.9360   31.6910  -12.9040 C.ar   39  DG39        0.2606
    784  N2       -15.6570   31.9400  -11.8030 N.pl3  39  DG39       -0.0859
    785  N3       -13.6270   31.8490  -12.8840 N.ar   39  DG39       -0.1918
    786  C4       -13.0570   31.5560  -14.0720 C.ar   39  DG39        0.1722
    787  P         -9.2360   27.8350  -11.6380 P.3    40  DC40        0.2141
    788  OP1       -8.2100   27.3950  -10.6620 O.3    40  DC40       -0.4373
    789  OP2       -9.4300   27.0770  -12.8960 O.2    40  DC40       -0.5172
    790  O5'      -10.6590   27.9530  -10.9090 O.3    40  DC40       -0.3114
    791  C5'      -10.6980   28.2820   -9.5330 C.3    40  DC40        0.1811
    792  C4'      -12.1330   28.3270   -9.0650 C.3    40  DC40        0.1746
    793  O4'      -12.8860   29.1210  -10.0030 O.3    40  DC40       -0.3327
    794  C3'      -12.8650   27.0050   -9.1100 C.3    40  DC40        0.1558
    795  O3'      -12.5780   26.2500   -7.9650 O.3    40  DC40       -0.3138
    796  C2'      -14.3060   27.4810   -9.0840 C.3    40  DC40        0.0866
    797  C1'      -14.2230   28.6670  -10.0310 C.3    40  DC40        0.2106
    798  N1       -14.5050   28.3000  -11.4260 N.ar   40  DC40       -0.2556
    799  C2       -15.8170   28.3880  -11.9050 C.ar   40  DC40        0.3531
    800  O2       -16.7390   28.5780  -11.0930 O.2    40  DC40       -0.2443
    801  N3       -16.0440   28.2620  -13.2340 N.ar   40  DC40       -0.1739
    802  C4       -15.0240   28.0580  -14.0690 C.ar   40  DC40        0.1759
    803  N4       -15.2960   27.9410  -15.3710 N.pl3  40  DC40       -0.1070
    804  C5       -13.6870   27.9660  -13.6040 C.ar   40  DC40        0.0566
    805  C6       -13.4680   28.0910  -12.2900 C.ar   40  DC40        0.0849
    806  P        -12.5790   24.8840   -8.1320 P.3    41  DT41        0.2141
    807  OP1      -11.6480   23.8290   -7.6290 O.3    41  DT41       -0.4373
    808  OP2      -13.1820   24.7490   -9.4930 O.2    41  DT41       -0.5172
    809  O5'      -13.7460   25.0110   -7.0620 O.3    41  DT41       -0.3114
    810  C5'      -14.8990   24.2120   -7.1630 C.3    41  DT41        0.1811
    811  C4'      -16.1280   25.0500   -6.9670 C.3    41  DT41        0.1746
    812  O4'      -16.0580   26.2540   -7.7730 O.3    41  DT41       -0.3327
    813  C3'      -17.3770   24.3460   -7.4410 C.3    41  DT41        0.1558
    814  O3'      -17.8220   23.4120   -6.4800 O.3    41  DT41       -0.3138
    815  C2'      -18.3060   25.5090   -7.7650 C.3    41  DT41        0.0866
    816  C1'      -17.3130   26.4930   -8.3860 C.3    41  DT41        0.2106
    817  N1       -17.2110   26.2180   -9.8350 N.ar   41  DT41       -0.2559
    818  C2       -18.2760   26.5470  -10.6530 C.ar   41  DT41        0.3545
    819  O2       -19.3250   26.9980  -10.2280 O.2    41  DT41       -0.2443
    820  N3       -18.0690   26.3280  -11.9930 N.ar   41  DT41       -0.1533
    821  C4       -16.9300   25.8230  -12.5850 C.ar   41  DT41        0.2804
    822  O4       -16.8930   25.6840  -13.8050 O.2    41  DT41       -0.2654
    823  C5       -15.8700   25.5050  -11.6700 C.ar   41  DT41        0.0534
    824  C6       -16.0440   25.7080  -10.3610 C.ar   41  DT41        0.0824
    825  C7       -14.5890   24.9490  -12.2170 C.3    41  DT41        0.0377
    826  P        -17.6650   21.8600   -6.7690 P.3    42  DT42        0.2141
    827  OP1      -17.5270   21.2220   -5.4420 O.3    42  DT42       -0.4373
    828  OP2      -17.0140   21.2380   -7.9530 O.2    42  DT42       -0.5172
    829  O5'      -19.2160   22.0000   -7.0970 O.3    42  DT42       -0.3114
    830  C5'      -20.0850   22.7630   -6.2490 C.3    42  DT42        0.1811
    831  C4'      -21.3760   23.0600   -6.9660 C.3    42  DT42        0.1746
    832  O4'      -21.1370   23.9880   -8.0540 O.3    42  DT42       -0.3327
    833  C3'      -22.0420   21.8820   -7.6500 C.3    42  DT42        0.1558
    834  O3'      -22.7580   21.0800   -6.7370 O.3    42  DT42       -0.3138
    835  C2'      -22.9440   22.5830   -8.6490 C.3    42  DT42        0.0866
    836  C1'      -22.0240   23.7060   -9.1230 C.3    42  DT42        0.2106
    837  N1       -21.2220   23.3220  -10.2650 N.ar   42  DT42       -0.2559
    838  C2       -21.7880   23.4000  -11.5240 C.ar   42  DT42        0.3545
    839  O2       -22.9400   23.7470  -11.7130 O.2    42  DT42       -0.2443
    840  N3       -20.9540   23.0540  -12.5590 N.ar   42  DT42       -0.1533
    841  C4       -19.6390   22.6470  -12.4650 C.ar   42  DT42        0.2804
    842  O4       -19.0170   22.3700  -13.4870 O.2    42  DT42       -0.2654
    843  C5       -19.1240   22.5900  -11.1250 C.ar   42  DT42        0.0534
    844  C6       -19.9140   22.9210  -10.1000 C.ar   42  DT42        0.0824
    845  C7       -17.7030   22.1570  -10.9170 C.3    42  DT42        0.0377
    846  P        -22.8830   19.4900   -7.0280 P.3    43  DA43        0.2141
    847  OP1      -23.8750   19.8300   -5.9650 O.3    43  DA43       -0.4373
    848  OP2      -21.6880   18.6590   -6.6880 O.2    43  DA43       -0.5172
    849  O5'      -23.5780   18.8160   -8.3050 O.3    43  DA43       -0.3114
    850  C5'      -24.8060   19.2940   -8.8610 C.3    43  DA43        0.1811
    851  C4'      -25.0590   18.6030  -10.1900 C.3    43  DA43        0.1746
    852  O4'      -24.5600   19.4120  -11.2840 O.3    43  DA43       -0.3327
    853  C3'      -24.3470   17.2630  -10.2980 C.3    43  DA43        0.1558
    854  O3'      -25.1880   16.2390   -9.7950 O.3    43  DA43       -0.3138
    855  C2'      -24.0120   17.1420  -11.7800 C.3    43  DA43        0.0865
    856  C1'      -23.7860   18.6120  -12.1650 C.3    43  DA43        0.2094
    857  N9       -22.3220   19.0410  -12.0560 N.ar   43  DA43       -0.2714
    858  C8       -21.5600   19.5670  -11.0450 C.ar   43  DA43        0.1815
    859  N7       -20.2800   19.6290  -11.3250 N.ar   43  DA43       -0.2193
    860  C5       -20.1950   19.1080  -12.6060 C.ar   43  DA43        0.1518
    861  C6       -19.1070   18.9000  -13.4720 C.ar   43  DA43        0.1919
    862  N6       -17.8460   19.2070  -13.1620 N.pl3  43  DA43       -0.1054
    863  N1       -19.3640   18.3590  -14.6830 N.ar   43  DA43       -0.2040
    864  C2       -20.6290   18.0530  -14.9930 C.ar   43  DA43        0.2016
    865  N3       -21.7340   18.2020  -14.2650 N.ar   43  DA43       -0.2048
    866  C4       -21.4440   18.7400  -13.0690 C.ar   43  DA43        0.1691
    867  P        -24.5670   14.8130   -9.3370 P.3    44  DT44        0.2141
    868  OP1      -25.6240   14.0050   -8.6840 O.2    44  DT44       -0.5172
    869  OP2      -23.3640   15.2410   -8.5860 O.3    44  DT44       -0.4373
    870  O5'      -23.9810   14.0400  -10.6100 O.3    44  DT44       -0.3114
    871  C5'      -24.8800   13.7520  -11.6650 C.3    44  DT44        0.1811
    872  C4'      -24.1540   13.4400  -12.9430 C.3    44  DT44        0.1746
    873  O4'      -23.4250   14.6080  -13.3990 O.3    44  DT44       -0.3327
    874  C3'      -23.0870   12.3660  -12.8480 C.3    44  DT44        0.1558
    875  O3'      -23.6270   11.0580  -12.8430 O.3    44  DT44       -0.3138
    876  C2'      -22.2090   12.6690  -14.0560 C.3    44  DT44        0.0866
    877  C1'      -22.2760   14.1930  -14.1120 C.3    44  DT44        0.2106
    878  N1       -21.0700   14.8530  -13.5750 N.ar   44  DT44       -0.2559
    879  C2       -19.9990   15.0300  -14.4300 C.ar   44  DT44        0.3545
    880  O2       -20.0440   14.7560  -15.6160 O.2    44  DT44       -0.2443
    881  N3       -18.8660   15.5390  -13.8440 N.ar   44  DT44       -0.1533
    882  C4       -18.7000   15.8830  -12.5180 C.ar   44  DT44        0.2804
    883  O4       -17.6200   16.3300  -12.1400 O.2    44  DT44       -0.2654
    884  C5       -19.8560   15.6700  -11.6950 C.ar   44  DT44        0.0534
    885  C6       -20.9720   15.1750  -12.2390 C.ar   44  DT44        0.0824
    886  C7       -19.7750   16.0130  -10.2370 C.3    44  DT44        0.0377
    887  P        -22.7080    9.7660  -12.4600 P.3    45  DT45        0.2141
    888  OP1      -23.7440    8.7750  -12.0740 O.2    45  DT45       -0.5172
    889  OP2      -21.7260   10.2350  -11.4610 O.3    45  DT45       -0.4373
    890  O5'      -21.8710    9.2100  -13.7090 O.3    45  DT45       -0.3114
    891  C5'      -22.1200    9.5680  -15.0680 C.3    45  DT45        0.1811
    892  C4'      -20.7940    9.7980  -15.7800 C.3    45  DT45        0.1746
    893  O4'      -20.3420   11.1590  -15.6020 O.3    45  DT45       -0.3327
    894  C3'      -19.6040    9.0090  -15.2580 C.3    45  DT45        0.1558
    895  O3'      -19.6470    7.6680  -15.7230 O.3    45  DT45       -0.3138
    896  C2'      -18.4490    9.7940  -15.8520 C.3    45  DT45        0.0866
    897  C1'      -18.9430   11.2210  -15.7360 C.3    45  DT45        0.2106
    898  N1       -18.3390   11.8460  -14.5710 N.ar   45  DT45       -0.2559
    899  C2       -17.0230   12.2550  -14.6750 C.ar   45  DT45        0.3545
    900  O2       -16.3730   12.1460  -15.7000 O.2    45  DT45       -0.2443
    901  N3       -16.4910   12.7970  -13.5300 N.ar   45  DT45       -0.1533
    902  C4       -17.1280   12.9680  -12.3190 C.ar   45  DT45        0.2804
    903  O4       -16.5170   13.4720  -11.3800 O.2    45  DT45       -0.2654
    904  C5       -18.4910   12.5180  -12.2910 C.ar   45  DT45        0.0534
    905  C6       -19.0340   11.9870  -13.3900 C.ar   45  DT45        0.0824
    906  C7       -19.2700   12.6600  -11.0170 C.3    45  DT45        0.0377
    907  P        -19.3240    6.6280  -14.6610 P.3    46  DC46        0.2141
    908  OP1      -20.1680    5.5060  -15.1430 O.2    46  DC46       -0.5172
    909  OP2      -19.2870    6.9570  -13.2130 O.3    46  DC46       -0.4373
    910  O5'      -17.8390    6.4070  -15.1770 O.3    46  DC46       -0.3114
    911  C5'      -17.5900    6.3740  -16.5690 C.3    46  DC46        0.1811
    912  C4'      -16.2890    7.0520  -16.9060 C.3    46  DC46        0.1746
    913  O4'      -16.3000    8.4560  -16.5250 O.3    46  DC46       -0.3327
    914  C3'      -15.0320    6.5610  -16.2300 C.3    46  DC46        0.1558
    915  O3'      -14.6160    5.3060  -16.6950 O.3    46  DC46       -0.3138
    916  C2'      -14.0660    7.6820  -16.5480 C.3    46  DC46        0.0866
    917  C1'      -14.9590    8.8980  -16.3370 C.3    46  DC46        0.2106
    918  N1       -14.7680    9.3450  -14.9160 N.ar   46  DC46       -0.2556
    919  C2       -13.6190   10.0270  -14.5010 C.ar   46  DC46        0.3531
    920  O2       -12.6340   10.0560  -15.2590 O.2    46  DC46       -0.2443
    921  N3       -13.6130   10.6340  -13.2900 N.ar   46  DC46       -0.1739
    922  C4       -14.6930   10.5760  -12.5100 C.ar   46  DC46        0.1759
    923  N4       -14.6410   11.1890  -11.3250 N.pl3  46  DC46       -0.1070
    924  C5       -15.8670    9.8900  -12.9120 C.ar   46  DC46        0.0566
    925  C6       -15.8690    9.2920  -14.1090 C.ar   46  DC46        0.0849
    926  P        -14.5480    4.1810  -15.5910 P.3    47  DA47        0.2141
    927  OP1      -14.5240    2.9980  -16.5130 O.2    47  DA47       -0.5172
    928  OP2      -15.2960    4.1280  -14.3080 O.3    47  DA47       -0.4373
    929  O5'      -13.0500    4.5910  -15.2750 O.3    47  DA47       -0.3114
    930  C5'      -12.0680    4.4910  -16.2940 C.3    47  DA47        0.1811
    931  C4'      -10.8590    5.3060  -15.9420 C.3    47  DA47        0.1746
    932  O4'      -11.2680    6.6160  -15.4640 O.3    47  DA47       -0.3327
    933  C3'      -10.0280    4.7770  -14.7970 C.3    47  DA47        0.1558
    934  O3'       -9.2220    3.7160  -15.2750 O.3    47  DA47       -0.3138
    935  C2'       -9.2210    6.0130  -14.4440 C.3    47  DA47        0.0865
    936  C1'      -10.2940    7.0970  -14.5540 C.3    47  DA47        0.2094
    937  N9       -11.0220    7.3460  -13.2560 N.ar   47  DA47       -0.2714
    938  C8       -12.3620    7.1530  -13.0440 C.ar   47  DA47        0.1815
    939  N7       -12.8020    7.6770  -11.9250 N.ar   47  DA47       -0.2193
    940  C5       -11.6740    8.2530  -11.3620 C.ar   47  DA47        0.1518
    941  C6       -11.4720    8.9680  -10.1680 C.ar   47  DA47        0.1919
    942  N6       -12.4440    9.2340   -9.2930 N.pl3  47  DA47       -0.1054
    943  N1       -10.2230    9.4040   -9.9030 N.ar   47  DA47       -0.2040
    944  C2        -9.2490    9.1380  -10.7820 C.ar   47  DA47        0.2016
    945  N3        -9.3160    8.4780  -11.9360 N.ar   47  DA47       -0.2048
    946  C4       -10.5700    8.0560  -12.1700 C.ar   47  DA47        0.1691
    947  P         -8.6480    2.6500  -14.2560 P.3    48  DA48        0.2141
    948  OP1       -8.0700    1.6580  -15.1410 O.2    48  DA48       -0.5172
    949  OP2       -9.7580    2.2570  -13.3560 O.3    48  DA48       -0.4373
    950  O5'       -7.5650    3.3920  -13.3550 O.3    48  DA48       -0.3114
    951  C5'       -6.3750    3.9010  -13.9220 C.3    48  DA48        0.1811
    952  C4'       -5.6020    4.6170  -12.8690 C.3    48  DA48        0.1746
    953  O4'       -6.4080    5.7330  -12.4290 O.3    48  DA48       -0.3327
    954  C3'       -5.3730    3.8220  -11.5780 C.3    48  DA48        0.1558
    955  O3'       -4.3190    2.8640  -11.8080 O.3    48  DA48       -0.3138
    956  C2'       -5.1090    4.9490  -10.5800 C.3    48  DA48        0.0865
    957  C1'       -6.1590    5.9910  -11.0180 C.3    48  DA48        0.2094
    958  N9        -7.5150    5.8720  -10.3730 N.ar   48  DA48       -0.2714
    959  C8        -8.6510    5.2470  -10.8180 C.ar   48  DA48        0.1815
    960  N7        -9.6690    5.3550   -9.9970 N.ar   48  DA48       -0.2193
    961  C5        -9.1670    6.1000   -8.9420 C.ar   48  DA48        0.1518
    962  C6        -9.7490    6.5580   -7.7470 C.ar   48  DA48        0.1919
    963  N6       -11.0180    6.3230   -7.4050 N.pl3  48  DA48       -0.1054
    964  N1        -8.9730    7.2760   -6.9070 N.ar   48  DA48       -0.2040
    965  C2        -7.7020    7.5120   -7.2520 C.ar   48  DA48        0.2016
    966  N3        -7.0430    7.1360   -8.3450 N.ar   48  DA48       -0.2048
    967  C4        -7.8420    6.4240   -9.1580 C.ar   48  DA48        0.1691
    968  P         -4.1120    1.4960  -10.7950 P.3    49  DT49        0.2141
    969  OP1       -2.8280    0.8810  -11.2130 O.2    49  DT49       -0.5172
    970  OP2       -5.1720    0.6480  -10.2170 O.3    49  DT49       -0.4373
    971  O5'       -3.7830    2.6590   -9.7610 O.3    49  DT49       -0.3114
    972  C5'       -2.7000    3.5730  -10.0110 C.3    49  DT49        0.1811
    973  C4'       -2.5120    4.4980   -8.8330 C.3    49  DT49        0.1746
    974  O4'       -3.6700    5.3650   -8.6920 O.3    49  DT49       -0.3327
    975  C3'       -2.4210    3.8250   -7.4770 C.3    49  DT49        0.1558
    976  O3'       -1.1440    3.2650   -7.2350 O.3    49  DT49       -0.3138
    977  C2'       -2.7580    4.9740   -6.5410 C.3    49  DT49        0.0866
    978  C1'       -3.8900    5.6460   -7.3140 C.3    49  DT49        0.2106
    979  N1        -5.1890    5.1160   -6.9000 N.ar   49  DT49       -0.2559
    980  C2        -5.8140    5.7150   -5.8230 C.ar   49  DT49        0.3545
    981  O2        -5.3450    6.6700   -5.2300 O.2    49  DT49       -0.2443
    982  N3        -7.0140    5.1520   -5.4610 N.ar   49  DT49       -0.1533
    983  C4        -7.6370    4.0740   -6.0540 C.ar   49  DT49        0.2804
    984  O4        -8.7160    3.6830   -5.6160 O.2    49  DT49       -0.2654
    985  C5        -6.9250    3.5070   -7.1650 C.ar   49  DT49        0.0534
    986  C6        -5.7570    4.0350   -7.5380 C.ar   49  DT49        0.0824
    987  C7        -7.5210    2.3290   -7.8780 C.3    49  DT49        0.0377
    988  P         -1.0440    2.2910   -6.1230 P.3    50  DT50        0.2141
    989  OP1        0.2790    2.1630   -6.7550 O.2    50  DT50       -0.5172
    990  OP2       -1.8270    1.1000   -5.7580 O.3    50  DT50       -0.4373
    991  O5'       -0.9850    3.0270   -4.7060 O.3    50  DT50       -0.3114
    992  C5'       -0.6060    4.4100   -4.5640 C.3    50  DT50        0.1811
    993  C4'       -1.2580    5.0800   -3.3720 C.3    50  DT50        0.1746
    994  O4'       -2.6060    5.4720   -3.7280 O.3    50  DT50       -0.3327
    995  C3'       -1.4810    4.2060   -2.1500 C.3    50  DT50        0.1558
    996  O3'       -0.2690    4.0150   -1.4520 O.3    50  DT50       -0.3138
    997  C2'       -2.4460    5.1430   -1.4410 C.3    50  DT50        0.0866
    998  C1'       -3.3730    5.5560   -2.5690 C.3    50  DT50        0.2106
    999  N1        -4.6140    4.6690   -2.6990 N.ar   50  DT50       -0.2559
   1000  C2        -5.8000    5.0370   -2.0940 C.ar   50  DT50        0.3545
   1001  O2        -5.8980    6.0020   -1.3560 O.2    50  DT50       -0.2443
   1002  N3        -6.8750    4.2310   -2.3820 N.ar   50  DT50       -0.1533
   1003  C4        -6.8820    3.1180   -3.1980 C.ar   50  DT50        0.2804
   1004  O4        -7.9280    2.4950   -3.3620 O.2    50  DT50       -0.2654
   1005  C5        -5.6130    2.8000   -3.7890 C.ar   50  DT50        0.0534
   1006  C6        -4.5510    3.5670   -3.5250 C.ar   50  DT50        0.0824
   1007  C7        -5.5180    1.6060   -4.6920 C.3    50  DT50        0.0377
   1008  P          0.0490    2.5630   -0.5290 P.3    51  DA51        0.2141
   1009  OP1        1.5060    2.3870   -0.7320 O.3    51  DA51       -0.4373
   1010  OP2       -0.8970    1.5400   -1.0360 O.2    51  DA51       -0.5172
   1011  O5'       -0.2090    2.7730    1.0370 O.3    51  DA51       -0.3114
   1012  C5'       -0.5000    4.0670    1.5530 C.3    51  DA51        0.1811
   1013  C4'       -1.8250    4.0840    2.2960 C.3    51  DA51        0.1746
   1014  O4'       -2.9130    4.4240    1.3940 O.3    51  DA51       -0.3327
   1015  C3'       -2.3090    2.7610    2.8660 C.3    51  DA51        0.1558
   1016  O3'       -1.5570    2.3390    3.9990 O.3    51  DA51       -0.3138
   1017  C2'       -3.7260    3.1890    3.2190 C.3    51  DA51        0.0865
   1018  C1'       -4.1150    3.8800    1.9140 C.3    51  DA51        0.2094
   1019  N9        -4.7670    2.8500    1.1550 N.ar   51  DA51       -0.2714
   1020  C8        -4.2790    2.2500    0.0240 C.ar   51  DA51        0.1815
   1021  N7        -5.1160    1.4050   -0.5300 N.ar   51  DA51       -0.2193
   1022  C5        -6.2290    1.4530    0.2940 C.ar   51  DA51        0.1518
   1023  C6        -7.4670    0.7870    0.2520 C.ar   51  DA51        0.1919
   1024  N6        -7.8010   -0.0930   -0.6950 N.pl3  51  DA51       -0.1054
   1025  N1        -8.3590    1.0600    1.2270 N.ar   51  DA51       -0.2040
   1026  C2        -8.0240    1.9430    2.1750 C.ar   51  DA51        0.2016
   1027  N3        -6.8940    2.6320    2.3210 N.ar   51  DA51       -0.2048
   1028  C4        -6.0290    2.3370    1.3370 C.ar   51  DA51        0.1691
   1029  P         -0.9270    0.9380    3.9150 P.3    52  DC52        0.2141
   1030  OP1        0.3980    0.9760    4.5440 O.3    52  DC52       -0.4373
   1031  OP2       -1.1560    0.0590    2.7430 O.2    52  DC52       -0.5172
   1032  O5'       -1.8700    0.4610    5.0990 O.3    52  DC52       -0.3114
   1033  C5'       -3.1790    0.1000    4.8200 C.3    52  DC52        0.1811
   1034  C4'       -4.0110    0.1220    6.0670 C.3    52  DC52        0.1746
   1035  O4'       -5.3260    0.5280    5.6120 O.3    52  DC52       -0.3327
   1036  C3'       -4.1910   -1.2820    6.6530 C.3    52  DC52        0.1558
   1037  O3'       -3.5190   -1.4560    7.8940 O.3    52  DC52       -0.3138
   1038  C2'       -5.7040   -1.4280    6.7630 C.3    52  DC52        0.0866
   1039  C1'       -6.1580   -0.6130    5.5580 C.3    52  DC52        0.2106
   1040  N1        -6.1420   -1.3130    3.9320 N.ar   52  DC52       -0.2556
   1041  C2        -7.1600   -2.2690    3.8330 C.ar   52  DC52        0.3531
   1042  O2        -8.0120   -2.3300    4.7360 O.2    52  DC52       -0.2443
   1043  N3        -7.1860   -3.0960    2.7620 N.ar   52  DC52       -0.1739
   1044  C4        -6.2500   -2.9950    1.8170 C.ar   52  DC52        0.1759
   1045  N4        -6.3160   -3.8320    0.7790 N.pl3  52  DC52       -0.1070
   1046  C5        -5.2100   -2.0340    1.8980 C.ar   52  DC52        0.0566
   1047  C6        -5.1880   -1.2180    2.9580 C.ar   52  DC52        0.0849
   1048  P         -2.5530   -2.6120    7.9510 P.3    53  DG53        0.2141
   1049  OP1       -2.1750   -2.8730    9.3590 O.3    53  DG53       -0.4373
   1050  OP2       -1.5750   -1.9900    7.0310 O.2    53  DG53       -0.5172
   1051  O5'       -2.9490   -3.9830    7.2220 O.3    53  DG53       -0.3114
   1052  C5'       -4.0720   -4.7340    7.6590 C.3    53  DG53        0.1811
   1053  C4'       -3.9230   -6.2050    7.3490 C.3    53  DG53        0.1746
   1054  O4'       -3.9330   -6.4010    5.9120 O.3    53  DG53       -0.3327
   1055  C3'       -2.6350   -6.8790    7.8140 C.3    53  DG53        0.1558
   1056  O3'       -2.6590   -7.2670    9.1770 O.3    53  DG53       -0.3138
   1057  C2'       -2.5160   -8.0650    6.8650 C.3    53  DG53        0.0865
   1058  C1'       -3.0680   -7.4660    5.5670 C.3    53  DG53        0.2094
   1059  N9        -2.0300   -7.0770    4.7150 N.ar   53  DG53       -0.2713
   1060  C8        -1.5390   -5.7940    4.6920 C.ar   53  DG53        0.1816
   1061  N7        -0.5240   -5.6460    3.8850 N.ar   53  DG53       -0.2173
   1062  C5        -0.3320   -6.9020    3.3400 C.ar   53  DG53        0.1748
   1063  C6         0.6240   -7.3640    2.4000 C.ar   53  DG53        0.3023
   1064  O6         1.5230   -6.7210    1.8420 O.2    53  DG53       -0.2633
   1065  N1         0.4670   -8.7190    2.1200 N.ar   53  DG53       -0.1709
   1066  C2        -0.4930   -9.5280    2.6780 C.ar   53  DG53        0.2606
   1067  N2        -0.4880  -10.8090    2.2840 N.pl3  53  DG53       -0.0859
   1068  N3        -1.3870   -9.1140    3.5540 N.ar   53  DG53       -0.1918
   1069  C4        -1.2530   -7.8010    3.8410 C.ar   53  DG53        0.1722
   1070  P         -1.1140   -7.5360   10.1680 P.3    54  DT54        0.2141
   1071  OP1       -1.8250   -7.8740   11.4300 O.3    54  DT54       -0.4373
   1072  OP2       -0.2150   -6.3500   10.1200 O.2    54  DT54       -0.5172
   1073  O5'       -0.3060   -8.8170    9.6770 O.3    54  DT54       -0.3114
   1074  C5'       -0.9620  -10.0740    9.5390 C.3    54  DT54        0.1811
   1075  C4'       -0.1880  -10.9710    8.6090 C.3    54  DT54        0.1746
   1076  O4'       -0.3340  -10.5460    7.2260 O.3    54  DT54       -0.3327
   1077  C3'        1.3160  -10.9970    8.8140 C.3    54  DT54        0.1558
   1078  O3'        1.6650  -11.8380    9.9020 O.3    54  DT54       -0.3138
   1079  C2'        1.8060  -11.5770    7.4910 C.3    54  DT54        0.0866
   1080  C1'        0.8000  -10.9780    6.4970 C.3    54  DT54        0.2106
   1081  N1         1.3120   -9.8590    5.7270 N.ar   54  DT54       -0.2559
   1082  C2         1.9410  -10.1560    4.5330 C.ar   54  DT54        0.3545
   1083  O2         2.0100  -11.2860    4.0820 O.2    54  DT54       -0.2443
   1084  N3         2.4920   -9.0780    3.8830 N.ar   54  DT54       -0.1533
   1085  C4         2.4760   -7.7630    4.2970 C.ar   54  DT54        0.2804
   1086  O4         3.0140   -6.9040    3.6030 O.2    54  DT54       -0.2654
   1087  C5         1.8050   -7.5360    5.5460 C.ar   54  DT54        0.0534
   1088  C6         1.2610   -8.5660    6.1990 C.ar   54  DT54        0.0824
   1089  C7         1.7350   -6.1370    6.0820 C.3    54  DT54        0.0377
   1090  P          3.5070  -11.7530   10.9120 P.3    55  DC55        0.2141
   1091  OP1        4.2080  -10.5600   11.4410 O.3    55  DC55       -0.4373
   1092  OP2        4.2400  -12.8130   10.1850 O.2    55  DC55       -0.5172
   1093  O5'        2.8430  -12.5150   12.1520 O.3    55  DC55       -0.3114
   1094  C5'        2.4790  -11.7700   13.3040 C.3    55  DC55        0.1811
   1095  C4'        2.0200  -12.6810   14.4150 C.3    55  DC55        0.1746
   1096  O4'        1.1530  -13.6940   13.8560 O.3    55  DC55       -0.3327
   1097  C3'        3.1050  -13.4750   15.1270 C.3    55  DC55        0.1558
   1098  O3'        3.7320  -12.7450   16.1700 O.3    55  DC55       -0.3138
   1099  C2'        2.3680  -14.7100   15.6250 C.3    55  DC55        0.0866
   1100  C1'        1.3250  -14.9150   14.5320 C.3    55  DC55        0.2106
   1101  N1         1.5780  -15.9060   13.4390 N.ar   55  DC55       -0.2556
   1102  C2         1.4110  -17.2430   13.8170 C.ar   55  DC55        0.3531
   1103  O2         0.9680  -17.4930   14.9510 O.2    55  DC55       -0.2443
   1104  N3         1.7380  -18.2220   12.9400 N.ar   55  DC55       -0.1739
   1105  C4         2.2120  -17.9070   11.7340 C.ar   55  DC55        0.1759
   1106  N4         2.5200  -18.9060   10.9040 N.pl3  55  DC55       -0.1070
   1107  C5         2.3880  -16.5580   11.3320 C.ar   55  DC55        0.0566
   1108  C6         2.0650  -15.5950   12.2010 C.ar   55  DC55        0.0849
   1109  P          5.4650  -13.1200   16.6660 P.3    56  DT56        0.2141
   1110  OP1        5.9430  -12.0820   17.6140 O.3    56  DT56       -0.4373
   1111  OP2        6.3510  -13.5540   15.5450 O.2    56  DT56       -0.5172
   1112  O5'        5.1010  -14.4280   17.4790 O.3    56  DT56       -0.3114
   1113  C5'        4.1870  -14.3800   18.5500 C.3    56  DT56        0.1811
   1114  C4'        3.9120  -15.7770   19.0360 C.3    56  DT56        0.1746
   1115  O4'        3.0330  -16.4540   18.1020 O.3    56  DT56       -0.3327
   1116  C3'        5.1180  -16.6930   19.1660 C.3    56  DT56        0.1558
   1117  O3'        5.8490  -16.4680   20.3740 O.3    56  DT56       -0.3138
   1118  C2'        4.4800  -18.0750   19.0750 C.3    56  DT56        0.0866
   1119  C1'        3.3310  -17.8330   18.0890 C.3    56  DT56        0.2106
   1120  N1         3.6310  -18.2760   16.7580 N.ar   56  DT56       -0.2559
   1121  C2         3.3190  -19.5690   16.3820 C.ar   56  DT56        0.3545
   1122  O2         2.6790  -20.3290   17.0860 O.2    56  DT56       -0.2443
   1123  N3         3.7860  -19.9420   15.1450 N.ar   56  DT56       -0.1533
   1124  C4         4.5170  -19.1710   14.2660 C.ar   56  DT56        0.2804
   1125  O4         4.8640  -19.6460   13.1880 O.2    56  DT56       -0.2654
   1126  C5         4.8010  -17.8420   14.7290 C.ar   56  DT56        0.0534
   1127  C6         4.3600  -17.4520   15.9280 C.ar   56  DT56        0.0824
   1128  C7         5.5920  -16.9250   13.8440 C.3    56  DT56        0.0377
   1129  P          7.2580  -17.2460   20.6130 P.3    57  DG57        0.2141
   1130  OP1        8.0220  -16.5520   21.6720 O.3    57  DG57       -0.4373
   1131  OP2        7.7630  -17.3110   19.2250 O.2    57  DG57       -0.5172
   1132  O5'        7.0410  -18.7750   21.0340 O.3    57  DG57       -0.3114
   1133  C5'        6.2060  -19.1070   22.1340 C.3    57  DG57        0.1811
   1134  C4'        5.6720  -20.5100   21.9980 C.3    57  DG57        0.1746
   1135  O4'        5.0140  -20.6440   20.7120 O.3    57  DG57       -0.3327
   1136  C3'        6.7220  -21.6100   22.0190 C.3    57  DG57        0.1558
   1137  O3'        7.0300  -22.0390   23.3340 O.3    57  DG57       -0.3138
   1138  C2'        6.1000  -22.7080   21.1700 C.3    57  DG57        0.0865
   1139  C1'        5.2910  -21.9040   20.1490 C.3    57  DG57        0.2094
   1140  N9         6.0690  -21.7490   18.9870 N.ar   57  DG57       -0.2713
   1141  C8         6.4170  -20.5380   18.4410 C.ar   57  DG57        0.1816
   1142  N7         7.0350  -20.6460   17.2970 N.ar   57  DG57       -0.2173
   1143  C5         7.1000  -22.0080   17.0700 C.ar   57  DG57        0.1748
   1144  C6         7.6590  -22.7390   15.9890 C.ar   57  DG57        0.3023
   1145  O6         8.2280  -22.3000   14.9820 O.2    57  DG57       -0.2633
   1146  N1         7.5090  -24.1120   16.1570 N.ar   57  DG57       -0.1709
   1147  C2         6.8960  -24.7090   17.2330 C.ar   57  DG57        0.2606
   1148  N2         6.8470  -26.0480   17.2170 N.pl3  57  DG57       -0.0859
   1149  N3         6.3730  -24.0440   18.2440 N.ar   57  DG57       -0.1918
   1150  C4         6.5080  -22.7080   18.1030 C.ar   57  DG57        0.1722
   1151  P          8.4540  -22.2540   23.6760 P.3    58  DC58        0.2141
   1152  OP1        8.4910  -22.4840   25.1310 O.3    58  DC58       -0.4373
   1153  OP2        9.5120  -21.4540   23.0350 O.2    58  DC58       -0.5172
   1154  O5'        8.5130  -23.6600   22.9190 O.3    58  DC58       -0.3114
   1155  C5'        7.9850  -24.8160   23.5470 C.3    58  DC58        0.1811
   1156  C4'        7.7470  -25.9140   22.5450 C.3    58  DC58        0.1746
   1157  O4'        7.4530  -25.3190   21.2580 O.3    58  DC58       -0.3327
   1158  C3'        8.9290  -26.8100   22.2230 C.3    58  DC58        0.1558
   1159  O3'        9.2040  -27.7820   23.2080 O.3    58  DC58       -0.3138
   1160  C2'        8.5290  -27.3900   20.8750 C.3    58  DC58        0.0866
   1161  C1'        7.9710  -26.1330   20.2280 C.3    58  DC58        0.2106
   1162  N1         9.0640  -25.4360   19.4830 N.ar   58  DC58       -0.2556
   1163  C2         9.5820  -25.9080   18.2710 C.ar   58  DC58        0.3531
   1164  O2         9.3390  -27.0780   17.9320 O.2    58  DC58       -0.2443
   1165  N3        10.3310  -25.0780   17.5070 N.ar   58  DC58       -0.1739
   1166  C4        10.5670  -23.8290   17.9110 C.ar   58  DC58        0.1759
   1167  N4        11.3110  -23.0480   17.1240 N.pl3  58  DC58       -0.1070
   1168  C5        10.0510  -23.3320   19.1350 C.ar   58  DC58        0.0566
   1169  C6         9.3120  -24.1550   19.8880 C.ar   58  DC58        0.0849
   1170  P         10.6940  -27.9490   23.6630 P.3    59  DA59        0.2141
   1171  OP1       10.4410  -27.9440   25.1220 O.3    59  DA59       -0.4373
   1172  OP2       11.9340  -27.3180   23.1260 O.2    59  DA59       -0.5172
   1173  O5'       10.6280  -29.4570   23.1600 O.3    59  DA59       -0.3114
   1174  C5'       11.8080  -30.2400   23.0900 C.3    59  DA59        0.1811
   1175  C4'       11.9290  -30.8680   21.7290 C.3    59  DA59        0.1746
   1176  O4'       11.5600  -29.9030   20.7130 O.3    59  DA59       -0.3327
   1177  C3'       13.3390  -31.2790   21.3670 C.3    59  DA59        0.1558
   1178  O3'       13.6020  -32.5700   21.8920 O.3    59  DA59       -0.3138
   1179  C2'       13.3080  -31.2690   19.8430 C.3    59  DA59        0.0865
   1180  C1'       12.3750  -30.0850   19.5650 C.3    59  DA59        0.2094
   1181  N9        13.0240  -28.8360   19.2870 N.ar   59  DA59       -0.2714
   1182  C8        13.0070  -27.7110   20.0690 C.ar   59  DA59        0.1815
   1183  N7        13.6270  -26.6850   19.5350 N.ar   59  DA59       -0.2193
   1184  C5        14.0830  -27.1700   18.3200 C.ar   59  DA59        0.1518
   1185  C6        14.8160  -26.5730   17.2780 C.ar   59  DA59        0.1919
   1186  N6        15.2320  -25.3050   17.3000 N.pl3  59  DA59       -0.1054
   1187  N1        15.1080  -27.3340   16.2020 N.ar   59  DA59       -0.2040
   1188  C2        14.6890  -28.6050   16.1810 C.ar   59  DA59        0.2016
   1189  N3        13.9950  -29.2760   17.0970 N.ar   59  DA59       -0.2048
   1190  C4        13.7210  -28.4930   18.1530 C.ar   59  DA59        0.1691
   1191  P         15.3120  -33.2510   21.8710 P.3    60  DC60        0.2141
   1192  OP1       15.2070  -34.6400   22.3640 O.2    60  DC60       -0.5172
   1193  OP2       16.1290  -32.2700   22.6210 O.3    60  DC60       -0.4373
   1194  O5'       15.8380  -33.2750   20.3590 O.3    60  DC60       -0.3114
   1195  C5'       15.3820  -34.2550   19.4250 C.3    60  DC60        0.1811
   1196  C4'       15.9740  -33.9980   18.0500 C.3    60  DC60        0.1746
   1197  O4'       15.5100  -32.7150   17.5380 O.3    60  DC60       -0.3327
   1198  C3'       17.4880  -33.8600   18.0340 C.3    60  DC60        0.1558
   1199  O3'       18.1420  -35.1130   18.0420 O.3    60  DC60       -0.3138
   1200  C2'       17.7260  -33.0720   16.7510 C.3    60  DC60        0.0866
   1201  C1'       16.5610  -32.0770   16.8160 C.3    60  DC60        0.2106
   1202  N1        16.9530  -30.7920   17.5220 N.ar   60  DC60       -0.2556
   1203  C2        17.6040  -29.8350   16.7340 C.ar   60  DC60        0.3531
   1204  O2        17.8460  -30.1040   15.5460 O.2    60  DC60       -0.2443
   1205  N3        17.9500  -28.6490   17.2890 N.ar   60  DC60       -0.1739
   1206  C4        17.6700  -28.4040   18.5700 C.ar   60  DC60        0.1759
   1207  N4        18.0300  -27.2210   19.0740 N.pl3  60  DC60       -0.1070
   1208  C5        17.0110  -29.3610   19.3850 C.ar   60  DC60        0.0566
   1209  C6        16.6710  -30.5310   18.8330 C.ar   60  DC60        0.0849
   1210  P         19.3820  -35.1950   18.8660 P.3    61  DA61        0.2140
   1211  OP1       19.8160  -36.5320   19.3180 O.2    61  DA61       -0.5172
   1212  OP2       19.4510  -34.0380   19.7860 O.3    61  DA61       -0.4373
   1213  O5'       20.2890  -34.7500   17.6270 O.3    61  DA61       -0.3140
   1214  C5'       20.4460  -35.5840   16.4900 C.3    61  DA61        0.1517
   1215  C4'       21.2740  -34.9100   15.4220 C.3    61  DA61        0.0626
   1216  O4'       20.5300  -33.8060   14.8470 O.3    61  DA61       -0.1465
   1217  C3'       22.5640  -34.2660   15.9000 C.3    61  DA61        0.1289
   1218  O3'       23.6250  -35.1850   16.0680 O.3    61  DA61       -0.3164
   1219  C2'       22.8340  -33.2020   14.8450 C.3    61  DA61        0.0883
   1220  C1'       21.4090  -32.7460   14.5380 C.3    61  DA61        0.2573
   1221  N9        21.0110  -31.5340   15.3080 N.ar   61  DA61       -0.2682
   1222  C8        20.2050  -31.4390   16.4130 C.ar   61  DA61        0.1816
   1223  N7        20.0600  -30.2130   16.8570 N.ar   61  DA61       -0.2191
   1224  C5        20.8230  -29.4520   15.9860 C.ar   61  DA61        0.1545
   1225  C6        21.0830  -28.0720   15.9150 C.ar   61  DA61        0.2060
   1226  N6        20.5790  -27.1800   16.7710 N.2    61  DA61       -0.1252
   1227  N1        21.8880  -27.6360   14.9220 N.ar   61  DA61       -0.2017
   1228  C2        22.3920  -28.5310   14.0650 C.ar   61  DA61        0.2017
   1229  N3        22.2190  -29.8510   14.0280 N.ar   61  DA61       -0.2048
   1230  C4        21.4150  -30.2520   15.0270 C.ar   61  DA61        0.1694
   1231  P         24.5940  -34.9870   17.3320 P.3    62  DT62        0.2140
   1232  OP1       25.0740  -36.3470   17.6710 O.2    62  DT62       -0.5172
   1233  OP2       23.9440  -34.1510   18.3580 O.3    62  DT62       -0.4373
   1234  O5'       25.8180  -34.1740   16.7130 O.3    62  DT62       -0.3114
   1235  C5'       26.0380  -34.2490   15.3270 C.3    62  DT62        0.1811
   1236  C4'       26.5870  -32.9320   14.8350 C.3    62  DT62        0.1746
   1237  O4'       25.5100  -32.0130   14.5420 O.3    62  DT62       -0.3327
   1238  C3'       27.3970  -32.1880   15.8680 C.3    62  DT62        0.1558
   1239  O3'       28.6960  -32.7510   15.9730 O.3    62  DT62       -0.3138
   1240  C2'       27.4000  -30.7900   15.2560 C.3    62  DT62        0.0866
   1241  C1'       25.9770  -30.6880   14.7100 C.3    62  DT62        0.2106
   1242  N1        25.1360  -29.9980   15.6460 N.ar   62  DT62       -0.2559
   1243  C2        24.9830  -28.6250   15.6100 C.ar   62  DT62        0.3545
   1244  O2        25.5410  -27.9160   14.7910 O.2    62  DT62       -0.2443
   1245  N3        24.1490  -28.1080   16.5720 N.ar   62  DT62       -0.1533
   1246  C4        23.4690  -28.8110   17.5440 C.ar   62  DT62        0.2804
   1247  O4        22.7550  -28.2050   18.3400 O.2    62  DT62       -0.2654
   1248  C5        23.6800  -30.2310   17.5170 C.ar   62  DT62        0.0534
   1249  C6        24.4860  -30.7600   16.5920 C.ar   62  DT62        0.0824
   1250  C7        22.9830  -31.0830   18.5360 C.3    62  DT62        0.0377
   1251  P         29.5060  -32.4220   17.1490 P.3    63  DA63        0.2141
   1252  OP1       30.2130  -33.4500   17.9500 O.3    63  DA63       -0.4373
   1253  OP2       28.9970  -31.1710   17.7620 O.2    63  DA63       -0.5172
   1254  O5'       30.4570  -31.9300   15.9640 O.3    63  DA63       -0.3114
   1255  C5'       31.6420  -31.2220   16.2810 C.3    63  DA63        0.1811
   1256  C4'       32.0010  -30.2370   15.2020 C.3    63  DA63        0.1746
   1257  O4'       30.8060  -29.7990   14.5060 O.3    63  DA63       -0.3327
   1258  C3'       32.6240  -28.9460   15.6950 C.3    63  DA63        0.1558
   1259  O3'       33.9950  -29.0770   16.0170 O.3    63  DA63       -0.3138
   1260  C2'       32.3530  -28.0160   14.5260 C.3    63  DA63        0.0865
   1261  C1'       30.9350  -28.4390   14.1520 C.3    63  DA63        0.2094
   1262  N9        29.8270  -27.6910   14.8380 N.ar   63  DA63       -0.2714
   1263  C8        28.9010  -28.2180   15.7000 C.ar   63  DA63        0.1815
   1264  N7        27.9520  -27.3780   16.0360 N.ar   63  DA63       -0.2193
   1265  C5        28.2760  -26.2180   15.3490 C.ar   63  DA63        0.1518
   1266  C6        27.6620  -24.9550   15.2820 C.ar   63  DA63        0.1919
   1267  N6        26.5460  -24.6400   15.9420 N.pl3  63  DA63       -0.1054
   1268  N1        28.2430  -24.0170   14.5030 N.ar   63  DA63       -0.2040
   1269  C2        29.3610  -24.3350   13.8420 C.ar   63  DA63        0.2016
   1270  N3        30.0310  -25.4850   13.8250 N.ar   63  DA63       -0.2048
   1271  C4        29.4290  -26.3960   14.6080 C.ar   63  DA63        0.1691
   1272  P         34.5150  -28.5550   17.3750 P.3    64  DC64        0.2141
   1273  OP1       35.9180  -29.0120   17.4970 O.2    64  DC64       -0.5172
   1274  OP2       33.4990  -28.9290   18.3810 O.3    64  DC64       -0.4373
   1275  O5'       34.4770  -26.9550   17.3550 O.3    64  DC64       -0.3114
   1276  C5'       35.4560  -26.2610   16.5960 C.3    64  DC64        0.1811
   1277  C4'       35.1300  -24.7970   16.4850 C.3    64  DC64        0.1746
   1278  O4'       33.8080  -24.6420   15.9190 O.3    64  DC64       -0.3327
   1279  C3'       35.0330  -24.0390   17.7930 C.3    64  DC64        0.1558
   1280  O3'       36.2910  -23.6620   18.3000 O.3    64  DC64       -0.3138
   1281  C2'       34.1660  -22.8480   17.4300 C.3    64  DC64        0.0866
   1282  C1'       33.1770  -23.5080   16.4770 C.3    64  DC64        0.2106
   1283  N1        31.9450  -23.9470   17.1950 N.ar   64  DC64       -0.2556
   1284  C2        30.9860  -22.9910   17.5500 C.ar   64  DC64        0.3531
   1285  O2        31.2230  -21.7930   17.3210 O.2    64  DC64       -0.2443
   1286  N3        29.8330  -23.3990   18.1320 N.ar   64  DC64       -0.1739
   1287  C4        29.6220  -24.6960   18.3590 C.ar   64  DC64        0.1759
   1288  N4        28.4710  -25.0500   18.9350 N.pl3  64  DC64       -0.1070
   1289  C5        30.5810  -25.6800   18.0070 C.ar   64  DC64        0.0566
   1290  C6        31.7180  -25.2740   17.4320 C.ar   64  DC64        0.0849
   1291  P         36.4620  -23.8610   19.8840 P.3    65  DC65        0.2141
   1292  OP1       37.9180  -24.1180   19.8580 O.2    65  DC65       -0.5172
   1293  OP2       35.5370  -24.9200   20.3460 O.3    65  DC65       -0.4373
   1294  O5'       36.1430  -22.6090   20.8330 O.3    65  DC65       -0.3114
   1295  C5'       36.7890  -21.3620   20.6200 C.3    65  DC65        0.1811
   1296  C4'       35.8430  -20.1990   20.7930 C.3    65  DC65        0.1746
   1297  O4'       34.5610  -20.5240   20.1980 O.3    65  DC65       -0.3327
   1298  C3'       35.5000  -19.8150   22.2230 C.3    65  DC65        0.1558
   1299  O3'       36.4800  -18.9840   22.8210 O.3    65  DC65       -0.3138
   1300  C2'       34.1470  -19.1320   22.0780 C.3    65  DC65        0.0866
   1301  C1'       33.5170  -19.9270   20.9340 C.3    65  DC65        0.2106
   1302  N1        32.6130  -20.9730   21.3770 N.ar   65  DC65       -0.2556
   1303  C2        31.3010  -20.6590   21.7520 C.ar   65  DC65        0.3531
   1304  O2        30.9540  -19.4660   21.7720 O.2    65  DC65       -0.2443
   1305  N3        30.4520  -21.6610   22.0810 N.ar   65  DC65       -0.1739
   1306  C4        30.8680  -22.9270   22.0460 C.ar   65  DC65        0.1759
   1307  N4        29.9960  -23.8810   22.3800 N.pl3  65  DC65       -0.1070
   1308  C5        32.1930  -23.2660   21.6690 C.ar   65  DC65        0.0566
   1309  C6        33.0290  -22.2740   21.3440 C.ar   65  DC65        0.0849
   1310  P         36.5770  -18.9850   24.4390 P.3    66  DA66        0.2141
   1311  OP1       37.7880  -18.3360   25.0020 O.3    66  DA66       -0.4373
   1312  OP2       36.2880  -20.4020   24.7700 O.2    66  DA66       -0.5172
   1313  O5'       35.3090  -18.1280   24.8700 O.3    66  DA66       -0.3114
   1314  C5'       35.2030  -17.5340   26.1790 C.3    66  DA66        0.1811
   1315  C4'       34.3560  -16.2890   26.0970 C.3    66  DA66        0.1746
   1316  O4'       35.0760  -15.2940   25.3260 O.3    66  DA66       -0.3327
   1317  C3'       33.0500  -16.4730   25.3340 C.3    66  DA66        0.1558
   1318  O3'       32.0040  -16.9720   26.1590 O.3    66  DA66       -0.3138
   1319  C2'       32.7560  -15.0710   24.8170 C.3    66  DA66        0.0865
   1320  C1'       34.1680  -14.5610   24.5170 C.3    66  DA66        0.2094
   1321  N9        34.5130  -14.5350   23.1450 N.ar   66  DA66       -0.2714
   1322  C8        35.2640  -15.4770   22.4920 C.ar   66  DA66        0.1815
   1323  N7        35.4950  -15.1890   21.2320 N.ar   66  DA66       -0.2193
   1324  C5        34.8510  -13.9760   21.0460 C.ar   66  DA66        0.1518
   1325  C6        34.7190  -13.1370   19.9260 C.ar   66  DA66        0.1919
   1326  N6        35.2540  -13.4070   18.7330 N.pl3  66  DA66       -0.1054
   1327  N1        34.0100  -11.9980   20.0760 N.ar   66  DA66       -0.2040
   1328  C2        33.4740  -11.7280   21.2720 C.ar   66  DA66        0.2016
   1329  N3        33.5300  -12.4360   22.3970 N.ar   66  DA66       -0.2048
   1330  C4        34.2400  -13.5620   22.2150 C.ar   66  DA66        0.1691
   1331  P         30.6280  -17.7000   25.4350 P.3    67  DG67        0.2141
   1332  OP1       29.6050  -18.2260   26.4010 O.3    67  DG67       -0.4373
   1333  OP2       31.6710  -18.5980   24.8820 O.2    67  DG67       -0.5172
   1334  O5'       29.8910  -16.9330   24.2480 O.3    67  DG67       -0.3114
   1335  C5'       28.9520  -15.9170   24.5580 C.3    67  DG67        0.1811
   1336  C4'       28.7910  -14.9770   23.4070 C.3    67  DG67        0.1746
   1337  O4'       30.0870  -14.5010   22.9840 O.3    67  DG67       -0.3327
   1338  C3'       28.1710  -15.5590   22.1600 C.3    67  DG67        0.1558
   1339  O3'       26.7660  -15.4710   22.3030 O.3    67  DG67       -0.3138
   1340  C2'       28.6700  -14.5990   21.0900 C.3    67  DG67        0.0865
   1341  C1'       30.0690  -14.2450   21.5950 C.3    67  DG67        0.2094
   1342  N9        31.1840  -15.0790   21.0290 N.ar   67  DG67       -0.2713
   1343  C8        31.7920  -16.1490   21.6400 C.ar   67  DG67        0.1816
   1344  N7        32.6740  -16.7420   20.8820 N.ar   67  DG67       -0.2173
   1345  C5        32.6510  -16.0220   19.7010 C.ar   67  DG67        0.1748
   1346  C6        33.3890  -16.1920   18.5020 C.ar   67  DG67        0.3023
   1347  O6        34.2450  -17.0480   18.2440 O.2    67  DG67       -0.2633
   1348  N1        33.0540  -15.2380   17.5450 N.ar   67  DG67       -0.1709
   1349  C2        32.1220  -14.2440   17.7210 C.ar   67  DG67        0.2606
   1350  N2        31.9360  -13.4170   16.6830 N.pl3  67  DG67       -0.0859
   1351  N3        31.4270  -14.0750   18.8290 N.ar   67  DG67       -0.1918
   1352  C4        31.7350  -14.9900   19.7720 C.ar   67  DG67        0.1722
   1353  P         25.8320  -16.0490   21.1720 P.3    68  DC68        0.2141
   1354  OP1       24.4440  -15.5570   21.4700 O.3    68  DC68       -0.4373
   1355  OP2       26.1850  -17.4740   21.3850 O.2    68  DC68       -0.5172
   1356  O5'       26.2470  -15.6040   19.6990 O.3    68  DC68       -0.3114
   1357  C5'       26.1280  -14.2410   19.3280 C.3    68  DC68        0.1811
   1358  C4'       27.0340  -13.9250   18.1820 C.3    68  DC68        0.1746
   1359  O4'       28.3760  -14.3590   18.4900 O.3    68  DC68       -0.3327
   1360  C3'       26.7050  -14.6000   16.8730 C.3    68  DC68        0.1558
   1361  O3'       25.7450  -13.7980   16.2110 O.3    68  DC68       -0.3138
   1362  C2'       28.0440  -14.5510   16.1540 C.3    68  DC68        0.0866
   1363  C1'       29.0380  -14.7370   17.3000 C.3    68  DC68        0.2106
   1364  N1        29.5060  -16.1050   17.5400 N.ar   68  DC68       -0.2556
   1365  C2        30.0140  -16.8170   16.4480 C.ar   68  DC68        0.3531
   1366  O2        29.9850  -16.2880   15.3240 O.2    68  DC68       -0.2443
   1367  N3        30.5180  -18.0590   16.6460 N.ar   68  DC68       -0.1739
   1368  C4        30.5270  -18.5870   17.8710 C.ar   68  DC68        0.1759
   1369  N4        31.0340  -19.8130   18.0180 N.pl3  68  DC68       -0.1070
   1370  C5        30.0170  -17.8820   18.9910 C.ar   68  DC68        0.0566
   1371  C6        29.5200  -16.6560   18.7900 C.ar   68  DC68        0.0849
   1372  P         25.1100  -14.2300   14.7600 P.3    69  DT69        0.2141
   1373  OP1       24.1710  -13.3440   14.0380 O.2    69  DT69       -0.5172
   1374  OP2       24.8510  -15.7020   14.8070 O.3    69  DT69       -0.4373
   1375  O5'       26.5570  -14.0140   14.1420 O.3    69  DT69       -0.3114
   1376  C5'       26.7960  -14.3350   12.7890 C.3    69  DT69        0.1811
   1377  C4'       27.8010  -15.4580   12.6730 C.3    69  DT69        0.1746
   1378  O4'       27.9580  -16.2090   13.8970 O.3    69  DT69       -0.3327
   1379  C3'       27.3600  -16.5360   11.7200 C.3    69  DT69        0.1558
   1380  O3'       27.5670  -16.1380   10.3980 O.3    69  DT69       -0.3138
   1381  C2'       28.2380  -17.7170   12.0890 C.3    69  DT69        0.0866
   1382  C1'       28.3960  -17.5190   13.5870 C.3    69  DT69        0.2106
   1383  N1        27.8260  -18.5190   14.1110 N.ar   69  DT69       -0.2559
   1384  C2        28.2900  -19.8190   14.1730 C.ar   69  DT69        0.3545
   1385  O2        29.3040  -20.1900   13.6080 O.2    69  DT69       -0.2443
   1386  N3        27.5210  -20.6760   14.9220 N.ar   69  DT69       -0.1533
   1387  C4        26.3590  -20.3710   15.6010 C.ar   69  DT69        0.2804
   1388  O4        25.7790  -21.2500   16.2330 O.2    69  DT69       -0.2654
   1389  C5        25.9420  -19.0020   15.4870 C.ar   69  DT69        0.0534
   1390  C6        26.6710  -18.1470   14.7650 C.ar   69  DT69        0.0824
   1391  C7        24.6890  -18.5710   16.1890 C.3    69  DT69        0.0377
   1392  P         26.7180  -16.8790    9.2940 P.3    70  DT70        0.2141
   1393  OP1       26.4990  -16.1050    8.0440 O.2    70  DT70       -0.5172
   1394  OP2       25.5480  -17.2910   10.1160 O.3    70  DT70       -0.4373
   1395  O5'       27.5600  -18.1800    8.9420 O.3    70  DT70       -0.3114
   1396  C5'       28.9500  -18.0670    8.6250 C.3    70  DT70        0.1811
   1397  C4'       29.6970  -19.2950    9.0760 C.3    70  DT70        0.1746
   1398  O4'       29.4610  -19.5270   10.4900 O.3    70  DT70       -0.3327
   1399  C3'       29.2650  -20.6210    8.4770 C.3    70  DT70        0.1558
   1400  O3'       29.7370  -20.7950    7.1460 O.3    70  DT70       -0.3138
   1401  C2'       29.9190  -21.6050    9.4420 C.3    70  DT70        0.0866
   1402  C1'       29.7150  -20.8940   10.7810 C.3    70  DT70        0.2106
   1403  N1        28.5670  -21.3330   11.4720 N.ar   70  DT70       -0.2559
   1404  C2        28.6260  -22.5030   12.2050 C.ar   70  DT70        0.3545
   1405  O2        29.6320  -23.1860   12.2860 O.2    70  DT70       -0.2443
   1406  N3        27.4590  -22.8490   12.8430 N.ar   70  DT70       -0.1533
   1407  C4        26.2660  -22.1580   12.8220 C.ar   70  DT70        0.2804
   1408  O4        25.3030  -22.5950   13.4470 O.2    70  DT70       -0.2654
   1409  C5        26.2840  -20.9540   12.0390 C.ar   70  DT70        0.0534
   1410  C6        27.4050  -20.5950   11.4080 C.ar   70  DT70        0.0824
   1411  C7        25.0330  -20.1310   11.9530 C.3    70  DT70        0.0377
   1412  P         29.0910  -21.8700    6.1700 P.3    71  DA71        0.2141
   1413  OP1       29.5060  -21.8040    4.7340 O.2    71  DA71       -0.5172
   1414  OP2       27.6860  -21.6870    6.6110 O.3    71  DA71       -0.4373
   1415  O5'       29.5930  -23.2900    6.6860 O.3    71  DA71       -0.3114
   1416  C5'       30.9270  -23.6810    6.4240 C.3    71  DA71        0.1811
   1417  C4'       31.1890  -25.0010    7.1050 C.3    71  DA71        0.1746
   1418  O4'       31.0660  -24.7930    8.5330 O.3    71  DA71       -0.3327
   1419  C3'       30.1740  -26.1010    6.7980 C.3    71  DA71        0.1558
   1420  O3'       30.4620  -26.6790    5.5320 O.3    71  DA71       -0.3138
   1421  C2'       30.4210  -27.0070    8.0130 C.3    71  DA71        0.0865
   1422  C1'       30.5320  -25.9670    9.1290 C.3    71  DA71        0.2094
   1423  N9        29.3470  -25.6940    9.8610 N.ar   71  DA71       -0.2714
   1424  C8        28.6010  -24.5490    9.7740 C.ar   71  DA71        0.1815
   1425  N7        27.5560  -24.5360   10.5670 N.ar   71  DA71       -0.2193
   1426  C5        27.6200  -25.7570   11.2190 C.ar   71  DA71        0.1518
   1427  C6        26.8000  -26.3550   12.1920 C.ar   71  DA71        0.1919
   1428  N6        25.7090  -25.7740   12.6970 N.pl3  71  DA71       -0.1054
   1429  N1        27.1440  -27.5830   12.6330 N.ar   71  DA71       -0.2040
   1430  C2        28.2370  -28.1640   12.1270 C.ar   71  DA71        0.2016
   1431  N3        29.0870  -27.7040   11.2120 N.ar   71  DA71       -0.2048
   1432  C4        28.7170  -26.4820   10.7940 C.ar   71  DA71        0.1691
   1433  P         29.4200  -27.5560    4.6030 P.3    72  DT72        0.2141
   1434  OP1       30.0700  -28.0710    3.3790 O.2    72  DT72       -0.5172
   1435  OP2       28.2000  -26.7240    4.5040 O.3    72  DT72       -0.4373
   1436  O5'       29.0540  -28.7510    5.5660 O.3    72  DT72       -0.3114
   1437  C5'       29.7470  -29.9360    5.3950 C.3    72  DT72        0.1811
   1438  C4'       29.3650  -30.8340    6.5320 C.3    72  DT72        0.1746
   1439  O4'       29.2980  -30.0790    7.7580 O.3    72  DT72       -0.3327
   1440  C3'       27.9660  -31.3960    6.4570 C.3    72  DT72        0.1558
   1441  O3'       27.9510  -32.4380    5.5450 O.3    72  DT72       -0.3138
   1442  C2'       27.8130  -31.8820    7.8800 C.3    72  DT72        0.0866
   1443  C1'       28.3230  -30.6460    8.5980 C.3    72  DT72        0.2106
   1444  N1        27.2940  -29.6380    8.8690 N.ar   72  DT72       -0.2559
   1445  C2        26.3940  -29.9430    9.8730 C.ar   72  DT72        0.3545
   1446  O2        26.4270  -30.9880   10.4990 O.2    72  DT72       -0.2443
   1447  N3        25.4490  -28.9770   10.1190 N.ar   72  DT72       -0.1533
   1448  C4        25.3150  -27.7640    9.4760 C.ar   72  DT72        0.2804
   1449  O4        24.4140  -26.9980    9.8100 O.2    72  DT72       -0.2654
   1450  C5        26.2860  -27.5210    8.4460 C.ar   72  DT72        0.0534
   1451  C6        27.2160  -28.4440    8.1860 C.ar   72  DT72        0.0824
   1452  C7        26.2240  -26.2280    7.6880 C.3    72  DT72        0.0377
   1453  P         26.7390  -32.6220    4.7570 P.3    73  DT73        0.2141
   1454  OP1       27.1230  -33.4060    3.5490 O.2    73  DT73       -0.5172
   1455  OP2       25.8480  -31.4430    4.6150 O.3    73  DT73       -0.4373
   1456  O5'       26.1120  -33.6270    5.8170 O.3    73  DT73       -0.3114
   1457  C5'       26.8000  -34.8220    6.1570 C.3    73  DT73        0.1811
   1458  C4'       26.4670  -35.2150    7.5620 C.3    73  DT73        0.1746
   1459  O4'       26.6330  -34.0460    8.3760 O.3    73  DT73       -0.3327
   1460  C3'       25.0360  -35.6690    7.7810 C.3    73  DT73        0.1558
   1461  O3'       25.0670  -37.0840    7.7010 O.3    73  DT73       -0.3138
   1462  C2'       24.7550  -35.2670    9.2220 C.3    73  DT73        0.0866
   1463  C1'       25.6610  -34.0400    9.3940 C.3    73  DT73        0.2106
   1464  N1        24.9620  -32.7790    9.4670 N.ar   73  DT73       -0.2559
   1465  C2        24.3010  -32.3910   10.6170 C.ar   73  DT73        0.3545
   1466  O2        24.3020  -33.0530   11.6390 O.2    73  DT73       -0.2443
   1467  N3        23.6330  -31.1940   10.5270 N.ar   73  DT73       -0.1533
   1468  C4        23.5620  -30.3640    9.4270 C.ar   73  DT73        0.2804
   1469  O4        22.9220  -29.3180    9.4990 O.2    73  DT73       -0.2654
   1470  C5        24.2730  -30.8360    8.2730 C.ar   73  DT73        0.0534
   1471  C6        24.9310  -31.9970    8.3330 C.ar   73  DT73        0.0824
   1472  C7        24.2550  -30.0030    7.0250 C.3    73  DT73        0.0377
   1473  P         24.0870  -37.5930    7.6630 P.3    74  DC74        0.2141
   1474  OP1       24.2150  -39.0510    7.4030 O.3    74  DC74       -0.4373
   1475  OP2       23.6460  -36.6900    6.5660 O.2    74  DC74       -0.5172
   1476  O5'       23.1250  -37.3740    8.9210 O.3    74  DC74       -0.3114
   1477  C5'       23.3130  -38.1680   10.0960 C.3    74  DC74        0.1811
   1478  C4'       22.4880  -37.6620   11.2610 C.3    74  DC74        0.1744
   1479  O4'       22.7620  -36.2570   11.5270 O.3    74  DC74       -0.3348
   1480  C3'       20.9670  -37.7080   11.2120 C.3    74  DC74        0.1555
   1481  O3'       20.3900  -38.9940   11.4030 O.3    74  DC74       -0.3139
   1482  C2'       20.6040  -36.7900   12.3770 C.3    74  DC74        0.0836
   1483  C1'       21.6720  -35.7020   12.2590 C.3    74  DC74        0.2000
   1484  N1        21.1250  -34.5250   11.6020 N.pl3  74  DC74       -0.2128
   1485  C2        20.4710  -33.5800   12.4010 C.2    74  DC74        0.4380
   1486  O2        20.3000  -33.8320   13.6060 O.2    74  DC74       -0.2701
   1487  N3        20.0450  -32.4240   11.8400 N.2    74  DC74        0.0241
   1488  C4        20.2500  -32.1970   10.5420 C.2    74  DC74        0.4172
   1489  N4        19.8130  -31.0430   10.0330 N.pl3  74  DC74        0.2162
   1490  C5        20.9100  -33.1410    9.7150 C.2    74  DC74        0.0937
   1491  C6        21.3300  -34.2820   10.2730 C.3    74  DC74        0.1340
   1492  P         19.1420  -39.3480   10.6120 P.3    75  DA75        0.2141
   1493  OP1       18.7800  -40.7840   10.5490 O.3    75  DA75       -0.4373
   1494  OP2       19.2640  -38.5270    9.3850 O.2    75  DA75       -0.5172
   1495  O5'       18.0480  -38.5680   11.4790 O.3    75  DA75       -0.3114
   1496  C5'       17.7390  -38.9650   12.8040 C.3    75  DA75        0.1811
   1497  C4'       16.6430  -38.1070   13.3830 C.3    75  DA75        0.1746
   1498  O4'       17.0820  -36.7270   13.4480 O.3    75  DA75       -0.3327
   1499  C3'       15.3480  -38.0450   12.5880 C.3    75  DA75        0.1558
   1500  O3'       14.5150  -39.1680   12.8210 O.3    75  DA75       -0.3138
   1501  C2'       14.7370  -36.7330   13.0570 C.3    75  DA75        0.0865
   1502  C1'       15.9760  -35.8670   13.2840 C.3    75  DA75        0.2094
   1503  N9        16.2790  -34.8520   12.3520 N.ar   75  DA75       -0.2714
   1504  C8        16.5620  -35.0690   11.0290 C.ar   75  DA75        0.1815
   1505  N7        16.6880  -33.9670   10.3270 N.ar   75  DA75       -0.2193
   1506  C5        16.4710  -32.9580   11.2520 C.ar   75  DA75        0.1518
   1507  C6        16.4660  -31.5570   11.1400 C.ar   75  DA75        0.1919
   1508  N6        16.6960  -30.9060    9.9970 N.pl3  75  DA75       -0.1054
   1509  N1        16.2140  -30.8400   12.2560 N.ar   75  DA75       -0.2040
   1510  C2        15.9850  -31.4930   13.4010 C.ar   75  DA75        0.2016
   1511  N3        15.9640  -32.8030   13.6310 N.ar   75  DA75       -0.2048
   1512  C4        16.2170  -33.4880   12.5030 C.ar   75  DA75        0.1691
   1513  P         13.7900  -40.1000   11.5220 P.3    76  DA76        0.2141
   1514  OP1       12.7720  -41.1100   11.8930 O.3    76  DA76       -0.4373
   1515  OP2       14.9250  -40.4870   10.6570 O.2    76  DA76       -0.5172
   1516  O5'       13.0960  -38.8920   10.7370 O.3    76  DA76       -0.3114
   1517  C5'       11.7390  -38.6000   11.0310 C.3    76  DA76        0.1811
   1518  C4'       11.3930  -37.1480   10.8270 C.3    76  DA76        0.1746
   1519  O4'       12.5510  -36.3270   11.1130 O.3    76  DA76       -0.3327
   1520  C3'       11.0000  -36.7420    9.4160 C.3    76  DA76        0.1558
   1521  O3'        9.6690  -37.0820    9.0830 O.3    76  DA76       -0.3138
   1522  C2'       11.2770  -35.2440    9.4290 C.3    76  DA76        0.0865
   1523  C1'       12.5480  -35.1890   10.2780 C.3    76  DA76        0.2094
   1524  N9        13.9200  -35.1860    9.4300 N.ar   76  DA76       -0.2714
   1525  C8        14.9680  -35.9950    9.7830 C.ar   76  DA76        0.1815
   1526  N7        16.0830  -35.7240    9.1480 N.ar   76  DA76       -0.2193
   1527  C5        15.7450  -34.6650    8.3210 C.ar   76  DA76        0.1518
   1528  C6        16.4870  -33.9160    7.3910 C.ar   76  DA76        0.1919
   1529  N6        17.7790  -34.1320    7.1300 N.pl3  76  DA76       -0.1054
   1530  N1        15.8490  -32.9270    6.7300 N.ar   76  DA76       -0.2040
   1531  C2        14.5550  -32.7110    6.9930 C.ar   76  DA76        0.2016
   1532  N3        13.7520  -33.3460    7.8430 N.ar   76  DA76       -0.2048
   1533  C4        14.4150  -34.3230    8.4830 C.ar   76  DA76        0.1691
   1534  P          9.4740  -38.4420    8.1100 P.3    77  DT77        0.2141
   1535  OP1        8.0150  -38.6870    8.2270 O.3    77  DT77       -0.4373
   1536  OP2       10.3880  -39.5680    7.7930 O.2    77  DT77       -0.5172
   1537  O5'        9.6900  -37.3140    7.0130 O.3    77  DT77       -0.3114
   1538  C5'        8.9130  -36.1360    7.0340 C.3    77  DT77        0.1811
   1539  C4'        9.3980  -35.1980    5.9660 C.3    77  DT77        0.1746
   1540  O4'       10.7370  -34.7480    6.2940 O.3    77  DT77       -0.3327
   1541  C3'        9.5590  -35.8380    4.6010 C.3    77  DT77        0.1558
   1542  O3'        8.3180  -35.8920    3.9220 O.3    77  DT77       -0.3138
   1543  C2'       10.5560  -34.9040    3.9340 C.3    77  DT77        0.0866
   1544  C1'       11.4880  -34.5870    5.1020 C.3    77  DT77        0.2106
   1545  N1        12.6370  -35.4810    5.1360 N.ar   77  DT77       -0.2559
   1546  C2        13.7220  -35.1180    4.3610 C.ar   77  DT77        0.3545
   1547  O2        13.7720  -34.0730    3.7360 O.2    77  DT77       -0.2443
   1548  N3        14.7530  -36.0260    4.3440 N.ar   77  DT77       -0.1533
   1549  C4        14.8060  -37.2330    5.0080 C.ar   77  DT77        0.2804
   1550  O4        15.8030  -37.9420    4.8950 O.2    77  DT77       -0.2654
   1551  C5        13.6420  -37.5390    5.7900 C.ar   77  DT77        0.0534
   1552  C6        12.6250  -36.6740    5.8250 C.ar   77  DT77        0.0824
   1553  C7        13.6040  -38.8320    6.5500 C.3    77  DT77        0.0377
   1554  P          7.9890  -36.9840    2.5170 P.3    78  DT78        0.2141
   1555  OP1        6.8090  -37.8680    2.3440 O.2    78  DT78       -0.5172
   1556  OP2        9.3360  -37.5810    2.7370 O.3    78  DT78       -0.4373
   1557  O5'        8.0640  -35.9980    1.2690 O.3    78  DT78       -0.3114
   1558  C5'        8.8310  -36.3320    0.1010 C.3    78  DT78        0.1811
   1559  C4'        9.0160  -35.1050   -0.7530 C.3    78  DT78        0.1746
   1560  O4'        7.7200  -34.6260   -1.1870 O.3    78  DT78       -0.3327
   1561  C3'        9.6450  -33.9220   -0.0380 C.3    78  DT78        0.1558
   1562  O3'       11.0630  -34.0410   -0.1050 O.3    78  DT78       -0.3138
   1563  C2'        9.1280  -32.7360   -0.8430 C.3    78  DT78        0.0866
   1564  C1'        7.7200  -33.2110   -1.2190 C.3    78  DT78        0.2106
   1565  N1         6.6430  -32.7930   -0.5780 N.ar   78  DT78       -0.2559
   1566  C2         6.0430  -31.6280   -1.0180 C.ar   78  DT78        0.3545
   1567  O2         6.1870  -31.1930   -2.1470 O.2    78  DT78       -0.2443
   1568  N3         5.2650  -30.9870   -0.0850 N.ar   78  DT78       -0.1533
   1569  C4         5.0310  -31.3840    1.2150 C.ar   78  DT78        0.2804
   1570  O4         4.3060  -30.7020    1.9350 O.2    78  DT78       -0.2654
   1571  C5         5.6900  -32.6020    1.5970 C.ar   78  DT78        0.0534
   1572  C6         6.4520  -33.2460    0.7090 C.ar   78  DT78        0.0824
   1573  C7         5.4990  -33.1170    2.9930 C.3    78  DT78        0.0377
   1574  P         11.7800  -33.4240    0.9970 P.3    79  DA79        0.2141
   1575  OP1       13.0270  -34.1620    1.3190 O.2    79  DA79       -0.5172
   1576  OP2       11.0130  -32.7960    2.0850 O.3    79  DA79       -0.4373
   1577  O5'       12.1920  -32.3100   -0.0490 O.3    79  DA79       -0.3114
   1578  C5'       12.7830  -31.1260    0.3870 C.3    79  DA79        0.1811
   1579  C4'       12.3920  -30.0080   -0.5150 C.3    79  DA79        0.1746
   1580  O4'       11.0220  -30.1580   -0.9750 O.3    79  DA79       -0.3327
   1581  C3'       12.3490  -28.7240    0.2640 C.3    79  DA79        0.1558
   1582  O3'       13.6570  -28.2750    0.5020 O.3    79  DA79       -0.3138
   1583  C2'       11.4670  -27.8600   -0.6180 C.3    79  DA79        0.0865
   1584  C1'       10.4070  -28.8770   -1.0370 C.3    79  DA79        0.2094
   1585  N9         9.2810  -28.9500   -0.2240 N.ar   79  DA79       -0.2714
   1586  C8         9.1350  -29.8400    0.8080 C.ar   79  DA79        0.1815
   1587  N7         8.0500  -29.6480    1.5210 N.ar   79  DA79       -0.2193
   1588  C5         7.4440  -28.5580    0.9170 C.ar   79  DA79        0.1518
   1589  C6         6.2570  -27.8600    1.1980 C.ar   79  DA79        0.1919
   1590  N6         5.4350  -28.1730    2.2030 N.pl3  79  DA79       -0.1054
   1591  N1         5.9390  -26.8170    0.4020 N.ar   79  DA79       -0.2040
   1592  C2         6.7630  -26.5050   -0.6060 C.ar   79  DA79        0.2016
   1593  N3         7.9040  -27.0850   -0.9700 N.ar   79  DA79       -0.2048
   1594  C4         8.1910  -28.1170   -0.1580 C.ar   79  DA79        0.1691
   1595  P         13.9790  -27.5350    1.9440 P.3    80  DG80        0.2141
   1596  OP1       15.3610  -27.0110    1.8740 O.2    80  DG80       -0.5172
   1597  OP2       13.5460  -28.3150    3.1310 O.3    80  DG80       -0.4373
   1598  O5'       13.0210  -26.2810    1.7410 O.3    80  DG80       -0.3114
   1599  C5'       13.2580  -25.3870    0.6620 C.3    80  DG80        0.1811
   1600  C4'       12.0590  -24.4940    0.4170 C.3    80  DG80        0.1746
   1601  O4'       10.8840  -25.3210    0.2370 O.3    80  DG80       -0.3327
   1602  C3'       11.6290  -23.4820    1.4740 C.3    80  DG80        0.1558
   1603  O3'       12.3880  -22.2800    1.4180 O.3    80  DG80       -0.3138
   1604  C2'       10.1860  -23.2030    1.0740 C.3    80  DG80        0.0865
   1605  C1'        9.7300  -24.5710    0.5620 C.3    80  DG80        0.2094
   1606  N9         8.9470  -25.3120    1.5500 N.ar   80  DG80       -0.2713
   1607  C8         9.2630  -26.4940    2.1750 C.ar   80  DG80        0.1816
   1608  N7         8.3060  -26.9430    2.9410 N.ar   80  DG80       -0.2173
   1609  C5         7.2980  -26.0050    2.8160 C.ar   80  DG80        0.1748
   1610  C6         6.0120  -25.9470    3.4120 C.ar   80  DG80        0.3023
   1611  O6         5.4950  -26.7510    4.1980 O.2    80  DG80       -0.2633
   1612  N1         5.3030  -24.8170    3.0130 N.ar   80  DG80       -0.1709
   1613  C2         5.7760  -23.8600    2.1470 C.ar   80  DG80        0.2606
   1614  N2         4.9460  -22.8420    1.8810 N.pl3  80  DG80       -0.0859
   1615  N3         6.9690  -23.9000    1.5870 N.ar   80  DG80       -0.1918
   1616  C4         7.6750  -24.9880    1.9600 C.ar   80  DG80        0.1722
   1617  P         12.5540  -21.3140    2.7560 P.3    81  DA81        0.2141
   1618  OP1       13.6730  -20.3500    2.7350 O.2    81  DA81       -0.5172
   1619  OP2       12.6220  -22.4840    3.6510 O.3    81  DA81       -0.4373
   1620  O5'       11.1670  -20.5930    3.0550 O.3    81  DA81       -0.3114
   1621  C5'       10.8820  -19.3250    2.4570 C.3    81  DA81        0.1811
   1622  C4'        9.4160  -19.0160    2.5580 C.3    81  DA81        0.1746
   1623  O4'        8.7040  -20.2520    2.3780 O.3    81  DA81       -0.3327
   1624  C3'        8.9300  -18.5680    3.9090 C.3    81  DA81        0.1558
   1625  O3'        9.1660  -17.1840    4.0860 O.3    81  DA81       -0.3138
   1626  C2'        7.4480  -18.8590    3.8050 C.3    81  DA81        0.0865
   1627  C1'        7.4690  -20.1920    3.0520 C.3    81  DA81        0.2094
   1628  N9         7.4180  -21.3400    4.0030 N.ar   81  DA81       -0.2714
   1629  C8         8.4730  -22.1900    4.2100 C.ar   81  DA81        0.1815
   1630  N7         8.1930  -23.1990    5.0000 N.ar   81  DA81       -0.2193
   1631  C5         6.8630  -22.9970    5.3360 C.ar   81  DA81        0.1518
   1632  C6         5.9730  -23.7210    6.1490 C.ar   81  DA81        0.1919
   1633  N6         6.3060  -24.8410    6.7950 N.pl3  81  DA81       -0.1054
   1634  N1         4.7150  -23.2480    6.2750 N.ar   81  DA81       -0.2040
   1635  C2         4.3820  -22.1260    5.6260 C.ar   81  DA81        0.2016
   1636  N3         5.1290  -21.3600    4.8350 N.ar   81  DA81       -0.2048
   1637  C4         6.3730  -21.8560    4.7310 C.ar   81  DA81        0.1691
   1638  P          9.4690  -16.6560    5.4470 P.3    82  DT82        0.2141
   1639  OP1       10.2910  -15.4230    5.2390 O.2    82  DT82       -0.5172
   1640  OP2       10.1470  -17.9490    5.7790 O.3    82  DT82       -0.4373
   1641  O5'        8.3980  -16.4390    6.5960 O.3    82  DT82       -0.3114
   1642  C5'        7.2250  -15.6900    6.3870 C.3    82  DT82        0.1811
   1643  C4'        6.1990  -16.0600    7.4310 C.3    82  DT82        0.1746
   1644  O4'        5.5340  -17.2990    7.0670 O.3    82  DT82       -0.3327
   1645  C3'        6.7140  -16.3060    8.8430 C.3    82  DT82        0.1558
   1646  O3'        6.9270  -15.0930    9.5830 O.3    82  DT82       -0.3138
   1647  C2'        5.6010  -17.1630    9.4440 C.3    82  DT82        0.0866
   1648  C1'        5.1260  -17.9770    8.2380 C.3    82  DT82        0.2106
   1649  N1         5.6590  -19.3260    8.2550 N.ar   82  DT82       -0.2559
   1650  C2         5.0080  -20.2740    9.0220 C.ar   82  DT82        0.3545
   1651  O2         3.9950  -20.0340    9.6550 O.2    82  DT82       -0.2443
   1652  N3         5.5880  -21.5190    9.0210 N.ar   82  DT82       -0.1533
   1653  C4         6.7280  -21.9030    8.3470 C.ar   82  DT82        0.2804
   1654  O4         7.1270  -23.0610    8.4440 O.2    82  DT82       -0.2654
   1655  C5         7.3470  -20.8630    7.5740 C.ar   82  DT82        0.0534
   1656  C6         6.8040  -19.6430    7.5570 C.ar   82  DT82        0.0824
   1657  C7         8.5940  -21.1820    6.8040 C.3    82  DT82        0.0377
   1658  P          7.9590  -15.1010   10.9030 P.3    83  DA83        0.2141
   1659  OP1        7.9380  -13.6230   10.9920 O.3    83  DA83       -0.4373
   1660  OP2        8.9960  -15.7890   10.0980 O.2    83  DA83       -0.5172
   1661  O5'        8.1150  -15.7310   12.3660 O.3    83  DA83       -0.3114
   1662  C5'        7.2300  -15.3480   13.4110 C.3    83  DA83        0.1812
   1663  C4'        7.4670  -16.1600   14.6600 C.3    83  DA83        0.1775
   1664  O4'        7.1940  -17.5590   14.3840 O.3    83  DA83       -0.3326
   1665  C3'        8.8920  -16.1530   15.1950 C.3    83  DA83        0.1859
   1666  O3'        9.1860  -15.0220   15.9980 O.3    83  DA83       -0.2202
   1667  C2'        8.9680  -17.4700   15.9550 C.3    83  DA83        0.0894
   1668  C1'        8.1230  -18.3760   15.0600 C.3    83  DA83        0.2095
   1669  N9         9.1270  -19.0470   14.1640 N.ar   83  DA83       -0.2714
   1670  C8         9.3740  -18.8130   12.8370 C.ar   83  DA83        0.1815
   1671  N7        10.2280  -19.6530   12.3010 N.ar   83  DA83       -0.2193
   1672  C5        10.5650  -20.4960   13.3480 C.ar   83  DA83        0.1518
   1673  C6        11.4300  -21.6010   13.4320 C.ar   83  DA83        0.1919
   1674  N6        12.1390  -22.0640   12.4000 N.pl3  83  DA83       -0.1054
   1675  N1        11.5410  -22.2210   14.6260 N.ar   83  DA83       -0.2040
   1676  C2        10.8280  -21.7560   15.6590 C.ar   83  DA83        0.2016
   1677  N3         9.9840  -20.7290   15.7040 N.ar   83  DA83       -0.2048
   1678  C4         9.8960  -20.1340   14.5020 C.ar   83  DA83        0.1691
   1679  P          9.9520  -13.6460   15.2870 P.3    84  DG84        0.4149
   1680  OP1       10.0430  -12.3560   16.0160 O.2    84  DG84       -0.2668
   1681  OP2       10.7530  -13.8500   14.0490 O.3    84  DG84       -0.1481
   1682  O5'       10.3260  -14.8100   16.3080 O.3    84  DG84       -0.2177
   1683  C5'       10.0550  -14.6700   17.6990 C.3    84  DG84        0.2140
   1684  C4'       10.9020  -15.6330   18.4960 C.3    84  DG84        0.1776
   1685  O4'       10.5870  -16.9910   18.0850 O.3    84  DG84       -0.3326
   1686  C3'       12.4080  -15.5470   18.2980 C.3    84  DG84        0.1559
   1687  O3'       13.0000  -14.5080   19.0740 O.3    84  DG84       -0.3138
   1688  C2'       12.8540  -16.9210   18.7790 C.3    84  DG84        0.0865
   1689  C1'       11.7400  -17.8080   18.2230 C.3    84  DG84        0.2094
   1690  N9        12.1220  -18.3640   16.9020 N.ar   84  DG84       -0.2713
   1691  C8        11.6430  -18.0350   15.6570 C.ar   84  DG84        0.1816
   1692  N7        12.1650  -18.7510   14.6990 N.ar   84  DG84       -0.2173
   1693  C5        13.0380  -19.6060   15.3450 C.ar   84  DG84        0.1748
   1694  C6        13.8920  -20.6160   14.8310 C.ar   84  DG84        0.3023
   1695  O6        14.0450  -20.9620   13.6530 O.2    84  DG84       -0.2633
   1696  N1        14.6140  -21.2490   15.8380 N.ar   84  DG84       -0.1709
   1697  C2        14.5250  -20.9480   17.1760 C.ar   84  DG84        0.2606
   1698  N2        15.3000  -21.6690   17.9970 N.pl3  84  DG84       -0.0859
   1699  N3        13.7360  -20.0130   17.6680 N.ar   84  DG84       -0.1918
   1700  C4        13.0260  -19.3830   16.7090 C.ar   84  DG84        0.1722
   1701  P         14.5360  -14.0590   18.7750 P.3    85  DT85        0.2141
   1702  OP1       14.8190  -12.8300   19.5500 O.3    85  DT85       -0.4373
   1703  OP2       14.4710  -14.0230   17.2960 O.2    85  DT85       -0.5172
   1704  O5'       15.6680  -15.1480   19.0880 O.3    85  DT85       -0.3114
   1705  C5'       15.9190  -15.5780   20.4180 C.3    85  DT85        0.1811
   1706  C4'       16.7420  -16.8430   20.4410 C.3    85  DT85        0.1746
   1707  O4'       16.1560  -17.8150   19.5370 O.3    85  DT85       -0.3327
   1708  C3'       18.1810  -16.7090   19.9700 C.3    85  DT85        0.1558
   1709  O3'       19.0500  -16.2560   20.9970 O.3    85  DT85       -0.3138
   1710  C2'       18.5130  -18.1110   19.4730 C.3    85  DT85        0.0866
   1711  C1'       17.1670  -18.5820   18.9160 C.3    85  DT85        0.2106
   1712  N1        16.8530  -18.4630   17.4010 N.ar   85  DT85       -0.2559
   1713  C2        17.6030  -19.2730   16.5690 C.ar   85  DT85        0.3545
   1714  O2        18.4300  -20.0650   16.9840 O.2    85  DT85       -0.2443
   1715  N3        17.3500  -19.1210   15.2280 N.ar   85  DT85       -0.1533
   1716  C4        16.4420  -18.2600   14.6470 C.ar   85  DT85        0.2804
   1717  O4        16.3260  -18.2380   13.4240 O.2    85  DT85       -0.2654
   1718  C5        15.7030  -17.4520   15.5760 C.ar   85  DT85        0.0534
   1719  C6        15.9290  -17.5800   16.8860 C.ar   85  DT85        0.0824
   1720  C7        14.6910  -16.4820   15.0420 C.3    85  DT85        0.0377
   1721  P         20.2770  -15.3180   20.6130 P.3    86  DA86        0.2141
   1722  OP1       20.7430  -14.5790   21.8030 O.3    86  DA86       -0.4373
   1723  OP2       20.7870  -14.9510   19.2690 O.2    86  DA86       -0.5172
   1724  O5'       20.5610  -16.8730   20.8350 O.3    86  DA86       -0.3114
   1725  C5'       21.8960  -17.3480   20.8320 C.3    86  DA86        0.1811
   1726  C4'       22.3690  -17.7540   19.4400 C.3    86  DA86        0.1746
   1727  O4'       23.4050  -18.7630   19.5920 O.3    86  DA86       -0.3327
   1728  C3'       21.3210  -18.3500   18.4930 C.3    86  DA86        0.1558
   1729  O3'       21.6940  -18.0740   17.1460 O.3    86  DA86       -0.3138
   1730  C2'       21.4800  -19.8420   18.7630 C.3    86  DA86        0.0865
   1731  C1'       22.9920  -19.9350   18.9320 C.3    86  DA86        0.2094
   1732  N9        23.3050  -20.9350   19.5410 N.ar   86  DA86       -0.2714
   1733  C8        22.3720  -21.2130   20.5050 C.ar   86  DA86        0.1815
   1734  N7        22.0820  -22.4880   20.6100 N.ar   86  DA86       -0.2193
   1735  C5        22.8790  -23.0890   19.6470 C.ar   86  DA86        0.1518
   1736  C6        23.0390  -24.4290   19.2540 C.ar   86  DA86        0.1919
   1737  N6        22.3760  -25.4460   19.8080 N.pl3  86  DA86       -0.1054
   1738  N1        23.9150  -24.6900   18.2600 N.ar   86  DA86       -0.2040
   1739  C2        24.5800  -23.6700   17.7060 C.ar   86  DA86        0.2016
   1740  N3        24.5150  -22.3710   17.9900 N.ar   86  DA86       -0.2048
   1741  C4        23.6360  -22.1450   18.9800 C.ar   86  DA86        0.1691
   1742  P         20.8290  -17.3900   16.3280 P.3    87  DA87        0.2141
   1743  OP1       19.9540  -16.3620   15.7150 O.2    87  DA87       -0.5172
   1744  OP2       20.4350  -18.8150   16.2270 O.3    87  DA87       -0.4373
   1745  O5'       22.3180  -17.2110   15.7630 O.3    87  DA87       -0.3114
   1746  C5'       22.5920  -17.2970   14.3770 C.3    87  DA87        0.1811
   1747  C4'       23.2330  -18.6260   14.0210 C.3    87  DA87        0.1746
   1748  O4'       23.4730  -19.4680   15.1780 O.3    87  DA87       -0.3327
   1749  C3'       22.3790  -19.5390   13.1600 C.3    87  DA87        0.1558
   1750  O3'       22.2910  -19.0720   11.8240 O.3    87  DA87       -0.3138
   1751  C2'       23.1960  -20.8180   13.2420 C.3    87  DA87        0.0865
   1752  C1'       23.6780  -20.7860   14.6910 C.3    87  DA87        0.2094
   1753  N9        23.0390  -21.7720   15.1570 N.ar   87  DA87       -0.2714
   1754  C8        21.9560  -21.4420   15.9280 C.ar   87  DA87        0.1815
   1755  N7        21.4000  -22.4680   16.5280 N.ar   87  DA87       -0.2191
   1756  C5        22.1700  -23.5460   16.1210 C.ar   87  DA87        0.1545
   1757  C6        22.0990  -24.9210   16.4080 C.ar   87  DA87        0.2060
   1758  N6        21.1770  -25.4630   17.2080 N.2    87  DA87       -0.1252
   1759  N1        23.0200  -25.7280   15.8390 N.ar   87  DA87       -0.2017
   1760  C2        23.9440  -25.1840   15.0390 C.ar   87  DA87        0.2017
   1761  N3        24.1130  -23.9090   14.6950 N.ar   87  DA87       -0.2048
   1762  C4        23.1820  -23.1330   15.2760 C.ar   87  DA87        0.1693
   1763  P         20.9140  -19.2720   10.9870 P.3    88  DG88        0.2141
   1764  OP1       20.6680  -18.3840    9.8340 O.2    88  DG88       -0.5172
   1765  OP2       20.0670  -19.1440   12.1970 O.3    88  DG88       -0.4373
   1766  O5'       20.8270  -20.8000   10.5140 O.3    88  DG88       -0.3114
   1767  C5'       21.8000  -21.3470    9.6250 C.3    88  DG88        0.1811
   1768  C4'       21.8160  -22.8680    9.6270 C.3    88  DG88        0.1746
   1769  O4'       22.4170  -23.3950   10.8410 O.3    88  DG88       -0.3327
   1770  C3'       20.4500  -23.5330    9.5890 C.3    88  DG88        0.1558
   1771  O3'       19.8980  -23.4800    8.2850 O.3    88  DG88       -0.3138
   1772  C2'       20.8100  -24.9340   10.0720 C.3    88  DG88        0.0865
   1773  C1'       21.7100  -24.5580   11.2480 C.3    88  DG88        0.2094
   1774  N9        20.9260  -24.2700   12.5240 N.ar   88  DG88       -0.2713
   1775  C8        20.8260  -23.0700   13.1850 C.ar   88  DG88        0.1816
   1776  N7        20.1380  -23.1470   14.2920 N.ar   88  DG88       -0.2173
   1777  C5        19.7620  -24.4750   14.3700 C.ar   88  DG88        0.1748
   1778  C6        18.9980  -25.1620   15.3490 C.ar   88  DG88        0.3023
   1779  O6        18.4870  -24.7070   16.3800 O.2    88  DG88       -0.2633
   1780  N1        18.8490  -26.5110   15.0400 N.ar   88  DG88       -0.1709
   1781  C2        19.3720  -27.1230   13.9260 C.ar   88  DG88        0.2606
   1782  N2        19.1230  -28.4340   13.8000 N.pl3  88  DG88       -0.0859
   1783  N3        20.0830  -26.4980   13.0080 N.ar   88  DG88       -0.1918
   1784  C4        20.2390  -25.1860   13.2870 C.ar   88  DG88        0.1722
   1785  P         18.5250  -23.1030    8.1780 P.3    89  DT89        0.2141
   1786  OP1       18.0500  -23.2390    6.7690 O.2    89  DT89       -0.5172
   1787  OP2       17.9130  -22.0930    9.0720 O.3    89  DT89       -0.4373
   1788  O5'       18.4440  -24.5530    8.8250 O.3    89  DT89       -0.3114
   1789  C5'       18.9440  -25.6780    8.1100 C.3    89  DT89        0.1811
   1790  C4'       18.3070  -26.9500    8.6050 C.3    89  DT89        0.1746
   1791  O4'       18.6340  -27.1300   10.0080 O.3    89  DT89       -0.3327
   1792  C3'       16.7860  -26.9870    8.5790 C.3    89  DT89        0.1558
   1793  O3'       16.2950  -27.3560    7.2990 O.3    89  DT89       -0.3138
   1794  C2'       16.4800  -28.0470    9.6270 C.3    89  DT89        0.0866
   1795  C1'       17.5480  -27.7500   10.6720 C.3    89  DT89        0.2106
   1796  N1        17.0560  -26.6680   11.7180 N.ar   89  DT89       -0.2559
   1797  C2        16.4440  -27.2220   12.8270 C.ar   89  DT89        0.3545
   1798  O2        16.3870  -28.4230   13.0230 O.2    89  DT89       -0.2443
   1799  N3        15.8960  -26.3160   13.7020 N.ar   89  DT89       -0.1533
   1800  C4        15.8990  -24.9410   13.5840 C.ar   89  DT89        0.2804
   1801  O4        15.3660  -24.2580   14.4540 O.2    89  DT89       -0.2654
   1802  C5        16.5530  -24.4430   12.4060 C.ar   89  DT89        0.0534
   1803  C6        17.0940  -25.3020   11.5380 C.ar   89  DT89        0.0824
   1804  C7        16.6090  -22.9600   12.1860 C.3    89  DT89        0.0377
   1805  P         14.7270  -26.9460    6.8430 P.3    90  DG90        0.2141
   1806  OP1       14.2500  -27.4650    5.5430 O.2    90  DG90       -0.5172
   1807  OP2       14.5380  -25.5080    7.1630 O.3    90  DG90       -0.4373
   1808  O5'       14.0530  -27.8750    7.9510 O.3    90  DG90       -0.3114
   1809  C5'       14.3260  -29.2800    7.9590 C.3    90  DG90        0.1811
   1810  C4'       13.6130  -29.9690    9.0940 C.3    90  DG90        0.1746
   1811  O4'       14.2460  -29.5990   10.3350 O.3    90  DG90       -0.3327
   1812  C3'       12.1350  -29.6520    9.2770 C.3    90  DG90        0.1558
   1813  O3'       11.2940  -30.5180    8.5200 O.3    90  DG90       -0.3138
   1814  C2'       11.9200  -29.9060   10.7620 C.3    90  DG90        0.0865
   1815  C1'       13.2680  -29.4920   11.3520 C.3    90  DG90        0.2094
   1816  N9        13.2280  -28.1010   11.8270 N.ar   90  DG90       -0.2713
   1817  C8        13.5980  -26.9630   11.1520 C.ar   90  DG90        0.1816
   1818  N7        13.3150  -25.8650   11.7980 N.ar   90  DG90       -0.2173
   1819  C5        12.7250  -26.2990   12.9700 C.ar   90  DG90        0.1748
   1820  C6        12.2050  -25.5670   14.0690 C.ar   90  DG90        0.3023
   1821  O6        12.1670  -24.3400   14.2230 O.2    90  DG90       -0.2633
   1822  N1        11.6920  -26.4040   15.0560 N.ar   90  DG90       -0.1709
   1823  C2        11.6810  -27.7770   14.9930 C.ar   90  DG90        0.2606
   1824  N2        11.1440  -28.4130   16.0430 N.pl3  90  DG90       -0.0859
   1825  N3        12.1590  -28.4710   13.9790 N.ar   90  DG90       -0.1918
   1826  C4        12.6610  -27.6790   13.0080 C.ar   90  DG90        0.1722
   1827  P          9.6250  -30.1890    8.3880 P.3    91  DC91        0.2141
   1828  OP1        9.1990  -31.3660    7.5720 O.2    91  DC91       -0.5172
   1829  OP2        9.5390  -28.7440    7.9750 O.3    91  DC91       -0.4373
   1830  O5'        8.9920  -30.2730    9.8660 O.3    91  DC91       -0.3114
   1831  C5'        8.7680  -31.5900   10.3750 C.3    91  DC91        0.1811
   1832  C4'        8.3610  -31.6160   11.8250 C.3    91  DC91        0.1746
   1833  O4'        9.2340  -30.7410   12.5530 O.3    91  DC91       -0.3327
   1834  C3'        7.0350  -31.0120   12.1860 C.3    91  DC91        0.1558
   1835  O3'        6.0470  -31.9440   12.0070 O.3    91  DC91       -0.3138
   1836  C2'        7.1640  -30.7680   13.6630 C.3    91  DC91        0.0866
   1837  C1'        8.5360  -30.1220   13.6230 C.3    91  DC91        0.2106
   1838  N1         8.5050  -28.5920   13.3280 N.ar   91  DC91       -0.2556
   1839  C2         8.1750  -27.7020   14.3570 C.ar   91  DC91        0.3531
   1840  O2         7.8130  -28.1640   15.4530 O.2    91  DC91       -0.2443
   1841  N3         8.2580  -26.3700   14.1290 N.ar   91  DC91       -0.1739
   1842  C4         8.6500  -25.9200   12.9360 C.ar   91  DC91        0.1759
   1843  N4         8.7170  -24.5990   12.7580 N.pl3  91  DC91       -0.1070
   1844  C5         8.9890  -26.8050   11.8800 C.ar   91  DC91        0.0566
   1845  C6         8.9060  -28.1200   12.1100 C.ar   91  DC91        0.0849
   1846  P          4.7270  -31.3950   11.4070 P.3    92  DA92        0.2141
   1847  OP1        3.7270  -32.4050   10.9920 O.3    92  DA92       -0.4373
   1848  OP2        5.1630  -30.3520   10.4580 O.2    92  DA92       -0.5172
   1849  O5'        4.1850  -30.6710   12.7160 O.3    92  DA92       -0.3114
   1850  C5'        3.9130  -31.4470   13.8640 C.3    92  DA92        0.1811
   1851  C4'        3.5370  -30.5330   15.0100 C.3    92  DA92        0.1746
   1852  O4'        4.6140  -29.5990   15.2540 O.3    92  DA92       -0.3327
   1853  C3'        2.3480  -29.6320   14.7300 C.3    92  DA92        0.1558
   1854  O3'        1.1320  -30.3170   14.9650 O.3    92  DA92       -0.3138
   1855  C2'        2.5780  -28.5370   15.7600 C.3    92  DA92        0.0865
   1856  C1'        4.0880  -28.3450   15.6300 C.3    92  DA92        0.2094
   1857  N9         4.3530  -27.3380   14.6330 N.ar   92  DA92       -0.2714
   1858  C8         4.8460  -27.5450   13.3710 C.ar   92  DA92        0.1815
   1859  N7         5.0340  -26.4400   12.6890 N.ar   92  DA92       -0.2193
   1860  C5         4.6370  -25.4400   13.5630 C.ar   92  DA92        0.1518
   1861  C6         4.5940  -24.0400   13.4410 C.ar   92  DA92        0.1919
   1862  N6         4.9720  -23.3810   12.3430 N.pl3  92  DA92       -0.1054
   1863  N1         4.1440  -23.3320   14.4990 N.ar   92  DA92       -0.2040
   1864  C2         3.7670  -23.9930   15.6000 C.ar   92  DA92        0.2016
   1865  N3         3.7630  -25.3030   15.8340 N.ar   92  DA92       -0.2048
   1866  C4         4.2140  -25.9780   14.7630 C.ar   92  DA92        0.1691
   1867  P          0.2180  -30.1840   14.0120 P.3    93  DA93        0.2141
   1868  OP1       -0.9100  -31.0600   14.4040 O.3    93  DA93       -0.4373
   1869  OP2        1.2010  -30.6620   13.0100 O.2    93  DA93       -0.5172
   1870  O5'       -0.3810  -28.7640   13.5620 O.3    93  DA93       -0.3114
   1871  C5'       -1.0480  -27.9560   14.5340 C.3    93  DA93        0.1811
   1872  C4'       -0.8230  -26.4670   14.3210 C.3    93  DA93        0.1746
   1873  O4'        0.5730  -26.0990   14.4850 O.3    93  DA93       -0.3327
   1874  C3'       -1.1460  -25.9370   12.9350 C.3    93  DA93        0.1558
   1875  O3'       -2.5430  -25.8340   12.7400 O.3    93  DA93       -0.3138
   1876  C2'       -0.4800  -24.5750   13.0330 C.3    93  DA93        0.0865
   1877  C1'        0.8530  -24.9920   13.6410 C.3    93  DA93        0.2094
   1878  N9         1.8290  -25.4240   12.6250 N.ar   93  DA93       -0.2714
   1879  C8         2.2800  -26.7110   12.4860 C.ar   93  DA93        0.1815
   1880  N7         3.2380  -26.8430   11.5990 N.ar   93  DA93       -0.2193
   1881  C5         3.4290  -25.5560   11.1230 C.ar   93  DA93        0.1518
   1882  C6         4.3070  -25.0230   10.1620 C.ar   93  DA93        0.1919
   1883  N6         5.1930  -25.7550    9.4840 N.pl3  93  DA93       -0.1054
   1884  N1         4.2410  -23.6960    9.9210 N.ar   93  DA93       -0.2040
   1885  C2         3.3540  -22.9630   10.6030 C.ar   93  DA93        0.2016
   1886  N3         2.4780  -23.3480   11.5280 N.ar   93  DA93       -0.2048
   1887  C4         2.5680  -24.6710   11.7440 C.ar   93  DA93        0.1691
   1888  P         -3.0920  -26.3330   11.3330 P.3    94  DT94        0.2141
   1889  OP1       -4.5730  -26.3650   11.2350 O.3    94  DT94       -0.4373
   1890  OP2       -2.3040  -27.4530   10.7650 O.2    94  DT94       -0.5172
   1891  O5'       -2.5620  -25.0130   10.6240 O.3    94  DT94       -0.3114
   1892  C5'       -3.2090  -23.7720   10.8190 C.3    94  DT94        0.1811
   1893  C4'       -2.7630  -22.8210    9.7580 C.3    94  DT94        0.1746
   1894  O4'       -1.3870  -22.4480   10.0030 O.3    94  DT94       -0.3327
   1895  C3'       -2.7290  -23.4380    8.3770 C.3    94  DT94        0.1558
   1896  O3'       -3.9860  -23.4030    7.7420 O.3    94  DT94       -0.3138
   1897  C2'       -1.7170  -22.5670    7.6550 C.3    94  DT94        0.0866
   1898  C1'       -0.6970  -22.3220    8.7680 C.3    94  DT94        0.2106
   1899  N1         0.3990  -23.3090    8.8250 N.ar   94  DT94       -0.2559
   1900  C2         1.5190  -22.9800    8.0850 C.ar   94  DT94        0.3545
   1901  O2         1.7080  -21.8670    7.6260 O.2    94  DT94       -0.2443
   1902  N3         2.4140  -24.0050    7.8980 N.ar   94  DT94       -0.1533
   1903  C4         2.3050  -25.2980    8.3670 C.ar   94  DT94        0.2804
   1904  O4         3.1930  -26.1090    8.1180 O.2    94  DT94       -0.2654
   1905  C5         1.1140  -25.5610    9.1260 C.ar   94  DT94        0.0534
   1906  C6         0.2270  -24.5820    9.3220 C.ar   94  DT94        0.0824
   1907  C7         0.9020  -26.9390    9.6790 C.3    94  DT94        0.0377
   1908  P         -4.2420  -24.2630    6.3400 P.3    95  DC95        0.2141
   1909  OP1       -5.6910  -24.2190    6.0250 O.2    95  DC95       -0.5172
   1910  OP2       -3.6370  -25.5240    6.8390 O.3    95  DC95       -0.4373
   1911  O5'       -3.4410  -23.7950    5.0460 O.3    95  DC95       -0.3114
   1912  C5'       -3.6560  -22.4870    4.4900 C.3    95  DC95        0.1811
   1913  C4'       -2.5280  -22.1200    3.5550 C.3    95  DC95        0.1746
   1914  O4'       -1.2730  -22.1160    4.2870 O.3    95  DC95       -0.3327
   1915  C3'       -2.2630  -23.0740    2.4020 C.3    95  DC95        0.1558
   1916  O3'       -3.1620  -22.8710    1.3140 O.3    95  DC95       -0.3138
   1917  C2'       -0.8300  -22.7210    2.0330 C.3    95  DC95        0.0866
   1918  C1'       -0.2150  -22.4920    3.4170 C.3    95  DC95        0.2106
   1919  N1         0.4180  -23.6640    3.9560 N.ar   95  DC95       -0.2556
   1920  C2         1.7380  -23.9370    3.5770 C.ar   95  DC95        0.3531
   1921  O2         2.3350  -23.1180    2.8570 O.2    95  DC95       -0.2443
   1922  N3         2.3230  -25.0820    4.0040 N.ar   95  DC95       -0.1739
   1923  C4         1.6430  -25.9310    4.7740 C.ar   95  DC95        0.1759
   1924  N4         2.2610  -27.0470    5.1700 N.pl3  95  DC95       -0.1070
   1925  C5         0.3050  -25.6730    5.1690 C.ar   95  DC95        0.0566
   1926  C6        -0.2690  -24.5410    4.7460 C.ar   95  DC95        0.0849
   1927  P         -3.6540  -24.2880   -0.1450 P.3    96  DT96        0.2141
   1928  OP1       -4.6200  -23.9910   -1.2320 O.2    96  DT96       -0.5172
   1929  OP2       -3.7090  -25.5990    0.5680 O.3    96  DT96       -0.4373
   1930  O5'       -2.1840  -24.1030   -0.7170 O.3    96  DT96       -0.3114
   1931  C5'       -1.8120  -22.9180   -1.4140 C.3    96  DT96        0.1812
   1932  C4'       -0.4270  -23.0790   -1.9830 C.3    96  DT96        0.1775
   1933  O4'        0.5560  -22.9730   -0.9180 O.3    96  DT96       -0.3326
   1934  C3'       -0.1720  -24.4520   -2.5830 C.3    96  DT96        0.1859
   1935  O3'       -0.6630  -24.5380   -3.9090 O.3    96  DT96       -0.2203
   1936  C2'        1.3440  -24.5570   -2.5110 C.3    96  DT96        0.0895
   1937  C1'        1.6310  -23.8670   -1.1740 C.3    96  DT96        0.2107
   1938  N1         1.8620  -25.0880   -0.4850 N.ar   96  DT96       -0.2559
   1939  C2         3.0950  -25.7130   -0.4830 C.ar   96  DT96        0.3545
   1940  O2         4.0050  -25.3890   -1.2260 O.2    96  DT96       -0.2443
   1941  N3         3.2260  -26.7360    0.4240 N.ar   96  DT96       -0.1533
   1942  C4         2.2700  -27.1880    1.3090 C.ar   96  DT96        0.2804
   1943  O4         2.5370  -28.1190    2.0650 O.2    96  DT96       -0.2654
   1944  C5         1.0170  -26.4900    1.2450 C.ar   96  DT96        0.0534
   1945  C6         0.8620  -25.4910    0.3730 C.ar   96  DT96        0.0824
   1946  C7        -0.0890  -26.9080    2.1680 C.3    96  DT96        0.0377
@<TRIPOS>BOND
     1   707   706    2
     2   706   693    1
     3   706   709    1
     4   706   708    1
     5   710   709    1
     6   710   711    1
     7   693   692    1
     8   726   725    2
     9   689   690    1
    10   689   688    1
    11   686   685    2
    12   690   692    1
    13   690   691    1
    14   711   713    1
    15   711   712    1
    16   714   725    1
    17   714   713    1
    18   725   727    1
    19   725   728    1
    20   692   694    1
    21   713   715    1
    22   688   685    1
    23   694   695    1
    24   343   342    2
    25   712   716    1
    26   685   673    1
    27   685   687    1
    28   691   695    1
    29   729   728    1
    30   729   730    1
    31   673   672    1
    32   695   696    1
    33   715   716    1
    34   363   362    2
    35   342   330    1
    36   342   345    1
    37   342   344    1
    38   323   322    2
    39   716   717    1
    40   346   345    1
    41   346   347    1
    42   330   329    1
    43   730   731    1
    44   730   732    1
    45   672   674    1
    46   672   670    1
    47   724   717   ar
    48   724   723   ar
    49   674   675    1
    50   731   735    1
    51   350   362    1
    52   350   349    1
    53   326   327    1
    54   326   325    1
    55   696   697   ar
    56   696   705   ar
    57   362   364    1
    58   362   365    1
    59   347   349    1
    60   347   348    1
    61   670   669    1
    62   670   671    1
    63   717   718   ar
    64   697   698   ar
    65   327   329    1
    66   327   328    1
    67   669   668    1
    68   733   732    1
    69   733   744    1
    70   329   331    1
    71   732   734    1
    72   723   721   ar
    73   322   325    1
    74   322   309    1
    75   322   324    1
    76   745   744    2
    77   349   351    1
    78   743   742   ar
    79   743   736   ar
    80   705   704   ar
    81   705   699   ar
    82   675   671    1
    83   675   676    1
    84   348   352    1
    85   704   703   ar
    86   746   744    1
    87   735   734    1
    88   735   736    1
    89   666   665    2
    90   744   747    1
    91   365   366    1
    92   366   367    1
    93   309   308    1
    94   668   665    1
    95   718   719    2
    96   718   720   ar
    97   331   332    1
    98   742   740   ar
    99   698   699   ar
   100   328   332    1
   101   736   737   ar
   102   678   677    2
   103   721   720   ar
   104   721   722    1
   105   351   352    1
   106   699   700   ar
   107   665   652    1
   108   665   667    1
   109   676   677   ar
   110   676   683   ar
   111   352   353    1
   112   703   702   ar
   113   332   333    1
   114   677   679   ar
   115   530   531    1
   116   530   529    1
   117   530   532    1
   118   308   306    1
   119   308   310    1
   120   531   535    1
   121   747   748    1
   122   367   368    1
   123   367   369    1
   124   740   741    1
   125   740   739   ar
   126   652   651    1
   127   748   749    1
   128   502   503   ar
   129   502   501   ar
   130   360   353   ar
   131   360   359   ar
   132   683   682   ar
   133   503   504   ar
   134   535   534    1
   135   535   536    1
   136   529   528    1
   137   737   739   ar
   138   737   738    2
   139   306   305    1
   140   306   307    1
   141   534   532    1
   142   384   383    2
   143   533   532    1
   144   533   545    1
   145   700   702   ar
   146   700   701    1
   147   353   354   ar
   148   385   383    1
   149   370   369    1
   150   370   383    1
   151   368   372    1
   152   679   680   ar
   153   510   511    1
   154   510   509    1
   155   510   512    1
   156   494   493    1
   157   494   490    1
   158   494   495    1
   159   361   359    1
   160   305   304    1
   161   369   371    1
   162   538   537    2
   163   511   515    1
   164   333   340   ar
   165   333   334   ar
   166   493   491    1
   167   383   386    1
   168   340   339   ar
   169   515   514    1
   170   515   516    1
   171   310   311    1
   172   359   357   ar
   173   546   545    2
   174   514   512    1
   175   302   301    2
   176   501   499   ar
   177   682   680   ar
   178   682   684    1
   179   513   512    1
   180   513   525    1
   181   509   508    1
   182   653   651    1
   183   653   654    1
   184   651   649    1
   185   549   550    1
   186   549   548    1
   187   490   489    1
   188   307   311    1
   189   518   517    2
   190   504   495   ar
   191   504   498   ar
   192   551   550    1
   193   551   555    1
   194   526   525    2
   195   545   548    1
   196   545   547    1
   197   536   537   ar
   198   536   543   ar
   199   528   525    1
   200   550   552    1
   201   680   681    2
   202   537   539   ar
   203   749   750    1
   204   749   751    1
   205   304   301    1
   206   374   375   ar
   207   374   373   ar
   208   311   312    1
   209   335   334    2
   210   756   757   ar
   211   756   755   ar
   212   354   355    2
   213   354   356   ar
   214   334   336   ar
   215   767   765    2
   216   495   496   ar
   217   750   754    1
   218   663   662   ar
   219   663   664   ar
   220   757   758   ar
   221   525   527    1
   222   339   341    1
   223   339   337   ar
   224   662   661   ar
   225   372   371    1
   226   372   373    1
   227   489   491    1
   228   489   488    1
   229   491   492    1
   230   516   517   ar
   231   516   523   ar
   232   555   554    1
   233   555   556    1
   234   301   288    1
   235   301   303    1
   236   517   519   ar
   237   492   505    1
   238   375   376   ar
   239   478   477    2
   240   499   498   ar
   241   499   500    1
   242   543   542   ar
   243   373   382   ar
   244   357   356   ar
   245   357   358    2
   246   386   387    1
   247   649   648    1
   248   649   650    1
   249   751   752    1
   250   751   753    1
   251   498   497   ar
   252   508   505    1
   253   479   477   ar
   254   479   480   ar
   255   288   287    1
   256   654   655    1
   257   654   650    1
   258   539   540   ar
   259   664   655   ar
   260   664   658   ar
   261   552   553    1
   262   552   554    1
   263   661   659   ar
   264   752   765    1
   265   553   566    1
   266   755   754    1
   267   755   764   ar
   268   336   337   ar
   269   312   313   ar
   270   312   321   ar
   271   765   766    1
   272   765   768    1
   273   459   458    2
   274   481   480    1
   275   655   656   ar
   276   754   753    1
   277   477   476   ar
   278   337   338    2
   279   648   647    1
   280   506   505    2
   281   496   497   ar
   282   556   557   ar
   283   556   565   ar
   284   523   522   ar
   285   387   388    1
   286   758   764   ar
   287   758   759   ar
   288   505   507    1
   289   320   321   ar
   290   320   319   ar
   291   488   487    1
   292   519   520   ar
   293   460   458   ar
   294   460   461   ar
   295   557   558   ar
   296   480   482   ar
   297   912   911    1
   298   912   913    1
   299   912   914    1
   300   542   540   ar
   301   542   544    1
   302   396   395   ar
   303   396   397   ar
   304   423   421    1
   305   647   644    1
   306   313   314   ar
   307   376   382   ar
   308   376   377   ar
   309   321   315   ar
   310   760   759    1
   311   289   287    1
   312   289   290    1
   313   659   658   ar
   314   659   660    1
   315   658   657   ar
   316   915   914    1
   317   915   926    1
   318   462   461    1
   319   382   381   ar
   320   540   541    2
   321   420   419    2
   322   458   457   ar
   323   395   394   ar
   324   764   763   ar
   325   911   910    1
   326   287   285    1
   327   916   917    1
   328   916   914    1
   329   913   917    1
   330   927   926    2
   331   565   564   ar
   332   565   559   ar
   333   656   657   ar
   334   564   563   ar
   335   567   566    2
   336   759   761   ar
   337   917   918    1
   338   930   931    1
   339   930   929    1
   340   406   404    2
   341   566   568    1
   342   566   569    1
   343   778   777   ar
   344   778   779   ar
   345   487   484    1
   346   781   780    2
   347   319   318   ar
   348   522   520   ar
   349   522   524    1
   350   645   644    2
   351   461   463   ar
   352   558   559   ar
   353   768   769    1
   354   440   439    1
   355   520   521    2
   356   476   475    1
   357   476   483   ar
   358   931   932    1
   359   931   933    1
   360   399   398    1
   361   285   284    1
   362   285   286    1
   363   896   897    1
   364   896   894    1
   365   644   646    1
   366   644   632    1
   367   892   893    1
   368   892   894    1
   369   892   891    1
   370   559   560   ar
   371   474   475    1
   372   474   472    1
   373   897   893    1
   374   897   898    1
   375   895   894    1
   376   895   907    1
   377   900   899    2
   378   314   315   ar
   379   777   776   ar
   380   315   316   ar
   381   388   389    1
   382   388   390    1
   383   570   569    1
   384   570   571    1
   385   880   879    2
   386   377   378    1
   387   377   379   ar
   388   926   929    1
   389   926   928    1
   390   419   421   ar
   391   419   418   ar
   392   475   471    1
   393   397   398   ar
   394   397   403   ar
   395   482   483   ar
   396   421   422   ar
   397   381   380   ar
   398   563   562   ar
   399   932   936    1
   400   290   286    1
   401   290   291    1
   402   572   571    1
   403   572   576    1
   404   803   802    1
   405   299   298   ar
   406   299   300   ar
   407   389   393    1
   408   763   762   ar
   409   934   933    1
   410   934   947    1
   411   394   403   ar
   412   394   393    1
   413   920   919    2
   414   780   779   ar
   415   780   782   ar
   416   779   786   ar
   417   457   464   ar
   418   457   456   ar
   419   910   907    1
   420   284   283    1
   421   908   907    2
   422   948   947    2
   423   398   400   ar
   424   390   391    1
   425   390   392    1
   426   891   890    1
   427   318   316   ar
   428   761   762   ar
   429   571   573    1
   430   864   863   ar
   431   864   865   ar
   432   298   297   ar
   433   404   391    1
   434   404   405    1
   435   404   407    1
   436   918   919   ar
   437   918   925   ar
   438   560   562   ar
   439   560   561    1
   440   769   770    1
   441   463   464   ar
   442   933   935    1
   443   637   636    2
   444   316   317    1
   445   632   631    1
   446   439   441   ar
   447   439   438   ar
   448   863   861   ar
   449   484   485    2
   450   484   486    1
   451   484   473    1
   452   899   898   ar
   453   899   901   ar
   454   907   909    1
   455   403   402   ar
   456   898   905   ar
   457   936   935    1
   458   936   937    1
   459   291   300   ar
   460   291   292   ar
   461   919   921   ar
   462   300   294   ar
   463   380   379   ar
   464   879   881   ar
   465   879   878   ar
   466   464   454   ar
   467   456   455   ar
   468   393   392    1
   469   776   786   ar
   470   776   775    1
   471   472   473    1
   472   472   470    1
   473   418   416   ar
   474   576   577    1
   475   576   575    1
   476   422   415   ar
   477   633   631    1
   478   633   634    1
   479   865   866   ar
   480   771   770    1
   481   771   775    1
   482   584   583   ar
   483   584   577   ar
   484   947   949    1
   485   947   950    1
   486   471   470    1
   487   877   876    1
   488   877   878    1
   489   877   873    1
   490   925   924   ar
   491   441   442   ar
   492   786   785   ar
   493   802   804   ar
   494   802   801   ar
   495   876   874    1
   496   782   783   ar
   497   438   436   ar
   498   583   581   ar
   499   297   295   ar
   500   577   578   ar
   501   951   950    1
   502   951   952    1
   503   636   638   ar
   504   636   635   ar
   505   283   280    1
   506   881   882   ar
   507   407   408    1
   508   822   821    2
   509   400   401   ar
   510   770   772    1
   511   631   629    1
   512   890   887    1
   513   638   639   ar
   514   804   805   ar
   515   878   885   ar
   516   775   774    1
   517   901   902   ar
   518   281   280    2
   519   842   841    2
   520   573   575    1
   521   573   574    1
   522   861   862    1
   523   861   860   ar
   524   470   469    1
   525   292   293   ar
   526   873   872    1
   527   905   904   ar
   528   294   295   ar
   529   294   293   ar
   530   634   635    1
   531   634   630    1
   532   921   922   ar
   533   937   938   ar
   534   937   946   ar
   535   402   401   ar
   536   581   580   ar
   537   581   582    1
   538   578   579    2
   539   578   580   ar
   540   801   799   ar
   541   455   454   ar
   542   415   416   ar
   543   415   414    1
   544   454   453    1
   545   416   417    2
   546   635   642   ar
   547   772   774    1
   548   772   773    1
   549   295   296    1
   550   866   860   ar
   551   866   857   ar
   552   938   939   ar
   553   872   874    1
   554   872   871    1
   555   924   922   ar
   556   783   785   ar
   557   783   784    1
   558   574   585    1
   559   789   787    2
   560   952   953    1
   561   952   954    1
   562   874   875    1
   563   875   887    1
   564   280   282    1
   565   280   269    1
   566   442   435   ar
   567   639   640    2
   568   639   641   ar
   569   436   435   ar
   570   436   437    2
   571   860   859   ar
   572   821   820   ar
   573   821   823   ar
   574   840   841   ar
   575   840   838   ar
   576   882   883    2
   577   882   884   ar
   578   922   923    1
   579   408   409    1
   580   841   843   ar
   581   887   888    2
   582   887   889    1
   583   629   630    1
   584   629   628    1
   585   953   957    1
   586   426   424    2
   587   902   904   ar
   588   902   903    2
   589   904   906    1
   590   805   798   ar
   591   885   884   ar
   592   468   469    1
   593   468   465    1
   594   825   823    1
   595   773   787    1
   596   946   945   ar
   597   946   940   ar
   598   856   857    1
   599   856   855    1
   600   856   852    1
   601   642   641   ar
   602   274   273    2
   603   857   858   ar
   604   435   434    1
   605   820   818   ar
   606   410   414    1
   607   410   409    1
   608   945   944   ar
   609   939   940   ar
   610   453   452    1
   611   453   449    1
   612   799   798   ar
   613   799   800    2
   614   641   643    1
   615   270   268    1
   616   270   271    1
   617   955   954    1
   618   955   968    1
   619   452   450    1
   620   414   413    1
   621   855   853    1
   622   269   268    1
   623   586   585    2
   624   839   838    2
   625   884   886    1
   626   411   409    1
   627   411   413    1
   628   411   412    1
   629   823   824   ar
   630   871   870    1
   631   787   790    1
   632   787   788    1
   633   954   956    1
   634   838   837   ar
   635   467   465    2
   636   798   797    1
   637   424   412    1
   638   424   425    1
   639   424   427    1
   640   940   941   ar
   641   859   858   ar
   642   852   851    1
   643   628   627    1
   644   969   968    2
   645   585   587    1
   646   585   588    1
   647   843   845    1
   648   843   844   ar
   649   273   275   ar
   650   273   272   ar
   651   957   956    1
   652   957   958    1
   653   268   266    1
   654   465   451    1
   655   465   466    1
   656   450   451    1
   657   450   448    1
   658   790   791    1
   659   959   958   ar
   660   959   960   ar
   661   449   448    1
   662   271   272    1
   663   271   267    1
   664   968   970    1
   665   968   971    1
   666   944   943   ar
   667   627   624    1
   668   275   276   ar
   669   591   590    1
   670   591   595    1
   671   818   819    2
   672   818   817   ar
   673   870   867    1
   674   445   443    2
   675   434   430    1
   676   434   433    1
   677   958   967   ar
   678   824   817   ar
   679   272   279   ar
   680   853   851    1
   681   853   854    1
   682   837   844   ar
   683   837   836    1
   684   590   589    1
   685   590   592    1
   686   595   594    1
   687   595   596    1
   688   430   429    1
   689   851   850    1
   690   941   943   ar
   691   941   942    1
   692   427   428    1
   693   446   443    1
   694   446   447    1
   695   588   589    1
   696   797   793    1
   697   797   796    1
   698   266   267    1
   699   266   265    1
   700   972   971    1
   701   972   973    1
   702   793   792    1
   703   960   961   ar
   704   448   447    1
   705   428   429    1
   706   817   816    1
   707   433   431    1
   708   854   867    1
   709   431   429    1
   710   431   432    1
   711   276   277    1
   712   276   278   ar
   713   594   592    1
   714   791   792    1
   715   808   806    2
   716   443   432    1
   717   443   444    1
   718   603   596   ar
   719   603   602   ar
   720   596   597   ar
   721   867   868    2
   722   867   869    1
   723   624   625    2
   724   624   626    1
   725   624   612    1
   726   279   278   ar
   727   967   961   ar
   728   967   966   ar
   729   836   835    1
   730   836   832    1
   731   794   796    1
   732   794   792    1
   733   794   795    1
   734   592   593    1
   735   602   600   ar
   736   961   962   ar
   737   597   598    2
   738   597   599   ar
   739   850   849    1
   740   973   974    1
   741   973   975    1
   742   265   264    1
   743   593   604    1
   744   974   978    1
   745   835   833    1
   746   600   599   ar
   747   600   601    1
   748   816   812    1
   749   816   815    1
   750    40    39    2
   751   966   965   ar
   752   849   846    1
   753   612   611    1
   754   806   795    1
   755   806   807    1
   756   806   809    1
   757   264   261    1
   758   832   831    1
   759   828   826    2
   760   987   985    1
   761   812   811    1
   762   815   813    1
   763   611   613    1
   764   611   609    1
   765   962   963    1
   766   962   964   ar
   767   833   831    1
   768   833   834    1
   769   604   605    2
   770   604   606    1
   771   604   607    1
   772   986   985   ar
   773   986   979   ar
   774   975   976    1
   775   975   977    1
   776   254   253    2
   777   813   811    1
   778   813   814    1
   779   978   979    1
   780   978   977    1
   781   965   964   ar
   782   976   988    1
   783    61    60    2
   784   985   983   ar
   785   810   809    1
   786   810   811    1
   787   829   826    1
   788   829   830    1
   789   613   614    1
   790   846   834    1
   791   846   848    2
   792   846   847    1
   793   831   830    1
   794   979   980   ar
   795    39    27    1
   796    39    42    1
   797    39    41    1
   798   608   607    1
   799   608   609    1
   800   826   814    1
   801   826   827    1
   802   989   988    2
   803   609   610    1
   804   261   262    2
   805   261   263    1
   806   261   249    1
   807   255   253   ar
   808   255   256   ar
   809   253   252   ar
   810    27    26    1
   811    42    43    1
   812    43    44    1
   813   250   251    1
   814   250   248    1
   815    62    60    1
   816   988   990    1
   817   988   991    1
   818   983   984    2
   819   983   982   ar
   820    60    47    1
   821    60    63    1
   822   257   256    2
   823   980   982   ar
   824   980   981    2
   825   256   258   ar
   826    47    46    1
   827   249   248    1
   828   614   610    1
   829   614   615    1
   830   252   251    1
   831   252   259   ar
   832    44    46    1
   833    44    45    1
   834   251   247    1
   835    26    24    1
   836    26    28    1
   837   248   246    1
   838    63    64    1
   839    23    24    1
   840    23    22    1
   841    24    25    1
   842   617   616    2
   843    46    48    1
   844    64    65    1
   845   991   992    1
   846   615   616   ar
   847   615   622   ar
   848  1007  1005    1
   849    81    79    2
   850   258   259   ar
   851   258   260    1
   852    28    29    1
   853   992   993    1
   854   616   618   ar
   855    20    19    2
   856   622   621   ar
   857    80    79    1
   858    45    49    1
   859    22    19    1
   860   246   247    1
   861   246   245    1
   862  1935  1934    1
   863    25    29    1
   864  1005  1006   ar
   865  1005  1003   ar
   866   234   233    2
   867   994   993    1
   868   994   998    1
   869    79    68    1
   870    79    82    1
   871   618   619   ar
   872  1006   999   ar
   873    29    30    1
   874   235   233   ar
   875   235   236   ar
   876   621   619   ar
   877   621   623    1
   878    48    49    1
   879   993   995    1
   880  1004  1003    2
   881    19     6    1
   882    19    21    1
   883   237   236    2
   884    65    67    1
   885    65    66    1
   886  1003  1002   ar
   887   619   620    2
   888   120   119    2
   889   233   232   ar
   890     6     5    1
   891    49    50    1
   892    68    67    1
   893   236   238   ar
   894    51    50   ar
   895    51    52   ar
   896   999   998    1
   897   999  1000   ar
   898   244   245    1
   899   244   241    1
   900    77    78   ar
   901    77    75   ar
   902    67    69    1
   903    99    98    2
   904    78    71   ar
   905    66    70    1
   906  1934  1936    1
   907  1934  1932    1
   908   998   997    1
   909  1936  1937    1
   910   216   215    1
   911    82    83    1
   912  1002  1000   ar
   913    50    59   ar
   914   100    98    1
   915   995   996    1
   916   995   997    1
   917  1567  1566    2
   918    30    37   ar
   919    30    31   ar
   920  1000  1001    2
   921   121   119    1
   922  1932  1931    1
   923  1932  1933    1
   924     7     5    1
   925     7     8    1
   926   217   215   ar
   927   217   218   ar
   928   119   122    1
   929   119   106    1
   930    52    53   ar
   931     5     3    1
   932    96    97   ar
   933    96    94   ar
   934    32    31    2
   935   232   231    1
   936   232   239   ar
   937   230   231    1
   938   230   228    1
   939    98    87    1
   940    98   101    1
   941    37    36   ar
   942    95    94    1
   943   215   214   ar
   944    76    75    1
   945    75    74   ar
   946   996  1008    1
   947    71    70    1
   948    71    72   ar
   949  1931  1930    1
   950   238   239   ar
   951   238   240    1
   952    70    69    1
   953    31    33   ar
   954   143   141    2
   955    83    84    1
   956   243   241    2
   957  1928  1927    2
   958  1940  1939    2
   959  1564  1560    1
   960  1564  1563    1
   961  1564  1565    1
   962  1560  1559    1
   963  1937  1933    1
   964  1937  1938    1
   965   231   227    1
   966   241   229    1
   967   241   242    1
   968    97    90   ar
   969    94    93   ar
   970  1584  1580    1
   971  1584  1583    1
   972  1584  1585    1
   973  1010  1008    2
   974    59    53   ar
   975    59    58   ar
   976  1566  1565   ar
   977  1566  1568   ar
   978   218   219   ar
   979   123   122    1
   980   123   124    1
   981     3     2    1
   982     3     4    1
   983  1580  1579    1
   984  1593  1592   ar
   985  1593  1594   ar
   986  1563  1561    1
   987    53    54   ar
   988  1559  1561    1
   989  1559  1558    1
   990    87    86    1
   991  1009  1008    1
   992  1930  1927    1
   993   106   105    1
   994  1024  1023    1
   995   176   175    2
   996   199   197    1
   997   196   195    2
   998   229   228    1
   999  1583  1581    1
  1000  1592  1591   ar
  1001   228   226    1
  1002   101   102    1
  1003   179   177    1
  1004    86    84    1
  1005    86    88    1
  1006  1565  1572   ar
  1007  1021  1020   ar
  1008  1021  1022   ar
  1009  1008  1011    1
  1010  1579  1581    1
  1011  1579  1578    1
  1012     8     4    1
  1013     8     9    1
  1014  1938  1939   ar
  1015  1938  1945   ar
  1016  1939  1941   ar
  1017    36    38    1
  1018    36    34   ar
  1019   214   213   ar
  1020   214   220   ar
  1021    74    72   ar
  1022   142   141    1
  1023     2     1    1
  1024    72    73    2
  1025  1585  1594   ar
  1026  1585  1586   ar
  1027    58    57   ar
  1028    84    85    1
  1029   102   103    1
  1030  1594  1588   ar
  1031  1927  1929    1
  1032  1927  1916    1
  1033   141   127    1
  1034   141   144    1
  1035    33    34   ar
  1036  1562  1561    1
  1037  1562  1574    1
  1038  1568  1569   ar
  1039  1577  1578    1
  1040  1577  1574    1
  1041  1020  1019   ar
  1042   105   103    1
  1043   105   107    1
  1044   182   180    2
  1045  1558  1557    1
  1046    90    91   ar
  1047    90    89    1
  1048   127   126    1
  1049   219   220   ar
  1050    93    91   ar
  1051  1601  1600    1
  1052  1601  1605    1
  1053   175   177   ar
  1054   175   174   ar
  1055   227   226    1
  1056  1023  1022   ar
  1057  1023  1025   ar
  1058   213   212   ar
  1059  1581  1582    1
  1060    17    18   ar
  1061    17    16   ar
  1062  1022  1028   ar
  1063   195   197   ar
  1064   195   194   ar
  1065   126   124    1
  1066   126   128    1
  1067   132   131   ar
  1068   132   133   ar
  1069   124   125    1
  1070  1945  1944   ar
  1071  1591  1589   ar
  1072     9    18   ar
  1073     9    10   ar
  1074    34    35    2
  1075  1600  1599    1
  1076  1600  1602    1
  1077  1941  1942   ar
  1078   162   160    2
  1079   197   198   ar
  1080   177   178   ar
  1081   131   130   ar
  1082    85    89    1
  1083   220   211   ar
  1084    54    55    1
  1085    54    56   ar
  1086  1582  1595    1
  1087  1605  1604    1
  1088  1605  1606    1
  1089    88    89    1
  1090   226   225    1
  1091  1599  1598    1
  1092   103   104    1
  1093    18    12   ar
  1094  1572  1571   ar
  1095   157   156    1
  1096    16    15   ar
  1097  1045  1044    1
  1098  1586  1587   ar
  1099    91    92    2
  1100  1588  1589   ar
  1101  1588  1587   ar
  1102    57    56   ar
  1103   144   145    1
  1104  1574  1575    2
  1105  1574  1576    1
  1106  1011  1012    1
  1107    10    11   ar
  1108   125   129    1
  1109  1604  1602    1
  1110   158   156   ar
  1111   158   159   ar
  1112   110   111   ar
  1113   110   109   ar
  1114  1019  1028   ar
  1115  1019  1018    1
  1116   111   112   ar
  1117  1589  1590    1
  1118  1569  1571   ar
  1119  1569  1570    2
  1120  1025  1026   ar
  1121   174   172   ar
  1122   107   108    1
  1123  1944  1942   ar
  1124  1944  1946    1
  1125  1557  1554    1
  1126   181   180    1
  1127  1942  1943    2
  1128  1916  1915    1
  1129  1028  1027   ar
  1130   135   134    2
  1131   180   183    1
  1132   180   168    1
  1133   194   192   ar
  1134  1014  1018    1
  1135  1014  1013    1
  1136  1603  1602    1
  1137  1603  1617    1
  1138   212   211   ar
  1139   133   134   ar
  1140   133   140   ar
  1141   156   155   ar
  1142   178   171   ar
  1143    12    11   ar
  1144    12    13   ar
  1145   198   191   ar
  1146   130   129    1
  1147   130   140   ar
  1148    15    13   ar
  1149  1606  1616   ar
  1150  1606  1607   ar
  1151  1012  1013    1
  1152  1615  1616   ar
  1153  1615  1613   ar
  1154  1571  1573    1
  1155   224   225    1
  1156   224   221    1
  1157   211   210    1
  1158   128   129    1
  1159   202   200    2
  1160  1598  1595    1
  1161   160   163    1
  1162   160   161    1
  1163   160   149    1
  1164  1044  1046   ar
  1165  1044  1043   ar
  1166  1064  1063    2
  1167   223   221    2
  1168   134   136   ar
  1169   104   108    1
  1170  1596  1595    2
  1171  1614  1613    1
  1172  1046  1047   ar
  1173   159   152   ar
  1174  1018  1017    1
  1175  1595  1597    1
  1176    13    14    1
  1177  1616  1609   ar
  1178   189   187    1
  1179   189   190    1
  1180  1917  1915    1
  1181  1917  1918    1
  1182   163   164    1
  1183   109   108    1
  1184   109   118   ar
  1185   183   184    1
  1186  1065  1063   ar
  1187  1065  1066   ar
  1188   145   146    1
  1189  1613  1612   ar
  1190   140   139   ar
  1191  1026  1027   ar
  1192  1607  1608   ar
  1193   112   118   ar
  1194   112   113   ar
  1195  1067  1066    1
  1196  1013  1015    1
  1197   167   169    1
  1198   167   168    1
  1199   167   165    1
  1200   172   171   ar
  1201   172   173    2
  1202  1555  1554    2
  1203  1623  1622    1
  1204  1623  1627    1
  1205   114   113    1
  1206  1063  1062   ar
  1207  1915  1913    1
  1208   171   170    1
  1209  1621  1622    1
  1210  1621  1620    1
  1211   169   170    1
  1212   192   191   ar
  1213   192   193    2
  1214  1554  1556    1
  1215  1554  1542    1
  1216   191   190    1
  1217  1622  1624    1
  1218   221   208    1
  1219   221   222    1
  1220   209   207    1
  1221   209   210    1
  1222   155   153   ar
  1223   149   148    1
  1224   148   146    1
  1225   148   150    1
  1226  1066  1068   ar
  1227  1618  1617    2
  1228  1031  1029    2
  1229  1617  1620    1
  1230  1617  1619    1
  1231  1043  1041   ar
  1232   118   117   ar
  1233   207   208    1
  1234   207   205    1
  1235   113   115   ar
  1236  1609  1608   ar
  1237  1609  1610   ar
  1238   187   188    1
  1239   187   185    1
  1240  1921  1920    2
  1241  1015  1017    1
  1242  1015  1016    1
  1243   170   166    1
  1244   210   206    1
  1245  1047  1040   ar
  1246  1612  1610   ar
  1247   136   137   ar
  1248   190   186    1
  1249  1627  1626    1
  1250  1627  1628    1
  1251   152   153   ar
  1252   152   151    1
  1253   203   200    1
  1254   203   204    1
  1255   200   188    1
  1256   200   201    1
  1257   146   147    1
  1258   139   137   ar
  1259  1062  1069   ar
  1260  1062  1061   ar
  1261   164   165    1
  1262   166   165    1
  1263  1434  1433    2
  1264   184   185    1
  1265  1610  1611    2
  1266  1918  1919    1
  1267  1918  1914    1
  1268   153   154    2
  1269  1454  1453    2
  1270  1068  1069   ar
  1271  1913  1914    1
  1272  1913  1912    1
  1273  1920  1919   ar
  1274  1920  1922   ar
  1275   147   151    1
  1276  1086  1085    2
  1277   150   151    1
  1278   137   138    1
  1279  1547  1546    2
  1280   117   116   ar
  1281  1626  1624    1
  1282   185   186    1
  1283  1041  1040   ar
  1284  1041  1042    2
  1285   206   205    1
  1286   115   116   ar
  1287  1069  1059   ar
  1288  1084  1085   ar
  1289  1084  1082   ar
  1290  1061  1060   ar
  1291  1624  1625    1
  1292  1029  1016    1
  1293  1029  1030    1
  1294  1029  1032    1
  1295  1542  1541    1
  1296  1040  1039    1
  1297  1543  1541    1
  1298  1543  1544    1
  1299  1919  1926   ar
  1300  1628  1629   ar
  1301  1628  1637   ar
  1302  1922  1923   ar
  1303   205   204    1
  1304  1083  1082    2
  1305  1625  1638    1
  1306  1629  1630   ar
  1307  1085  1087   ar
  1308  1548  1546   ar
  1309  1548  1549   ar
  1310  1546  1545   ar
  1311  1912  1911    1
  1312  1435  1433    1
  1313  1082  1081   ar
  1314  1541  1539    1
  1315  1433  1420    1
  1316  1433  1436    1
  1317  1455  1453    1
  1318  1060  1059   ar
  1319  1059  1058    1
  1320  1637  1636   ar
  1321  1637  1631   ar
  1322  1413  1412    2
  1323  1926  1925   ar
  1324  1453  1441    1
  1325  1453  1456    1
  1326  1923  1925   ar
  1327  1923  1924    1
  1328  1033  1032    1
  1329  1033  1034    1
  1330  1636  1635   ar
  1331  1550  1549    2
  1332  1630  1631   ar
  1333  1549  1551   ar
  1334  1911  1908    1
  1335  1544  1545    1
  1336  1544  1540    1
  1337  1545  1552   ar
  1338  1639  1638    2
  1339  1631  1632   ar
  1340  1437  1436    1
  1341  1437  1438    1
  1342  1638  1640    1
  1343  1638  1641    1
  1344  1420  1419    1
  1345  1806  1805    2
  1346  1441  1440    1
  1347  1087  1089    1
  1348  1087  1088   ar
  1349  1039  1035    1
  1350  1039  1038    1
  1351  1058  1054    1
  1352  1058  1057    1
  1353  1035  1034    1
  1354  1635  1634   ar
  1355  1081  1088   ar
  1356  1081  1080    1
  1357  1551  1552   ar
  1358  1551  1553    1
  1359  1456  1457    1
  1360  1054  1053    1
  1361  1539  1540    1
  1362  1539  1538    1
  1363  1909  1908    2
  1364  1034  1036    1
  1365  1632  1634   ar
  1366  1632  1633    1
  1367  1457  1458    1
  1368  1412  1414    1
  1369  1412  1415    1
  1370  1412  1400    1
  1371  1908  1910    1
  1372  1908  1896    1
  1373  1642  1641    1
  1374  1642  1643    1
  1375  1416  1415    1
  1376  1416  1417    1
  1377  1440  1438    1
  1378  1440  1442    1
  1379  1080  1076    1
  1380  1080  1079    1
  1381  1438  1439    1
  1382  1475  1473    2
  1383  1036  1038    1
  1384  1036  1037    1
  1385  1530  1531   ar
  1386  1530  1528   ar
  1387  1786  1785    2
  1388  1419  1417    1
  1389  1419  1421    1
  1390  1657  1655    1
  1391  1805  1807    1
  1392  1805  1793    1
  1393  1805  1808    1
  1394  1057  1055    1
  1395  1531  1532   ar
  1396  1537  1538    1
  1397  1537  1534    1
  1398  1472  1470    1
  1399  1050  1048    2
  1400  1644  1643    1
  1401  1644  1648    1
  1402  1417  1418    1
  1403  1529  1528    1
  1404  1400  1399    1
  1405  1051  1052    1
  1406  1051  1048    1
  1407  1076  1075    1
  1408  1793  1792    1
  1409  1053  1052    1
  1410  1053  1055    1
  1411  1528  1527   ar
  1412  1474  1473    1
  1413  1643  1645    1
  1414  1079  1077    1
  1415  1656  1655   ar
  1416  1656  1649   ar
  1417  1458  1460    1
  1418  1458  1459    1
  1419  1828  1827    2
  1420  1655  1653   ar
  1421  1901  1900    2
  1422  1897  1895    1
  1423  1897  1898    1
  1424  1473  1461    1
  1425  1473  1476    1
  1426  1452  1450    1
  1427  1461  1460    1
  1428  1896  1895    1
  1429  1439  1443    1
  1430  1460  1462    1
  1431  1536  1534    2
  1432  1055  1056    1
  1433  1532  1533   ar
  1434  1442  1443    1
  1435  1037  1048    1
  1436  1902  1900   ar
  1437  1902  1903   ar
  1438  1048  1049    1
  1439  1808  1809    1
  1440  1809  1810    1
  1441  1829  1827    1
  1442  1421  1422    1
  1443  1393  1392    2
  1444  1900  1899   ar
  1445  1789  1790    1
  1446  1789  1788    1
  1447  1534  1535    1
  1448  1534  1521    1
  1449  1904  1903    2
  1450  1785  1771    1
  1451  1785  1788    1
  1452  1785  1787    1
  1453  1451  1450   ar
  1454  1451  1444   ar
  1455  1648  1649    1
  1456  1648  1647    1
  1457  1649  1650   ar
  1458  1470  1471   ar
  1459  1470  1468   ar
  1460  1771  1770    1
  1461  1527  1533   ar
  1462  1527  1526   ar
  1463  1471  1464   ar
  1464  1653  1654    2
  1465  1653  1652   ar
  1466  1903  1905   ar
  1467  1459  1463    1
  1468  1895  1893    1
  1469  1827  1813    1
  1470  1827  1830    1
  1471  1450  1448   ar
  1472  1399  1397    1
  1473  1399  1401    1
  1474  1533  1524   ar
  1475  1813  1812    1
  1476  1418  1422    1
  1477  1792  1790    1
  1478  1792  1794    1
  1479  1443  1444    1
  1480  1790  1791    1
  1481  1075  1077    1
  1482  1075  1074    1
  1483  1396  1395    1
  1484  1396  1397    1
  1485  1898  1899    1
  1486  1898  1894    1
  1487  1077  1078    1
  1488  1899  1906   ar
  1489  1645  1647    1
  1490  1645  1646    1
  1491  1444  1445   ar
  1492  1476  1477    1
  1493  1395  1392    1
  1494  1652  1650   ar
  1495  1650  1651    2
  1496  1397  1398    1
  1497  1521  1520    1
  1498  1810  1812    1
  1499  1810  1811    1
  1500  1905  1906   ar
  1501  1905  1907    1
  1502  1422  1423    1
  1503  1526  1525   ar
  1504  1056  1070    1
  1505  1462  1463    1
  1506  1812  1814    1
  1507  1392  1394    1
  1508  1392  1380    1
  1509  1494  1492    2
  1510  1463  1464    1
  1511  1520  1522    1
  1512  1520  1518    1
  1513  1468  1469    2
  1514  1468  1467   ar
  1515  1522  1523    1
  1516  1524  1525   ar
  1517  1524  1523    1
  1518  1401  1402    1
  1519  1464  1465   ar
  1520  1448  1449    2
  1521  1448  1447   ar
  1522  1883  1882    1
  1523  1074  1073    1
  1524  1646  1658    1
  1525  1770  1768    1
  1526  1770  1772    1
  1527  1767  1768    1
  1528  1767  1766    1
  1529  1794  1795    1
  1530  1768  1769    1
  1531  1073  1070    1
  1532  1490  1491    1
  1533  1490  1488    2
  1534  1893  1894    1
  1535  1893  1892    1
  1536  1424  1423   ar
  1537  1424  1425   ar
  1538  1764  1763    2
  1539  1423  1432   ar
  1540  1830  1831    1
  1541  1445  1447   ar
  1542  1445  1446    2
  1543  1078  1090    1
  1544  1884  1882   ar
  1545  1884  1885   ar
  1546  1508  1507    1
  1547  1791  1795    1
  1548  1489  1488    1
  1549  1772  1773    1
  1550  1477  1478    1
  1551  1660  1658    2
  1552  1072  1070    2
  1553  1882  1881   ar
  1554  1070  1071    1
  1555  1092  1090    2
  1556  1491  1484    1
  1557  1523  1519    1
  1558  1505  1504   ar
  1559  1505  1506   ar
  1560  1811  1815    1
  1561  1831  1832    1
  1562  1380  1379    1
  1563  1848  1846    2
  1564  1398  1402    1
  1565  1766  1763    1
  1566  1467  1465   ar
  1567  1488  1487    1
  1568  1493  1492    1
  1569  1425  1426   ar
  1570  1885  1886   ar
  1571  1492  1481    1
  1572  1492  1495    1
  1573  1465  1466    2
  1574  1891  1892    1
  1575  1891  1888    1
  1576  1515  1513    2
  1577  1795  1796    1
  1578  1516  1517    1
  1579  1516  1513    1
  1580  1814  1815    1
  1581  1890  1888    2
  1582  1402  1403    1
  1583  1432  1431   ar
  1584  1432  1426   ar
  1585  1518  1517    1
  1586  1518  1519    1
  1587  1769  1773    1
  1588  1658  1659    1
  1589  1658  1661    1
  1590  1106  1105    1
  1591  1090  1091    1
  1592  1090  1093    1
  1593  1763  1750    1
  1594  1763  1765    1
  1595  1847  1846    1
  1596  1504  1503   ar
  1597  1881  1880   ar
  1598  1881  1887   ar
  1599  1507  1506   ar
  1600  1507  1509   ar
  1601  1817  1818   ar
  1602  1817  1816   ar
  1603  1431  1430   ar
  1604  1480  1478    1
  1605  1480  1481    1
  1606  1480  1482    1
  1607  1426  1427   ar
  1608  1889  1888    1
  1609  1773  1774    1
  1610  1506  1512   ar
  1611  1478  1479    1
  1612  1107  1105   ar
  1613  1107  1108   ar
  1614  1888  1875    1
  1615  1815  1816    1
  1616  1846  1835    1
  1617  1846  1849    1
  1618  1410  1403   ar
  1619  1410  1409   ar
  1620  1403  1404   ar
  1621  1495  1496    1
  1622  1513  1514    1
  1623  1513  1500    1
  1624  1479  1483    1
  1625  1886  1887   ar
  1626  1803  1796   ar
  1627  1803  1802   ar
  1628  1880  1879   ar
  1629  1484  1483    1
  1630  1484  1485    1
  1631  1796  1797   ar
  1632  1379  1381    1
  1633  1379  1377    1
  1634  1105  1104   ar
  1635  1887  1878   ar
  1636  1818  1819   ar
  1637  1750  1749    1
  1638  1832  1834    1
  1639  1832  1833    1
  1640  1816  1826   ar
  1641  1487  1485    2
  1642  1844  1845   ar
  1643  1844  1842   ar
  1644  1411  1409    1
  1645  1835  1834    1
  1646  1409  1407   ar
  1647  1381  1382    1
  1648  1845  1838   ar
  1649  1430  1429   ar
  1650  1093  1094    1
  1651  1834  1836    1
  1652  1804  1802    1
  1653  1427  1429   ar
  1654  1427  1428    1
  1655  1108  1101   ar
  1656  1404  1405    2
  1657  1404  1406   ar
  1658  1509  1510   ar
  1659  1483  1482    1
  1660  1671  1670   ar
  1661  1671  1672   ar
  1662  1862  1861    1
  1663  1503  1512   ar
  1664  1503  1502    1
  1665  1661  1662    1
  1666  1674  1673    1
  1667  1485  1486    1
  1668  1802  1800   ar
  1669  1879  1878   ar
  1670  1512  1511   ar
  1671  1774  1775   ar
  1672  1774  1784   ar
  1673  1833  1837    1
  1674  1499  1500    1
  1675  1499  1501    1
  1676  1499  1497    1
  1677  1878  1877    1
  1678  1377  1376    1
  1679  1377  1378    1
  1680  1859  1858   ar
  1681  1859  1860   ar
  1682  1849  1850    1
  1683  1875  1874    1
  1684  1843  1842    1
  1685  1376  1375    1
  1686  1496  1497    1
  1687  1407  1406   ar
  1688  1407  1408    2
  1689  1797  1798    2
  1690  1797  1799   ar
  1691  1670  1669   ar
  1692  1874  1876    1
  1693  1874  1872    1
  1694  1842  1841   ar
  1695  1104  1102   ar
  1696  1819  1826   ar
  1697  1819  1820   ar
  1698  1783  1784   ar
  1699  1783  1781   ar
  1700  1826  1825   ar
  1701  1869  1867    2
  1702  1876  1877    1
  1703  1501  1502    1
  1704  1749  1751    1
  1705  1749  1747    1
  1706  1775  1776   ar
  1707  1125  1124    2
  1708  1751  1752    1
  1709  1502  1498    1
  1710  1784  1777   ar
  1711  1094  1095    1
  1712  1838  1837    1
  1713  1838  1839   ar
  1714  1672  1673   ar
  1715  1672  1678   ar
  1716  1858  1857   ar
  1717  1497  1498    1
  1718  1510  1511   ar
  1719  1662  1663    1
  1720  1717  1716    2
  1721  1673  1675   ar
  1722  1101  1102   ar
  1723  1101  1100    1
  1724  1861  1860   ar
  1725  1861  1863   ar
  1726  1870  1867    1
  1727  1870  1871    1
  1728  1860  1866   ar
  1729  1800  1799   ar
  1730  1800  1801    2
  1731  1382  1378    1
  1732  1382  1383    1
  1733  1486  1216    1
  1734  1385  1384    2
  1735  1837  1836    1
  1736  1877  1873    1
  1737  1695  1694    2
  1738  1782  1781    1
  1739  1102  1103    2
  1740  1270  1269   ar
  1741  1270  1271   ar
  1742  1269  1268   ar
  1743  1128  1126    1
  1744  1096  1095    1
  1745  1096  1100    1
  1746  1850  1851    1
  1747  1781  1780   ar
  1748  1825  1823   ar
  1749  1867  1868    1
  1750  1867  1854    1
  1751  1747  1746    1
  1752  1747  1748    1
  1753  1229  1228   ar
  1754  1229  1230   ar
  1755  1373  1372    2
  1756  1681  1679    1
  1757  1228  1227   ar
  1758  1820  1821    2
  1759  1820  1822   ar
  1760  1383  1384   ar
  1761  1383  1390   ar
  1762  1841  1839   ar
  1763  1375  1372    1
  1764  1261  1257    1
  1765  1261  1260    1
  1766  1261  1262    1
  1767  1669  1678   ar
  1768  1669  1668    1
  1769  1384  1386   ar
  1770  1124  1126   ar
  1771  1124  1123   ar
  1772  1776  1777   ar
  1773  1872  1873    1
  1774  1872  1871    1
  1775  1839  1840    2
  1776  1777  1778   ar
  1777  1746  1745    1
  1778  1664  1663    1
  1779  1664  1668    1
  1780  1095  1097    1
  1781  1863  1864   ar
  1782  1678  1677   ar
  1783  1268  1266   ar
  1784  1257  1256    1
  1785  1260  1258    1
  1786  1100  1099    1
  1787  1220  1219    1
  1788  1220  1216    1
  1789  1220  1221    1
  1790  1237  1241    1
  1791  1237  1236    1
  1792  1271  1262   ar
  1793  1271  1265   ar
  1794  1675  1676   ar
  1795  1857  1866   ar
  1796  1857  1856    1
  1797  1716  1715   ar
  1798  1716  1718   ar
  1799  1663  1665    1
  1800  1752  1753    1
  1801  1752  1748    1
  1802  1761  1760   ar
  1803  1761  1762   ar
  1804  1692  1693   ar
  1805  1692  1691   ar
  1806  1241  1240    1
  1807  1241  1242    1
  1808  1126  1127   ar
  1809  1853  1854    1
  1810  1853  1851    1
  1811  1853  1855    1
  1812  1372  1374    1
  1813  1372  1361    1
  1814  1866  1865   ar
  1815  1390  1389   ar
  1816  1244  1243    2
  1817  1694  1693   ar
  1818  1694  1696   ar
  1819  1236  1235    1
  1820  1236  1238    1
  1821  1262  1263   ar
  1822  1219  1217    1
  1823  1386  1387   ar
  1824  1227  1225   ar
  1825  1145  1144    2
  1826  1823  1822   ar
  1827  1823  1824    1
  1828  1851  1852    1
  1829  1230  1221   ar
  1830  1230  1224   ar
  1831  1760  1759   ar
  1832  1780  1778   ar
  1833  1720  1718    1
  1834  1668  1667    1
  1835  1097  1099    1
  1836  1097  1098    1
  1837  1123  1121   ar
  1838  1753  1762   ar
  1839  1753  1754   ar
  1840  1665  1667    1
  1841  1665  1666    1
  1842  1256  1258    1
  1843  1256  1255    1
  1844  1715  1713   ar
  1845  1852  1856    1
  1846  1240  1238    1
  1847  1762  1756   ar
  1848  1266  1265   ar
  1849  1266  1267    1
  1850  1679  1680    2
  1851  1221  1222   ar
  1852  1366  1365    2
  1853  1235  1234    1
  1854  1693  1700   ar
  1855  1265  1264   ar
  1856  1778  1779    2
  1857  1215  1217    1
  1858  1215  1214    1
  1859  1389  1387   ar
  1860  1389  1391    1
  1861  1111  1109    2
  1862  1204  1203    2
  1863  1718  1719   ar
  1864  1864  1865   ar
  1865  1387  1388    2
  1866  1243  1242   ar
  1867  1243  1245   ar
  1868  1856  1855    1
  1869  1242  1249   ar
  1870  1691  1690   ar
  1871  1676  1677   ar
  1872  1258  1259    1
  1873  1263  1264   ar
  1874  1743  1742    2
  1875  1745  1742    1
  1876  1696  1697   ar
  1877  1759  1757   ar
  1878  1238  1239    1
  1879  1217  1218    1
  1880  1225  1224   ar
  1881  1225  1226    2
  1882  1278  1282    1
  1883  1278  1277    1
  1884  1754  1755   ar
  1885  1127  1120   ar
  1886  1254  1255    1
  1887  1254  1251    1
  1888  1239  1251    1
  1889  1224  1223   ar
  1890  1144  1146   ar
  1891  1144  1143   ar
  1892  1666  1682    1
  1893  1259  1272    1
  1894  1218  1231    1
  1895  1756  1757   ar
  1896  1756  1755   ar
  1897  1362  1360    1
  1898  1362  1363    1
  1899  1146  1147   ar
  1900  1098  1109    1
  1901  1188  1187   ar
  1902  1188  1189   ar
  1903  1187  1185   ar
  1904  1361  1360    1
  1905  1744  1742    1
  1906  1682  1683    1
  1907  1742  1729    1
  1908  1121  1120   ar
  1909  1121  1122    2
  1910  1757  1758    2
  1911  1222  1223   ar
  1912  1365  1367   ar
  1913  1365  1364   ar
  1914  1282  1283    1
  1915  1282  1281    1
  1916  1277  1276    1
  1917  1277  1279    1
  1918  1214  1213    1
  1919  1713  1714    2
  1920  1713  1712   ar
  1921  1245  1246   ar
  1922  1249  1248   ar
  1923  1276  1275    1
  1924  1367  1368   ar
  1925  1109  1112    1
  1926  1109  1110    1
  1927  1350  1349    1
  1928  1700  1690   ar
  1929  1700  1699   ar
  1930  1234  1231    1
  1931  1203  1205   ar
  1932  1203  1202   ar
  1933  1200  1201    1
  1934  1200  1198    1
  1935  1120  1119    1
  1936  1226  1758    1
  1937  1201  1202    1
  1938  1201  1197    1
  1939  1360  1358    1
  1940  1719  1712   ar
  1941  1690  1689    1
  1942  1143  1142   ar
  1943  1143  1150   ar
  1944  1189  1190   ar
  1945  1167  1166    1
  1946  1729  1728    1
  1947  1251  1253    2
  1948  1251  1252    1
  1949  1697  1699   ar
  1950  1697  1698    1
  1951  1283  1290   ar
  1952  1283  1284   ar
  1953  1148  1147    1
  1954  1147  1149   ar
  1955  1185  1186    1
  1956  1185  1184   ar
  1957  1205  1206   ar
  1958  1703  1701    2
  1959  1142  1141   ar
  1960  1363  1364    1
  1961  1363  1359    1
  1962  1285  1284    2
  1963  1231  1232    2
  1964  1231  1233    1
  1965  1275  1272    1
  1966  1272  1273    2
  1967  1272  1274    1
  1968  1712  1711    1
  1969  1281  1279    1
  1970  1290  1289   ar
  1971  1112  1113    1
  1972  1165  1166   ar
  1973  1165  1163   ar
  1974  1248  1246   ar
  1975  1248  1250    1
  1976  1202  1209   ar
  1977  1197  1196    1
  1978  1364  1371   ar
  1979  1246  1247    2
  1980  1348  1349   ar
  1981  1348  1346   ar
  1982  1284  1286   ar
  1983  1213  1210    1
  1984  1683  1684    1
  1985  1739  1740   ar
  1986  1739  1738   ar
  1987  1349  1351   ar
  1988  1279  1280    1
  1989  1368  1369    1
  1990  1368  1370   ar
  1991  1166  1168   ar
  1992  1164  1163    2
  1993  1740  1741   ar
  1994  1289  1287   ar
  1995  1198  1199    1
  1996  1198  1196    1
  1997  1199  1210    1
  1998  1196  1195    1
  1999  1685  1689    1
  2000  1685  1684    1
  2001  1119  1115    1
  2002  1119  1118    1
  2003  1115  1114    1
  2004  1150  1149   ar
  2005  1150  1140   ar
  2006  1286  1287   ar
  2007  1190  1184   ar
  2008  1190  1181   ar
  2009  1358  1359    1
  2010  1358  1357    1
  2011  1689  1688    1
  2012  1347  1346    2
  2013  1738  1736   ar
  2014  1163  1162   ar
  2015  1686  1684    1
  2016  1686  1688    1
  2017  1686  1687    1
  2018  1280  1291    1
  2019  1184  1183   ar
  2020  1287  1288    1
  2021  1141  1140   ar
  2022  1728  1730    1
  2023  1728  1726    1
  2024  1346  1345   ar
  2025  1113  1114    1
  2026  1206  1207    1
  2027  1206  1208   ar
  2028  1326  1325    1
  2029  1730  1731    1
  2030  1701  1687    1
  2031  1701  1704    1
  2032  1701  1702    1
  2033  1371  1370   ar
  2034  1351  1352   ar
  2035  1209  1208   ar
  2036  1210  1211    2
  2037  1210  1212    1
  2038  1711  1710    1
  2039  1711  1707    1
  2040  1731  1732    1
  2041  1731  1727    1
  2042  1741  1732   ar
  2043  1741  1735   ar
  2044  1140  1139    1
  2045  1114  1116    1
  2046  1118  1116    1
  2047  1704  1705    1
  2048  1168  1169   ar
  2049  1116  1117    1
  2050  1131  1129    2
  2051  1736  1735   ar
  2052  1736  1737    1
  2053  1723  1721    2
  2054  1181  1180    1
  2055  1181  1182   ar
  2056  1357  1356    1
  2057  1195  1194    1
  2058  1726  1727    1
  2059  1726  1725    1
  2060  1710  1708    1
  2061  1162  1169   ar
  2062  1162  1161    1
  2063  1183  1182   ar
  2064  1707  1706    1
  2065  1732  1733   ar
  2066  1180  1179    1
  2067  1180  1176    1
  2068  1735  1734   ar
  2069  1356  1353    1
  2070  1345  1352   ar
  2071  1345  1344   ar
  2072  1352  1342   ar
  2073  1179  1177    1
  2074  1292  1291    2
  2075  1291  1293    1
  2076  1291  1294    1
  2077  1325  1327   ar
  2078  1325  1324   ar
  2079  1708  1706    1
  2080  1708  1709    1
  2081  1327  1328   ar
  2082  1139  1135    1
  2083  1139  1138    1
  2084  1297  1296    1
  2085  1297  1301    1
  2086  1161  1160    1
  2087  1161  1157    1
  2088  1194  1191    1
  2089  1117  1129    1
  2090  1705  1706    1
  2091  1733  1734   ar
  2092  1129  1132    1
  2093  1129  1130    1
  2094  1721  1724    1
  2095  1721  1709    1
  2096  1721  1722    1
  2097  1295  1296    1
  2098  1295  1294    1
  2099  1135  1134    1
  2100  1176  1175    1
  2101  1296  1298    1
  2102  1725  1724    1
  2103  1160  1158    1
  2104  1344  1343   ar
  2105  1301  1302    1
  2106  1301  1300    1
  2107  1342  1341    1
  2108  1342  1343   ar
  2109  1132  1133    1
  2110  1324  1323   ar
  2111  1324  1330   ar
  2112  1340  1341    1
  2113  1340  1338    1
  2114  1138  1136    1
  2115  1353  1355    2
  2116  1353  1354    1
  2117  1353  1339    1
  2118  1323  1322   ar
  2119  1157  1156    1
  2120  1328  1329   ar
  2121  1309  1302   ar
  2122  1309  1308   ar
  2123  1177  1175    1
  2124  1177  1178    1
  2125  1302  1303   ar
  2126  1341  1337    1
  2127  1308  1306   ar
  2128  1175  1174    1
  2129  1303  1304    2
  2130  1303  1305   ar
  2131  1191  1178    1
  2132  1191  1192    2
  2133  1191  1193    1
  2134  1134  1136    1
  2135  1134  1133    1
  2136  1136  1137    1
  2137  1306  1305   ar
  2138  1306  1307    1
  2139  1300  1298    1
  2140  1338  1339    1
  2141  1338  1336    1
  2142  1330  1329   ar
  2143  1330  1321   ar
  2144  1298  1299    1
  2145  1158  1156    1
  2146  1158  1159    1
  2147  1322  1321   ar
  2148  1156  1155    1
  2149  1299  1310    1
  2150  1154  1155    1
  2151  1154  1151    1
  2152  1337  1336    1
  2153  1153  1151    2
  2154  1174  1173    1
  2155  1172  1170    2
  2156  1321  1320    1
  2157  1173  1170    1
  2158  1159  1170    1
  2159  1137  1151    1
  2160  1336  1335    1
  2161  1170  1171    1
  2162  1151  1152    1
  2163  1334  1335    1
  2164  1334  1331    1
  2165  1310  1312    2
  2166  1310  1313    1
  2167  1310  1311    1
  2168  1320  1319    1
  2169  1320  1316    1
  2170  1319  1317    1
  2171  1313  1314    1
  2172  1333  1331    2
  2173  1316  1315    1
  2174  1317  1315    1
  2175  1317  1318    1
  2176  1331  1318    1
  2177  1331  1332    1
  2178  1315  1314    1
