@<TRIPOS>MOLECULE
dna.pdb
 1946 2182 0 0 0
SMALL
GASTEIGER

@<TRIPOS>ATOM
      1  O5'       10.8720  -15.2180    0.3950 O.3     1  DA1        -0.2176
      2  C5'       10.5010  -15.9890   -0.7390 C.3     1  DA1         0.2141
      3  C4'        9.5830  -17.1070   -0.3250 C.3     1  DA1         0.1796
      4  O4'       10.1670  -17.7490    0.8260 O.3     1  DA1        -0.3156
      5  C3'        8.1780  -16.6790    0.0760 C.3     1  DA1         0.1582
      6  O3'        7.2950  -16.8650   -1.0270 O.3     1  DA1        -0.3138
      7  C2'        7.8380  -17.4870    1.3290 C.3     1  DA1         0.1122
      8  C1'        9.1780  -18.0790    1.7670 C.3     1  DA1         0.2867
      9  N9         9.7320  -17.6370    2.9480 N.pl3   1  DA1        -0.1530
     10  C8        10.0710  -16.3230    3.1380 C.3     1  DA1         0.3302
     11  N7        10.1040  -15.9620    4.4000 N.3     1  DA1        -0.0602
     12  C5         9.7620  -17.1180    5.0840 C.3     1  DA1         0.3211
     13  C6         9.6200  -17.3980    6.4550 C.2     1  DA1         0.4313
     14  N6         9.8140  -16.4940    7.4180 N.2     1  DA1         0.1484
     15  N1         9.2680  -18.6540    6.8040 N.2     1  DA1         0.0213
     16  C2         9.0750  -19.5590    5.8370 C.2     1  DA1         0.4719
     17  N3         9.1790  -19.4150    4.5180 N.2     1  DA1         0.0111
     18  C4         9.5290  -18.1570    4.2040 C.2     1  DA1         0.3383
     19  P          5.7530  -17.1270   -0.9510 P.3     2  DT2         0.2141
     20  OP1        5.0270  -17.3300   -2.2250 O.2     2  DT2        -0.5172
     21  OP2        5.0800  -16.4640    0.1880 O.3     2  DT2        -0.4373
     22  O5'        6.2300  -18.5400   -0.3640 O.3     2  DT2        -0.3114
     23  C5'        5.4560  -19.7070   -0.6030 C.3     2  DT2         0.1811
     24  C4'        4.5380  -20.0200    0.5500 C.3     2  DT2         0.1746
     25  O4'        5.3060  -20.1660    1.7710 O.3     2  DT2        -0.3327
     26  C3'        3.4970  -18.9590    0.8690 C.3     2  DT2         0.1558
     27  O3'        2.3400  -19.1100    0.0660 O.3     2  DT2        -0.3138
     28  C2'        3.2230  -19.1570    2.3560 C.3     2  DT2         0.0866
     29  C1'        4.5410  -19.7350    2.8760 C.3     2  DT2         0.2106
     30  N1         5.2530  -19.0860    3.7390 N.ar    2  DT2        -0.2559
     31  C2         5.1560  -19.2700    5.1050 C.ar    2  DT2         0.3545
     32  O2         4.6830  -20.2740    5.6080 O.2     2  DT2        -0.2443
     33  N3         5.6340  -18.2320    5.8670 N.ar    2  DT2        -0.1533
     34  C4         6.1870  -17.0540    5.4100 C.ar    2  DT2         0.2804
     35  O4         6.5740  -16.2130    6.2180 O.2     2  DT2        -0.2654
     36  C5         6.2520  -16.9370    3.9800 C.ar    2  DT2         0.0534
     37  C6         5.7940  -17.9320    3.2160 C.ar    2  DT2         0.0824
     38  C7         6.8370  -15.6910    3.3840 C.3     2  DT2         0.0377
     39  P          1.5610  -17.9230   -0.4830 P.3     3  DA3         0.2141
     40  OP1        0.3070  -17.7130   -1.2400 O.2     3  DA3        -0.5172
     41  OP2        2.5530  -16.8320   -0.3490 O.3     3  DA3        -0.4373
     42  O5'        1.2050  -18.3090    1.0280 O.3     3  DA3        -0.3114
     43  C5'       -0.0160  -18.9550    1.3450 C.3     3  DA3         0.1811
     44  C4'       -0.6280  -18.3180    2.5620 C.3     3  DA3         0.1746
     45  O4'        0.2170  -18.5850    3.7130 O.3     3  DA3        -0.3327
     46  C3'       -0.6970  -16.8020    2.5110 C.3     3  DA3         0.1558
     47  O3'       -1.7870  -16.2980    1.7570 O.3     3  DA3        -0.3138
     48  C2'       -0.7180  -16.4330    3.9860 C.3     3  DA3         0.0865
     49  C1'        0.2940  -17.4400    4.5320 C.3     3  DA3         0.2094
     50  N9         1.7110  -16.8410    4.4420 N.ar    3  DA3        -0.2714
     51  C8         2.6160  -16.8430    3.4130 C.ar    3  DA3         0.1815
     52  N7         3.6990  -16.1450    3.6600 N.ar    3  DA3        -0.2193
     53  C5         3.4910  -15.6510    4.9380 C.ar    3  DA3         0.1518
     54  C6         4.2720  -14.8360    5.7760 C.ar    3  DA3         0.1919
     55  N6         5.4710  -14.3580    5.4340 N.pl3   3  DA3        -0.1054
     56  N1         3.7730  -14.5260    6.9920 N.ar    3  DA3        -0.2040
     57  C2         2.5720  -15.0070    7.3340 C.ar    3  DA3         0.2016
     58  N3         1.7460  -15.7810    6.6340 N.ar    3  DA3        -0.2048
     59  C4         2.2700  -16.0700    5.4320 C.ar    3  DA3         0.1691
     60  P         -1.5300  -14.9720    0.5530 P.3     4  DC4         0.2141
     61  OP1       -2.6120  -14.8260   -0.4490 O.2     4  DC4        -0.5172
     62  OP2       -0.1320  -15.1880    0.0930 O.3     4  DC4        -0.4373
     63  O5'       -1.5670  -13.7250    1.5480 O.3     4  DC4        -0.3114
     64  C5'       -2.5680  -13.6410    2.5560 C.3     4  DC4         0.1811
     65  C4'       -2.0360  -12.9320    3.7810 C.3     4  DC4         0.1746
     66  O4'       -0.9360  -13.6870    4.3590 O.3     4  DC4        -0.3327
     67  C3'       -1.4690  -11.5390    3.5630 C.3     4  DC4         0.1558
     68  O3'       -2.4680  -10.5190    3.5470 O.3     4  DC4        -0.3138
     69  C2'       -0.5270  -11.3730    4.7490 C.3     4  DC4         0.0866
     70  C1'       -0.0010  -12.7930    4.9430 C.3     4  DC4         0.2106
     71  N1         1.3070  -13.0030    4.2390 N.ar    4  DC4        -0.2556
     72  C2         2.4450  -12.4500    4.8370 C.ar    4  DC4         0.3531
     73  O2         2.3170  -11.8270    5.9040 O.2     4  DC4        -0.2443
     74  N3         3.6490  -12.6100    4.2360 N.ar    4  DC4        -0.1739
     75  C4         3.7380  -13.2860    3.0900 C.ar    4  DC4         0.1759
     76  N4         4.9450  -13.4180    2.5350 N.pl3   4  DC4        -0.1070
     77  C5         2.5970  -13.8530    2.4680 C.ar    4  DC4         0.0566
     78  C6         1.4100  -13.6940    3.0640 C.ar    4  DC4         0.0849
     79  P         -2.2030   -9.0700    2.7430 P.3     5  DC5         0.2141
     80  OP1       -3.5480   -8.4780    2.9490 O.3     5  DC5        -0.4373
     81  OP2       -1.6050   -9.0910    1.3850 O.2     5  DC5        -0.5172
     82  O5'       -1.2010   -8.3010    3.7120 O.3     5  DC5        -0.3114
     83  C5'       -1.6680   -7.8250    4.9720 C.3     5  DC5         0.1812
     84  C4'       -0.5340   -7.3180    5.8140 C.3     5  DC5         0.1775
     85  O4'        0.4380   -8.3690    6.0450 O.3     5  DC5        -0.3326
     86  C3'        0.3030   -6.1950    5.2500 C.3     5  DC5         0.1864
     87  O3'       -0.3340   -4.9460    5.3450 O.3     5  DC5        -0.2133
     88  C2'        1.5480   -6.2840    6.1170 C.3     5  DC5         0.0895
     89  C1'        1.7210   -7.7940    6.2290 C.3     5  DC5         0.2107
     90  N1         2.6250   -8.1820    5.2060 N.ar    5  DC5        -0.2556
     91  C2         3.9920   -7.8790    5.2210 C.ar    5  DC5         0.3533
     92  O2         4.4330   -7.1530    6.1280 O.2     5  DC5        -0.2443
     93  N3         4.7900   -8.3830    4.2500 N.ar    5  DC5        -0.1708
     94  C4         4.2720   -9.1570    3.2950 C.ar    5  DC5         0.1945
     95  N4         5.0970   -9.6310    2.3590 N.4     5  DC5        -0.1114
     96  C5         2.8900   -9.4760    3.2620 C.ar    5  DC5         0.0600
     97  C6         2.1050   -8.9760    4.2230 C.ar    5  DC5         0.0852
     98  P          0.0120   -3.7260    4.2820 P.3     6  DA6         0.3939
     99  OP1       -1.1310   -3.5540    5.2060 O.3     6  DA6        -0.1496
    100  OP2       -0.2250   -3.8640    2.8260 O.3     6  DA6        -0.1425
    101  O5'        1.0340   -2.5180    4.5270 O.3     6  DA6        -0.2926
    102  C5'        1.4420   -2.1960    5.8530 C.3     6  DA6         0.1828
    103  C4'        2.8840   -1.7220    5.8790 C.3     6  DA6         0.1747
    104  O4'        3.7580   -2.8030    5.4780 O.3     6  DA6        -0.3327
    105  C3'        3.1910   -0.5880    4.9150 C.3     6  DA6         0.1558
    106  O3'        2.9380    0.6560    5.5610 O.3     6  DA6        -0.3138
    107  C2'        4.6790   -0.7780    4.6280 C.3     6  DA6         0.0865
    108  C1'        4.9080   -2.2750    4.8450 C.3     6  DA6         0.2094
    109  N9         5.2680   -2.9370    3.4760 N.ar    6  DA6        -0.2714
    110  C8         6.5260   -2.8670    2.9370 C.ar    6  DA6         0.1815
    111  N7         6.6830   -3.6020    1.8620 N.ar    6  DA6        -0.2193
    112  C5         5.4440   -4.1960    1.6830 C.ar    6  DA6         0.1518
    113  C6         4.9550   -5.0920    0.7150 C.ar    6  DA6         0.1919
    114  N6         5.6900   -5.5620   -0.2950 N.pl3   6  DA6        -0.1054
    115  N1         3.6700   -5.4920    0.8240 N.ar    6  DA6        -0.2040
    116  C2         2.9340   -5.0190    1.8370 C.ar    6  DA6         0.2016
    117  N3         3.2810   -4.1750    2.8060 N.ar    6  DA6        -0.2048
    118  C4         4.5630   -3.7970    2.6700 C.ar    6  DA6         0.1691
    119  P          2.1240    1.6330    5.0240 P.3     7  DG7         0.2141
    120  OP1        2.0230    2.5220    6.2130 O.3     7  DG7        -0.4373
    121  OP2        0.9850    1.5340    4.0760 O.2     7  DG7        -0.5172
    122  O5'        3.4360    2.0440    4.2280 O.3     7  DG7        -0.3114
    123  C5'        4.5800    2.4860    4.9320 C.3     7  DG7         0.1811
    124  C4'        5.5350    3.1490    3.9880 C.3     7  DG7         0.1746
    125  O4'        6.1630    2.1340    3.1590 O.3     7  DG7        -0.3327
    126  C3'        4.8880    4.0740    2.9770 C.3     7  DG7         0.1558
    127  O3'        4.5030    5.3370    3.4820 O.3     7  DG7        -0.3138
    128  C2'        5.9280    4.1100    1.8720 C.3     7  DG7         0.0865
    129  C1'        6.3540    2.6410    1.8420 C.3     7  DG7         0.2094
    130  N9         5.5560    1.8300    0.9960 N.ar    7  DG7        -0.2713
    131  C8         4.3800    1.1740    1.2700 C.ar    7  DG7         0.1816
    132  N7         3.8520    0.6040    0.2210 N.ar    7  DG7        -0.2173
    133  C5         4.7280    0.8980   -0.8070 C.ar    7  DG7         0.1748
    134  C6         4.6870    0.5520   -2.1820 C.ar    7  DG7         0.3023
    135  O6         3.8300   -0.1110   -2.7800 O.2     7  DG7        -0.2633
    136  N1         5.7810    1.0580   -2.8790 N.ar    7  DG7        -0.1709
    137  C2         6.7900    1.8050   -2.3200 C.ar    7  DG7         0.2606
    138  N2         7.7620    2.2030   -3.1520 N.pl3   7  DG7        -0.0859
    139  N3         6.8410    2.1350   -1.0440 N.ar    7  DG7        -0.1918
    140  C4         5.7890    1.6550   -0.3480 C.ar    7  DG7         0.1722
    141  P          3.0170    6.0370    2.9460 P.3     8  DC8         0.2141
    142  OP1        2.5070    7.0610    3.8930 O.3     8  DC8        -0.4373
    143  OP2        2.1160    4.9600    2.4570 O.2     8  DC8        -0.5172
    144  O5'        3.6060    6.7490    1.6510 O.3     8  DC8        -0.3114
    145  C5'        4.5490    7.8210    1.7620 C.3     8  DC8         0.1811
    146  C4'        5.1330    8.1290    0.4090 C.3     8  DC8         0.1746
    147  O4'        5.8750    6.9760   -0.0580 O.3     8  DC8        -0.3327
    148  C3'        4.1150    8.3850   -0.6910 C.3     8  DC8         0.1558
    149  O3'        3.6120    9.7120   -0.7030 O.3     8  DC8        -0.3138
    150  C2'        4.8790    8.0230   -1.9530 C.3     8  DC8         0.0866
    151  C1'        5.7210    6.8410   -1.4640 C.3     8  DC8         0.2106
    152  N1         5.0630    5.5520   -1.7410 N.ar    8  DC8        -0.2556
    153  C2         5.0090    5.0960   -3.0630 C.ar    8  DC8         0.3531
    154  O2         5.5450    5.7770   -3.9530 O.2     8  DC8        -0.2443
    155  N3         4.3740    3.9300   -3.3320 N.ar    8  DC8        -0.1739
    156  C4         3.8120    3.2320   -2.3440 C.ar    8  DC8         0.1759
    157  N4         3.1980    2.0890   -2.6580 N.pl3   8  DC8        -0.1070
    158  C5         3.8560    3.6770   -0.9980 C.ar    8  DC8         0.0566
    159  C6         4.4830    4.8290   -0.7360 C.ar    8  DC8         0.0849
    160  P          2.1360    9.9200   -1.0770 P.3     9  DT9         0.2141
    161  OP1        1.7870   11.3340   -0.7990 O.2     9  DT9        -0.5172
    162  OP2        1.3020    8.8290   -0.5240 O.3     9  DT9        -0.4373
    163  O5'        2.2480    9.7120   -2.6610 O.3     9  DT9        -0.3114
    164  C5'        3.0500   10.5970   -3.4310 C.3     9  DT9         0.1811
    165  C4'        3.2910   10.0330   -4.8180 C.3     9  DT9         0.1746
    166  O4'        3.8740    8.7150   -4.7010 O.3     9  DT9        -0.3327
    167  C3'        2.0380    9.8340   -5.6500 C.3     9  DT9         0.1558
    168  O3'        1.7810   11.0200   -6.3770 O.3     9  DT9        -0.3138
    169  C2'        2.4280    8.6940   -6.5840 C.3     9  DT9         0.0866
    170  C1'        3.4420    7.8950   -5.7660 C.3     9  DT9         0.2106
    171  N1         2.9120    6.7290   -5.2470 N.ar    9  DT9        -0.2559
    172  C2         2.8630    5.6080   -6.0540 C.ar    9  DT9         0.3545
    173  O2         3.3540    5.5700   -7.1690 O.2     9  DT9        -0.2443
    174  N3         2.2140    4.5270   -5.5090 N.ar    9  DT9        -0.1533
    175  C4         1.6230    4.4550   -4.2650 C.ar    9  DT9         0.2804
    176  O4         1.0770    3.4120   -3.9130 O.2     9  DT9        -0.2654
    177  C5         1.7150    5.6590   -3.4870 C.ar    9  DT9         0.0534
    178  C6         2.3400    6.7250   -3.9940 C.ar    9  DT9         0.0824
    179  C7         1.1010    5.6810   -2.1180 C.3     9  DT9         0.0377
    180  P          0.2690   11.3540   -6.8350 P.3    10  DT10        0.2141
    181  OP1        0.0730   12.7410   -7.3110 O.2    10  DT10       -0.5172
    182  OP2       -0.6460   10.7970   -5.7920 O.3    10  DT10       -0.4373
    183  O5'        0.2400   10.3710   -8.1030 O.3    10  DT10       -0.3114
    184  C5'        0.7980   10.7560   -9.3690 C.3    10  DT10        0.1811
    185  C4'        0.5180    9.7000  -10.4220 C.3    10  DT10        0.1746
    186  O4'        1.2780    8.4930  -10.1210 O.3    10  DT10       -0.3327
    187  C3'       -0.9330    9.2330  -10.5430 C.3    10  DT10        0.1558
    188  O3'       -1.7300   10.1460  -11.3150 O.3    10  DT10       -0.3138
    189  C2'       -0.7710    7.8280  -11.1270 C.3    10  DT10        0.0866
    190  C1'        0.4980    7.3510  -10.4210 C.3    10  DT10        0.2106
    191  N1         0.1270    6.6450   -9.1570 N.ar   10  DT10       -0.2559
    192  C2        -0.1480    5.2940   -9.2380 C.ar   10  DT10        0.3545
    193  O2        -0.0810    4.6630  -10.2780 O.2    10  DT10       -0.2443
    194  N3        -0.5080    4.7020   -8.0510 N.ar   10  DT10       -0.1533
    195  C4        -0.6180    5.3130   -6.8190 C.ar   10  DT10        0.2804
    196  O4        -0.9520    4.6470   -5.8420 O.2    10  DT10       -0.2654
    197  C5        -0.3170    6.7160   -6.8170 C.ar   10  DT10        0.0534
    198  C6         0.0360    7.3170   -7.9570 C.ar   10  DT10        0.0824
    199  C7        -0.4090    7.4700   -5.5240 C.3    10  DT10        0.0377
    200  P         -3.3280   10.2630  -11.1270 P.3    11  DA11        0.2141
    201  OP1       -3.9950   11.2600  -11.9960 O.2    11  DA11       -0.5172
    202  OP2       -3.7000   10.1650   -9.7000 O.3    11  DA11       -0.4373
    203  O5'       -3.5880    8.7830  -11.6800 O.3    11  DA11       -0.3114
    204  C5'       -3.0830    8.3270  -12.9280 C.3    11  DA11        0.1811
    205  C4'       -3.3800    6.8610  -13.1230 C.3    11  DA11        0.1746
    206  O4'       -2.6410    6.0710  -12.1560 O.3    11  DA11       -0.3327
    207  C3'       -4.8310    6.4650  -12.9170 C.3    11  DA11        0.1558
    208  O3'       -5.5970    6.6400  -14.0920 O.3    11  DA11       -0.3138
    209  C2'       -4.7460    5.0100  -12.4820 C.3    11  DA11        0.0865
    210  C1'       -3.4310    4.9850  -11.7090 C.3    11  DA11        0.2094
    211  N9        -3.5730    5.0140  -10.3020 N.ar   11  DA11       -0.2714
    212  C8        -3.5620    6.1140   -9.4840 C.ar   11  DA11        0.1815
    213  N7        -3.8540    5.8450   -8.2330 N.ar   11  DA11       -0.2193
    214  C5        -4.0720    4.4770   -8.2290 C.ar   11  DA11        0.1518
    215  C6        -4.4180    3.5770   -7.2060 C.ar   11  DA11        0.1919
    216  N6        -4.6120    3.9400   -5.9360 N.pl3  11  DA11       -0.1054
    217  N1        -4.5600    2.2760   -7.5380 N.ar   11  DA11       -0.2040
    218  C2        -4.3650    1.9130   -8.8110 C.ar   11  DA11        0.2016
    219  N3        -4.0360    2.6650   -9.8590 N.ar   11  DA11       -0.2048
    220  C4        -3.9040    3.9510   -9.4970 C.ar   11  DA11        0.1691
    221  P         -7.4410    6.6980  -14.0670 P.3    12  DT12        0.2141
    222  OP1       -8.0250    6.8340  -15.4290 O.2    12  DT12       -0.5172
    223  OP2       -7.9840    7.5180  -12.9350 O.3    12  DT12       -0.4373
    224  O5'       -7.5020    5.1460  -13.6790 O.3    12  DT12       -0.3114
    225  C5'       -7.9110    4.1650  -14.6430 C.3    12  DT12        0.1811
    226  C4'       -8.1380    2.8280  -13.9780 C.3    12  DT12        0.1746
    227  O4'       -7.1000    2.6410  -12.9800 O.3    12  DT12       -0.3327
    228  C3'       -9.4180    2.6680  -13.1730 C.3    12  DT12        0.1558
    229  O3'      -10.5510    2.2730  -13.9220 O.3    12  DT12       -0.3138
    230  C2'       -9.0610    1.5750  -12.1870 C.3    12  DT12        0.0866
    231  C1'       -7.6130    1.9080  -11.8790 C.3    12  DT12        0.2106
    232  N1        -7.5800    2.6730  -10.6810 N.ar   12  DT12       -0.2559
    233  C2        -7.7080    1.9440   -9.5150 C.ar   12  DT12        0.3545
    234  O2        -7.7440    0.7260   -9.4930 O.2    12  DT12       -0.2443
    235  N3        -7.7960    2.6940   -8.3670 N.ar   12  DT12       -0.1533
    236  C4        -7.7680    4.0700   -8.2710 C.ar   12  DT12        0.2804
    237  O4        -7.8570    4.6010   -7.1660 O.2    12  DT12       -0.2654
    238  C5        -7.6340    4.7550   -9.5250 C.ar   12  DT12        0.0534
    239  C6        -7.5460    4.0510  -10.6560 C.ar   12  DT12        0.0824
    240  C7        -7.5950    6.2540   -9.5260 C.3    12  DT12        0.0377
    241  P        -12.0460    2.6210  -13.3570 P.3    13  DT13        0.2141
    242  OP1      -12.9660    3.1530  -14.3890 O.2    13  DT13       -0.5172
    243  OP2      -12.2110    3.0680  -11.9530 O.3    13  DT13       -0.4373
    244  O5'      -12.0740    1.0190  -13.4090 O.3    13  DT13       -0.3114
    245  C5'      -13.2760    0.3000  -13.2120 C.3    13  DT13        0.1811
    246  C4'      -13.3310   -0.3180  -11.8270 C.3    13  DT13        0.1746
    247  O4'      -12.1260   -0.0850  -11.0550 O.3    13  DT13       -0.3327
    248  C3'      -14.3910    0.2630  -10.9080 C.3    13  DT13        0.1558
    249  O3'      -15.6950   -0.1440  -11.2860 O.3    13  DT13       -0.3138
    250  C2'      -13.9760   -0.3750   -9.5920 C.3    13  DT13        0.0866
    251  C1'      -12.4520   -0.3390   -9.6960 C.3    13  DT13        0.2106
    252  N1       -12.1550    0.6780   -8.7800 N.ar   13  DT13       -0.2559
    253  C2       -12.1280    0.6130   -7.4000 C.ar   13  DT13        0.3545
    254  O2       -12.4830   -0.3700   -6.7740 O.2    13  DT13       -0.2443
    255  N3       -11.6680    1.7470   -6.7740 N.ar   13  DT13       -0.1533
    256  C4       -11.2430    2.9120   -7.3770 C.ar   13  DT13        0.2804
    257  O4       -10.8560    3.8470   -6.6800 O.2    13  DT13       -0.2654
    258  C5       -11.3020    2.9020   -8.8110 C.ar   13  DT13        0.0534
    259  C6       -11.7450    1.8130   -9.4450 C.ar   13  DT13        0.0824
    260  C7       -10.8610    4.1250   -9.5590 C.3    13  DT13        0.0377
    261  P        -16.8480    0.8120  -11.1090 P.3    14  DC14        0.2141
    262  OP1      -18.0180    0.8020  -12.0220 O.2    14  DC14       -0.5172
    263  OP2      -15.7720    1.8150  -11.2930 O.3    14  DC14       -0.4373
    264  O5'      -17.3960    0.9490   -9.6220 O.3    14  DC14       -0.3114
    265  C5'      -18.2940   -0.0280   -9.0880 C.3    14  DC14        0.1811
    266  C4'      -18.2370   -0.0420   -7.5740 C.3    14  DC14        0.1746
    267  O4'      -16.8560   -0.0480   -7.1290 O.3    14  DC14       -0.3327
    268  C3'      -18.8630    1.1180   -6.8150 C.3    14  DC14        0.1558
    269  O3'      -20.2580    0.9360   -6.6420 O.3    14  DC14       -0.3138
    270  C2'      -18.1810    1.0170   -5.4630 C.3    14  DC14        0.0866
    271  C1'      -16.7810    0.5350   -5.8420 C.3    14  DC14        0.2106
    272  N1       -15.8540    1.7270   -5.9040 N.ar   14  DC14       -0.2556
    273  C2       -15.3980    2.2530   -4.6900 C.ar   14  DC14        0.3531
    274  O2       -15.7430    1.7000   -3.6320 O.2    14  DC14       -0.2443
    275  N3       -14.5970    3.3450   -4.7040 N.ar   14  DC14       -0.1739
    276  C4       -14.2530    3.9050   -5.8640 C.ar   14  DC14        0.1759
    277  N4       -13.4620    4.9800   -5.8280 N.pl3  14  DC14       -0.1070
    278  C5       -14.7050    3.3880   -7.1050 C.ar   14  DC14        0.0566
    279  C6       -15.4960    2.3090   -7.0870 C.ar   14  DC14        0.0849
    280  P        -21.1550    2.1430   -6.0550 P.3    15  DA15        0.2141
    281  OP1      -22.5830    1.8660   -6.3270 O.3    15  DA15       -0.4373
    282  OP2      -20.5150    3.3670   -6.5860 O.2    15  DA15       -0.5172
    283  O5'      -20.9100    2.2010   -4.4760 O.3    15  DA15       -0.3114
    284  C5'      -21.4760    1.1850   -3.6630 C.3    15  DA15        0.1811
    285  C4'      -21.1780    1.4130   -2.2060 C.3    15  DA15        0.1746
    286  O4'      -19.7530    1.2700   -1.9880 O.3    15  DA15       -0.3327
    287  C3'      -21.5160    2.8000   -1.6830 C.3    15  DA15        0.1558
    288  O3'      -22.8730    2.9280   -1.2940 O.3    15  DA15       -0.3138
    289  C2'      -20.5170    2.9950   -0.5480 C.3    15  DA15        0.0865
    290  C1'      -19.2930    2.2690   -1.1050 C.3    15  DA15        0.2094
    291  N9       -18.4370    3.1850   -1.8800 N.ar   15  DA15       -0.2714
    292  C8       -18.2290    3.1800   -3.2350 C.ar   15  DA15        0.1815
    293  N7       -17.4200    4.1260   -3.6490 N.ar   15  DA15       -0.2193
    294  C5       -17.0730    4.7980   -2.4880 C.ar   15  DA15        0.1518
    295  C6       -16.2400    5.9050   -2.2480 C.ar   15  DA15        0.1919
    296  N6       -15.5770    6.5530   -3.2090 N.pl3  15  DA15       -0.1054
    297  N1       -16.1100    6.3270   -0.9720 N.ar   15  DA15       -0.2040
    298  C2       -16.7740    5.6760   -0.0100 C.ar   15  DA15        0.2016
    299  N3       -17.5850    4.6250   -0.1110 N.ar   15  DA15       -0.2048
    300  C4       -17.6930    4.2310   -1.3900 C.ar   15  DA15        0.1691
    301  P        -23.6270    4.1910   -1.6720 P.3    16  DA16        0.2141
    302  OP1      -25.0800    4.2370   -1.3960 O.3    16  DA16       -0.4373
    303  OP2      -23.0810    4.7740   -2.9210 O.2    16  DA16       -0.5172
    304  O5'      -22.8480    4.9470   -0.4980 O.3    16  DA16       -0.3114
    305  C5'      -22.9070    4.4750    0.8390 C.3    16  DA16        0.1811
    306  C4'      -22.0950    5.3630    1.7460 C.3    16  DA16        0.1746
    307  O4'      -20.7000    5.3230    1.3490 O.3    16  DA16       -0.3327
    308  C3'      -22.4570    6.8390    1.7000 C.3    16  DA16        0.1558
    309  O3'      -23.5490    7.1540    2.5460 O.3    16  DA16       -0.3138
    310  C2'      -21.1580    7.5180    2.1080 C.3    16  DA16        0.0865
    311  C1'      -20.1170    6.6050    1.4690 C.3    16  DA16        0.2094
    312  N9       -19.7340    7.0480    0.1070 N.ar   16  DA16       -0.2714
    313  C8       -20.2510    6.6580   -1.1010 C.ar   16  DA16        0.1815
    314  N7       -19.6840    7.2400   -2.1310 N.ar   16  DA16       -0.2193
    315  C5       -18.7310    8.0680   -1.5610 C.ar   16  DA16        0.1518
    316  C6       -17.7930    8.9550   -2.1190 C.ar   16  DA16        0.1919
    317  N6       -17.6590    9.1600   -3.4310 N.pl3  16  DA16       -0.1054
    318  N1       -16.9890    9.6320   -1.2710 N.ar   16  DA16       -0.2040
    319  C2       -17.1240    9.4250    0.0440 C.ar   16  DA16        0.2016
    320  N3       -17.9650    8.6190    0.6860 N.ar   16  DA16       -0.2048
    321  C4       -18.7510    7.9620   -0.1840 C.ar   16  DA16        0.1691
    322  P        -24.4860    8.4300    2.2820 P.3    17  DT17        0.2141
    323  OP1      -25.7100    8.5650    3.1250 O.3    17  DT17       -0.4373
    324  OP2      -24.6210    8.0560    0.8580 O.2    17  DT17       -0.5172
    325  O5'      -23.6740    9.8040    2.3360 O.3    17  DT17       -0.3114
    326  C5'      -23.3340   10.4110    3.5920 C.3    17  DT17        0.1811
    327  C4'      -22.2920   11.4860    3.4000 C.3    17  DT17        0.1746
    328  O4'      -21.1460   10.9330    2.7010 O.3    17  DT17       -0.3327
    329  C3'      -22.6810   12.6760    2.5400 C.3    17  DT17        0.1558
    330  O3'      -23.4500   13.6170    3.2700 O.3    17  DT17       -0.3138
    331  C2'      -21.3180   13.2330    2.1660 C.3    17  DT17        0.0866
    332  C1'      -20.5400   11.9460    1.9130 C.3    17  DT17        0.2106
    333  N1       -20.6170   11.6370    0.5160 N.ar   17  DT17       -0.2559
    334  C2       -19.7150   12.2000   -0.3660 C.ar   17  DT17        0.3545
    335  O2       -18.8490   12.9850   -0.0210 O.2    17  DT17       -0.2443
    336  N3       -19.8630   11.8110   -1.6750 N.ar   17  DT17       -0.1533
    337  C4       -20.8010   10.9350   -2.1790 C.ar   17  DT17        0.2804
    338  O4       -20.8080   10.6820   -3.3820 O.2    17  DT17       -0.2654
    339  C5       -21.7020   10.3940   -1.2010 C.ar   17  DT17        0.0534
    340  C6       -21.5810   10.7550    0.0790 C.ar   17  DT17        0.0824
    341  C7       -22.7600    9.4310   -1.6510 C.3    17  DT17        0.0377
    342  P        -24.3420   14.7120    2.4740 P.3    18  DT18        0.2141
    343  OP1      -25.7180   14.6510    3.0200 O.3    18  DT18       -0.4373
    344  OP2      -24.1250   14.6530    1.0020 O.2    18  DT18       -0.5172
    345  O5'      -23.6120   16.0000    3.0510 O.3    18  DT18       -0.3114
    346  C5'      -23.4790   17.1850    2.2670 C.3    18  DT18        0.1811
    347  C4'      -22.0310   17.6130    2.2110 C.3    18  DT18        0.1746
    348  O4'      -21.2160   16.5120    1.7350 O.3    18  DT18       -0.3327
    349  C3'      -21.7800   18.7360    1.2250 C.3    18  DT18        0.1558
    350  O3'      -21.9700   19.9950    1.8190 O.3    18  DT18       -0.3138
    351  C2'      -20.3420   18.5220    0.8100 C.3    18  DT18        0.0866
    352  C1'      -20.2380   16.9960    0.8300 C.3    18  DT18        0.2106
    353  N1       -20.5800   16.3150   -0.5320 N.ar   18  DT18       -0.2559
    354  C2       -19.6840   16.4130   -1.5790 C.ar   18  DT18        0.3545
    355  O2       -18.7030   17.1360   -1.5490 O.2    18  DT18       -0.2443
    356  N3       -19.9770   15.6320   -2.6710 N.ar   18  DT18       -0.1533
    357  C4       -21.0530   14.7810   -2.8170 C.ar   18  DT18        0.2804
    358  O4       -21.1830   14.1430   -3.8590 O.2    18  DT18       -0.2654
    359  C5       -21.9380   14.7350   -1.6870 C.ar   18  DT18        0.0534
    360  C6       -21.6760   15.4840   -0.6130 C.ar   18  DT18        0.0824
    361  C7       -23.1390   13.8390   -1.7490 C.3    18  DT18        0.0377
    362  P        -22.5270   20.9440    1.0190 P.3    19  DA19        0.2141
    363  OP1      -22.8230   21.8720    2.1340 O.3    19  DA19       -0.4373
    364  OP2      -23.6100   20.4800    0.1220 O.2    19  DA19       -0.5172
    365  O5'      -21.4580   21.6120    0.0350 O.3    19  DA19       -0.3114
    366  C5'      -20.0940   21.6150    0.4370 C.3    19  DA19        0.1812
    367  C4'      -19.1690   21.8610   -0.7270 C.3    19  DA19        0.1775
    368  O4'      -18.9220   20.6250   -1.4380 O.3    19  DA19       -0.3326
    369  C3'      -19.6960   22.8220   -1.7760 C.3    19  DA19        0.1864
    370  O3'      -19.4530   24.1650   -1.3970 O.3    19  DA19       -0.2133
    371  C2'      -18.9960   22.3720   -3.0560 C.3    19  DA19        0.0894
    372  C1'      -18.8480   20.8670   -2.8250 C.3    19  DA19        0.2095
    373  N9       -19.7900   20.1380   -3.5250 N.ar   19  DA19       -0.2714
    374  C8       -21.0110   19.7210   -3.0610 C.ar   19  DA19        0.1815
    375  N7       -21.7380   19.1070   -3.9640 N.ar   19  DA19       -0.2193
    376  C5       -20.9410   19.1220   -5.0980 C.ar   19  DA19        0.1518
    377  C6       -21.1390   18.6270   -6.3990 C.ar   19  DA19        0.1919
    378  N6       -22.2480   17.9950   -6.7900 N.pl3  19  DA19       -0.1054
    379  N1       -20.1450   18.8070   -7.2950 N.ar   19  DA19       -0.2040
    380  C2       -19.0330   19.4410   -6.9030 C.ar   19  DA19        0.2016
    381  N3       -18.7320   19.9490   -5.7100 N.ar   19  DA19       -0.2048
    382  C4       -19.7390   19.7540   -4.8430 C.ar   19  DA19        0.1691
    383  P        -19.8990   25.4860   -2.3430 P.3    20  DA20        0.3939
    384  OP1      -18.9140   25.6780   -1.2530 O.3    20  DA20       -0.1496
    385  OP2      -20.9580   26.5150   -2.5400 O.3    20  DA20       -0.1425
    386  O5'      -19.1710   25.3080   -3.7550 O.3    20  DA20       -0.2926
    387  C5'      -17.7870   24.9320   -3.8730 C.3    20  DA20        0.1828
    388  C4'      -17.4920   24.5540   -5.3060 C.3    20  DA20        0.1747
    389  O4'      -17.8840   23.1780   -5.5580 O.3    20  DA20       -0.3327
    390  C3'      -18.2800   25.3630   -6.3210 C.3    20  DA20        0.1558
    391  O3'      -17.6500   26.6010   -6.5940 O.3    20  DA20       -0.3138
    392  C2'      -18.3190   24.4430   -7.5330 C.3    20  DA20        0.0865
    393  C1'      -18.4290   23.0690   -6.8640 C.3    20  DA20        0.2094
    394  N9       -19.8610   22.6430   -6.7620 N.ar   20  DA20       -0.2714
    395  C8       -20.7610   22.7250   -5.7320 C.ar   20  DA20        0.1815
    396  N7       -21.9550   22.2740   -6.0350 N.ar   20  DA20       -0.2193
    397  C5       -21.8310   21.8690   -7.3540 C.ar   20  DA20        0.1518
    398  C6       -22.7450   21.2980   -8.2580 C.ar   20  DA20        0.1919
    399  N6       -24.0160   21.0270   -7.9520 N.pl3  20  DA20       -0.1054
    400  N1       -22.3010   21.0130   -9.5010 N.ar   20  DA20       -0.2040
    401  C2       -21.0270   21.2850   -9.8060 C.ar   20  DA20        0.2016
    402  N3       -20.0760   21.8180   -9.0440 N.ar   20  DA20       -0.2048
    403  C4       -20.5480   22.0910   -7.8160 C.ar   20  DA20        0.1691
    404  P        -18.5020   28.0070   -6.5190 P.3    21  DT21        0.2141
    405  OP1      -17.4990   29.0920   -6.5740 O.2    21  DT21       -0.5172
    406  OP2      -19.7410   28.1280   -5.7180 O.3    21  DT21       -0.4373
    407  O5'      -19.0400   27.7290   -7.9900 O.3    21  DT21       -0.3114
    408  C5'      -18.0880   27.5980   -9.0260 C.3    21  DT21        0.1811
    409  C4'      -18.7930   27.3270  -10.3230 C.3    21  DT21        0.1746
    410  O4'      -19.3770   26.0030  -10.2620 O.3    21  DT21       -0.3327
    411  C3'      -19.9710   28.2320  -10.6570 C.3    21  DT21        0.1558
    412  O3'      -19.5740   29.4720  -11.2170 O.3    21  DT21       -0.3138
    413  C2'      -20.7390   27.3630  -11.6370 C.3    21  DT21        0.0866
    414  C1'      -20.5730   25.9830  -11.0050 C.3    21  DT21        0.2106
    415  N1       -21.6880   25.6340  -10.0900 N.ar   21  DT21       -0.2559
    416  C2       -22.8030   25.0260  -10.6340 C.ar   21  DT21        0.3545
    417  O2       -22.9010   24.7550  -11.8180 O.2    21  DT21       -0.2443
    418  N3       -23.8070   24.7440   -9.7390 N.ar   21  DT21       -0.1533
    419  C4       -23.8070   25.0050   -8.3840 C.ar   21  DT21        0.2804
    420  O4       -24.7840   24.6920   -7.7080 O.2    21  DT21       -0.2654
    421  C5       -22.6150   25.6380   -7.8950 C.ar   21  DT21        0.0534
    422  C6       -21.6240   25.9230   -8.7440 C.ar   21  DT21        0.0824
    423  C7       -22.5190   25.9630   -6.4340 C.3    21  DT21        0.0377
    424  P        -20.5120   30.7840  -11.3060 P.3    22  DC22        0.2141
    425  OP1      -19.8180   31.9960  -11.7960 O.2    22  DC22       -0.5172
    426  OP2      -21.2920   30.8110  -10.0460 O.3    22  DC22       -0.4373
    427  O5'      -21.5740   30.3010  -12.4060 O.3    22  DC22       -0.3114
    428  C5'      -21.2570   30.3860  -13.7870 C.3    22  DC22        0.1811
    429  C4'      -22.0800   29.4360  -14.6240 C.3    22  DC22        0.1746
    430  O4'      -22.2730   28.1880  -13.9140 O.3    22  DC22       -0.3327
    431  C3'      -23.4910   29.8730  -14.9770 C.3    22  DC22        0.1558
    432  O3'      -23.5170   30.7740  -16.0690 O.3    22  DC22       -0.3138
    433  C2'      -24.1520   28.5430  -15.3000 C.3    22  DC22        0.0866
    434  C1'      -23.5020   27.6170  -14.2810 C.3    22  DC22        0.2106
    435  N1       -24.3110   27.4280  -13.0710 N.ar   22  DC22       -0.2556
    436  C2       -25.4680   26.6400  -13.0590 C.ar   22  DC22        0.3531
    437  O2       -25.9850   26.3200  -14.1430 O.2    22  DC22       -0.2443
    438  N3       -25.9890   26.2530  -11.8700 N.ar   22  DC22       -0.1739
    439  C4       -25.4010   26.6220  -10.7320 C.ar   22  DC22        0.1759
    440  N4       -25.9500   26.2160   -9.5850 N.pl3  22  DC22       -0.1070
    441  C5       -24.2280   27.4200  -10.7230 C.ar   22  DC22        0.0566
    442  C6       -23.7170   27.8010  -11.8990 C.ar   22  DC22        0.0849
    443  P        -24.9470   31.7260  -16.4260 P.3    23  DG23        0.2141
    444  OP1      -25.3140   32.5970  -17.5660 O.2    23  DG23       -0.5172
    445  OP2      -24.8610   32.2790  -15.0560 O.3    23  DG23       -0.4373
    446  O5'      -26.0000   30.5300  -16.2960 O.3    23  DG23       -0.3114
    447  C5'      -26.3400   29.7210  -17.4120 C.3    23  DG23        0.1811
    448  C4'      -27.5580   28.9000  -17.0950 C.3    23  DG23        0.1746
    449  O4'      -27.2140   27.8660  -16.1380 O.3    23  DG23       -0.3327
    450  C3'      -28.6670   29.6730  -16.4050 C.3    23  DG23        0.1558
    451  O3'      -29.4510   30.4340  -17.3040 O.3    23  DG23       -0.3138
    452  C2'      -29.4320   28.5840  -15.6670 C.3    23  DG23        0.0865
    453  C1'      -28.2900   27.6560  -15.2470 C.3    23  DG23        0.2094
    454  N9       -27.7730   27.8890  -13.8520 N.ar   23  DG23       -0.2713
    455  C8       -26.6700   28.5840  -13.4190 C.ar   23  DG23        0.1816
    456  N7       -26.5940   28.6730  -12.1190 N.ar   23  DG23       -0.2173
    457  C5       -27.7100   27.9960  -11.6630 C.ar   23  DG23        0.1748
    458  C6       -28.1690   27.7560  -10.3420 C.ar   23  DG23        0.3023
    459  O6       -27.6530   28.1120   -9.2760 O.2    23  DG23       -0.2633
    460  N1       -29.3530   27.0240  -10.3280 N.ar   23  DG23       -0.1709
    461  C2       -30.0130   26.5770  -11.4480 C.ar   23  DG23        0.2606
    462  N2       -31.1410   25.8860  -11.2330 N.pl3  23  DG23       -0.0859
    463  N3       -29.5990   26.7930  -12.6810 N.ar   23  DG23       -0.1918
    464  C4       -28.4520   27.5030  -12.7190 C.ar   23  DG23        0.1722
    465  P        -29.7830   31.7890  -16.9560 P.3    24  DC24        0.2141
    466  OP1      -30.2690   32.7390  -17.9780 O.2    24  DC24       -0.5172
    467  OP2      -28.7650   32.3020  -16.0020 O.3    24  DC24       -0.4373
    468  O5'      -31.0330   31.2140  -16.1180 O.3    24  DC24       -0.3114
    469  C5'      -32.1380   30.6540  -16.8180 C.3    24  DC24        0.1811
    470  C4'      -32.9900   29.7220  -15.9740 C.3    24  DC24        0.1746
    471  O4'      -32.1770   28.7560  -15.2580 O.3    24  DC24       -0.3327
    472  C3'      -33.7840   30.3880  -14.8560 C.3    24  DC24        0.1558
    473  O3'      -34.9260   31.0310  -15.3370 O.3    24  DC24       -0.3138
    474  C2'      -34.1310   29.1870  -13.9930 C.3    24  DC24        0.0866
    475  C1'      -32.7550   28.5310  -13.9760 C.3    24  DC24        0.2106
    476  N1       -31.9100   29.2050  -12.8300 N.ar   24  DC24       -0.2556
    477  C2       -32.1730   28.9520  -11.4780 C.ar   24  DC24        0.3531
    478  O2       -33.2190   28.3540  -11.1740 O.2    24  DC24       -0.2443
    479  N3       -31.2830   29.3670  -10.5450 N.ar   24  DC24       -0.1739
    480  C4       -30.1740   30.0070  -10.9170 C.ar   24  DC24        0.1759
    481  N4       -29.3270   30.3970   -9.9620 N.pl3  24  DC24       -0.1070
    482  C5       -29.8890   30.2730  -12.2810 C.ar   24  DC24        0.0566
    483  C6       -30.7700   29.8610  -13.2000 C.ar   24  DC24        0.0849
    484  P        -34.9700   32.4390  -15.0130 P.3    25  DA25        0.2141
    485  OP1      -35.9890   32.7670  -16.0980 O.2    25  DA25       -0.5172
    486  OP2      -33.8110   33.3630  -15.0450 O.3    25  DA25       -0.4373
    487  O5'      -35.5020   32.3070  -13.5300 O.3    25  DA25       -0.3114
    488  C5'      -36.8900   32.5370  -13.1590 C.3    25  DA25        0.1811
    489  C4'      -36.9840   32.2870  -11.6710 C.3    25  DA25        0.1746
    490  O4'      -35.9460   31.4140  -11.2470 O.3    25  DA25       -0.3327
    491  C3'      -36.7920   33.5360  -10.8160 C.3    25  DA25        0.1558
    492  O3'      -37.9590   34.3560  -10.7500 O.3    25  DA25       -0.3138
    493  C2'      -36.3960   32.9020   -9.4730 C.3    25  DA25        0.0865
    494  C1'      -35.4780   31.8130   -9.9290 C.3    25  DA25        0.2094
    495  N9       -34.0920   32.2130   -9.9730 N.ar   25  DA25       -0.2714
    496  C8       -33.3300   32.1380  -11.1100 C.ar   25  DA25        0.1815
    497  N7       -32.0640   32.4260  -10.9180 N.ar   25  DA25       -0.2193
    498  C5       -31.9900   32.7100   -9.5630 C.ar   25  DA25        0.1518
    499  C6       -30.9200   33.0850   -8.7320 C.ar   25  DA25        0.1919
    500  N6       -29.6680   33.2450   -9.1660 N.pl3  25  DA25       -0.1054
    501  N1       -31.1850   33.2940   -7.4250 N.ar   25  DA25       -0.2040
    502  C2       -32.4400   33.1330   -6.9900 C.ar   25  DA25        0.2016
    503  N3       -33.5280   32.7820   -7.6730 N.ar   25  DA25       -0.2048
    504  C4       -33.2310   32.5840   -8.9680 C.ar   25  DA25        0.1691
    505  P        -37.5380   35.5190  -11.4540 P.3    26  DT26        0.2141
    506  OP1      -38.9310   36.0330  -11.4830 O.3    26  DT26       -0.4373
    507  OP2      -36.5220   36.0850  -12.3760 O.2    26  DT26       -0.5172
    508  O5'      -36.9950   35.6970   -9.9710 O.3    26  DT26       -0.3114
    509  C5'      -37.8990   35.8590   -8.8920 C.3    26  DT26        0.1811
    510  C4'      -37.2290   36.5980   -7.7660 C.3    26  DT26        0.1746
    511  O4'      -36.2600   35.7320   -7.1190 O.3    26  DT26       -0.3327
    512  C3'      -36.4580   37.8380   -8.1940 C.3    26  DT26        0.1558
    513  O3'      -37.3320   38.9770   -8.2020 O.3    26  DT26       -0.3138
    514  C2'      -35.4260   37.9500   -7.0780 C.3    26  DT26        0.0866
    515  C1'      -35.1070   36.4770   -6.7910 C.3    26  DT26        0.2106
    516  N1       -33.8240   36.4780   -7.7450 N.ar   26  DT26       -0.2559
    517  C2       -32.5780   36.7010   -7.1890 C.ar   26  DT26        0.3545
    518  O2       -32.4200   37.0720   -6.0400 O.2    26  DT26       -0.2443
    519  N3       -31.5170   36.4750   -8.0320 N.ar   26  DT26       -0.1533
    520  C4       -31.5750   36.0570   -9.3450 C.ar   26  DT26        0.2804
    521  O4       -30.5330   35.8950   -9.9760 O.2    26  DT26       -0.2654
    522  C5       -32.9030   35.8480   -9.8490 C.ar   26  DT26        0.0534
    523  C6       -33.9530   36.0610   -9.0510 C.ar   26  DT26        0.0824
    524  C7       -33.0710   35.3930  -11.2680 C.3    26  DT26        0.0377
    525  P        -37.8820   39.9580   -9.7860 P.3    27  DT27        0.2141
    526  OP1      -38.4950   39.3420  -10.9850 O.2    27  DT27       -0.5172
    527  OP2      -36.4550   40.3440   -9.7490 O.3    27  DT27       -0.4373
    528  O5'      -38.6590   41.3160   -9.4440 O.3    27  DT27       -0.3114
    529  C5'      -40.0210   41.4760   -9.8100 C.3    27  DT27        0.1811
    530  C4'      -40.3780   42.9200  -10.0760 C.3    27  DT27        0.1746
    531  O4'      -40.1620   43.7140   -8.8810 O.3    27  DT27       -0.3327
    532  C3'      -39.5680   43.6380  -11.1440 C.3    27  DT27        0.1558
    533  O3'      -39.9920   43.3440  -12.4630 O.3    27  DT27       -0.3138
    534  C2'      -39.7660   45.1010  -10.7630 C.3    27  DT27        0.0866
    535  C1'      -39.7440   45.0140   -9.2390 C.3    27  DT27        0.2106
    536  N1       -38.2830   45.1160   -8.5670 N.ar   27  DT27       -0.2559
    537  C2       -37.8380   46.4120   -8.3880 C.ar   27  DT27        0.3545
    538  O2       -38.4860   47.3890   -8.7210 O.2    27  DT27       -0.2443
    539  N3       -36.6000   46.5260   -7.8030 N.ar   27  DT27       -0.1533
    540  C4       -35.7800   45.4970   -7.3890 C.ar   27  DT27        0.2804
    541  O4       -34.6940   45.7570   -6.8780 O.2    27  DT27       -0.2654
    542  C5       -36.3120   44.1810   -7.6100 C.ar   27  DT27        0.0534
    543  C6       -37.5130   44.0420   -8.1770 C.ar   27  DT27        0.0824
    544  C7       -35.4950   42.9940   -7.1940 C.3    27  DT27        0.0377
    545  P        -38.8630   42.6650  -13.5030 P.3    28  DA28        0.2141
    546  OP1      -39.2150   41.8050  -14.6610 O.2    28  DA28       -0.5172
    547  OP2      -37.9720   42.0900  -12.4610 O.3    28  DA28       -0.4373
    548  O5'      -38.2070   44.0320  -14.0330 O.3    28  DA28       -0.3114
    549  C5'      -38.6440   44.6400  -15.2440 C.3    28  DA28        0.1811
    550  C4'      -37.7250   45.7810  -15.6500 C.3    28  DA28        0.1746
    551  O4'      -37.9460   46.9360  -14.8010 O.3    28  DA28       -0.3327
    552  C3'      -36.2350   45.5090  -15.5160 C.3    28  DA28        0.1558
    553  O3'      -35.7480   44.8830  -16.6730 O.3    28  DA28       -0.3138
    554  C2'      -35.6610   46.9060  -15.4050 C.3    28  DA28        0.0865
    555  C1'      -36.7140   47.5880  -14.5410 C.3    28  DA28        0.2094
    556  N9       -36.4800   47.5130  -13.0570 N.ar   28  DA28       -0.2714
    557  C8       -36.9900   46.6630  -12.1100 C.ar   28  DA28        0.1815
    558  N7       -36.4860   46.8430  -10.9120 N.ar   28  DA28       -0.2193
    559  C5       -35.5840   47.8810  -11.0830 C.ar   28  DA28        0.1518
    560  C6       -34.7250   48.5440  -10.1900 C.ar   28  DA28        0.1919
    561  N6       -34.6330   48.2450   -8.8920 N.pl3  28  DA28       -0.1054
    562  N1       -33.9540   49.5370  -10.6840 N.ar   28  DA28       -0.2040
    563  C2       -34.0470   49.8360  -11.9840 C.ar   28  DA28        0.2016
    564  N3       -34.8160   49.2860  -12.9210 N.ar   28  DA28       -0.2048
    565  C4       -35.5690   48.3030  -12.3990 C.ar   28  DA28        0.1691
    566  P        -34.3840   43.8460  -16.5590 P.3    29  DC29        0.2141
    567  OP1      -33.9100   43.3180  -17.8690 O.2    29  DC29       -0.5172
    568  OP2      -34.1260   43.0670  -15.3120 O.3    29  DC29       -0.4373
    569  O5'      -33.7380   45.2870  -16.3830 O.3    29  DC29       -0.3114
    570  C5'      -32.3450   45.3950  -16.2440 C.3    29  DC29        0.1811
    571  C4'      -31.9530   46.7770  -15.8340 C.3    29  DC29        0.1746
    572  O4'      -32.9540   47.3660  -14.9800 O.3    29  DC29       -0.3327
    573  C3'      -30.7100   46.7200  -14.9800 C.3    29  DC29        0.1558
    574  O3'      -29.5670   46.5990  -15.7770 O.3    29  DC29       -0.3138
    575  C2'      -30.8110   47.9700  -14.1410 C.3    29  DC29        0.0866
    576  C1'      -32.3220   48.0320  -13.8990 C.3    29  DC29        0.2106
    577  N1       -32.6110   47.3320  -12.8530 N.ar   29  DC29       -0.2556
    578  C2       -32.2800   47.7040  -11.5450 C.ar   29  DC29        0.3531
    579  O2       -31.5910   48.7240  -11.3700 O.2    29  DC29       -0.2443
    580  N3       -32.7150   46.9430  -10.5120 N.ar   29  DC29       -0.1739
    581  C4       -33.4510   45.8560  -10.7480 C.ar   29  DC29        0.1759
    582  N4       -33.8580   45.1380   -9.6990 N.pl3  29  DC29       -0.1070
    583  C5       -33.7980   45.4620  -12.0660 C.ar   29  DC29        0.0566
    584  C6       -33.3650   46.2160  -13.0830 C.ar   29  DC29        0.0849
    585  P        -28.6930   45.0500  -15.8080 P.3    30  DC30        0.2141
    586  OP1      -27.8600   44.7230  -16.9850 O.2    30  DC30       -0.5172
    587  OP2      -29.0980   43.9940  -14.8470 O.3    30  DC30       -0.4373
    588  O5'      -27.9650   46.2270  -15.0140 O.3    30  DC30       -0.3114
    589  C5'      -26.6740   46.0660  -14.4510 C.3    30  DC30        0.1811
    590  C4'      -26.5590   46.9550  -13.2290 C.3    30  DC30        0.1746
    591  O4'      -27.8720   47.4350  -12.8340 O.3    30  DC30       -0.3327
    592  C3'      -26.0790   46.2590  -11.9700 C.3    30  DC30        0.1558
    593  O3'      -24.6950   46.0820  -12.0150 O.3    30  DC30       -0.3138
    594  C2'      -26.5400   47.2590  -10.9170 C.3    30  DC30        0.0866
    595  C1'      -27.9700   47.4340  -11.4160 C.3    30  DC30        0.2106
    596  N1       -28.9230   45.9880  -10.9140 N.ar   30  DC30       -0.2556
    597  C2       -29.2280   45.7860   -9.5630 C.ar   30  DC30        0.3531
    598  O2       -28.5430   46.3640   -8.7020 O.2    30  DC30       -0.2443
    599  N3       -30.2570   44.9680   -9.2340 N.ar   30  DC30       -0.1739
    600  C4       -30.9650   44.3680  -10.1920 C.ar   30  DC30        0.1759
    601  N4       -31.9690   43.5710   -9.8200 N.pl3  30  DC30       -0.1070
    602  C5       -30.6720   44.5600  -11.5670 C.ar   30  DC30        0.0566
    603  C6       -29.6550   45.3680  -11.8870 C.ar   30  DC30        0.0849
    604  P        -24.4530   44.8730  -12.6670 P.3    31  DT31        0.2141
    605  OP1      -23.2520   44.4420  -13.4320 O.2    31  DT31       -0.5172
    606  OP2      -25.7600   44.2340  -12.8190 O.3    31  DT31       -0.4373
    607  O5'      -24.0730   44.6510  -11.1140 O.3    31  DT31       -0.3114
    608  C5'      -22.9050   45.2420  -10.5450 C.3    31  DT31        0.1811
    609  C4'      -23.0650   45.1830   -9.0400 C.3    31  DT31        0.1746
    610  O4'      -24.3180   45.7900   -8.5850 O.3    31  DT31       -0.3327
    611  C3'      -23.1490   43.7670   -8.4720 C.3    31  DT31        0.1558
    612  O3'      -21.8800   43.1400   -8.4780 O.3    31  DT31       -0.3138
    613  C2'      -23.5490   44.1880   -7.0720 C.3    31  DT31        0.0866
    614  C1'      -24.6400   45.2140   -7.3720 C.3    31  DT31        0.2106
    615  N1       -25.9840   44.6830   -7.4030 N.ar   31  DT31       -0.2559
    616  C2       -26.5910   44.4120   -6.1910 C.ar   31  DT31        0.3545
    617  O2       -26.0970   44.7130   -5.1190 O.2    31  DT31       -0.2443
    618  N3       -27.8030   43.7710   -6.2790 N.ar   31  DT31       -0.1533
    619  C4       -28.4540   43.3820   -7.4310 C.ar   31  DT31        0.2804
    620  O4       -29.5410   42.8150   -7.3500 O.2    31  DT31       -0.2654
    621  C5       -27.7600   43.6980   -8.6480 C.ar   31  DT31        0.0534
    622  C6       -26.5800   44.3210   -8.5910 C.ar   31  DT31        0.0824
    623  C7       -28.3870   43.3150   -9.9560 C.3    31  DT31        0.0377
    624  P        -21.6750   41.4730   -8.5540 P.3    32  DT32        0.2141
    625  OP1      -20.2050   41.5420   -8.7020 O.3    32  DT32       -0.4373
    626  OP2      -22.5030   40.9410   -9.6570 O.2    32  DT32       -0.5172
    627  O5'      -21.9920   40.6380   -7.2290 O.3    32  DT32       -0.3114
    628  C5'      -21.0050   40.5900   -6.1980 C.3    32  DT32        0.1811
    629  C4'      -21.6350   40.9620   -4.8730 C.3    32  DT32        0.1746
    630  O4'      -22.6620   41.9580   -5.0900 O.3    32  DT32       -0.3327
    631  C3'      -22.3900   39.8240   -4.2180 C.3    32  DT32        0.1558
    632  O3'      -21.5020   39.0370   -3.4960 O.3    32  DT32       -0.3138
    633  C2'      -23.3600   40.5580   -3.3060 C.3    32  DT32        0.0866
    634  C1'      -23.7550   41.7050   -4.2280 C.3    32  DT32        0.2106
    635  N1       -24.9650   41.2690   -5.0930 N.ar   32  DT32       -0.2559
    636  C2       -26.1940   41.0160   -4.5130 C.ar   32  DT32        0.3545
    637  O2       -26.3600   40.9590   -3.3080 O.2    32  DT32       -0.2443
    638  N3       -27.2270   40.8310   -5.3990 N.ar   32  DT32       -0.1533
    639  C4       -27.1570   40.8710   -6.7760 C.ar   32  DT32        0.2804
    640  O4       -28.1740   40.6860   -7.4400 O.2    32  DT32       -0.2654
    641  C5       -25.8470   41.1380   -7.3020 C.ar   32  DT32        0.0534
    642  C6       -24.8250   41.3220   -6.4620 C.ar   32  DT32        0.0824
    643  C7       -25.6670   41.2020   -8.7900 C.3    32  DT32        0.0377
    644  P        -21.6310   37.5350   -3.6410 P.3    33  DA33        0.2141
    645  OP1      -20.7770   36.9480   -2.5790 O.3    33  DA33       -0.4373
    646  OP2      -21.7930   36.8220   -4.9410 O.2    33  DA33       -0.5172
    647  O5'      -23.0780   37.8250   -3.0440 O.3    33  DA33       -0.3114
    648  C5'      -23.2400   38.3510   -1.7140 C.3    33  DA33        0.1811
    649  C4'      -24.6900   38.2680   -1.3030 C.3    33  DA33        0.1746
    650  O4'      -25.4680   39.0780   -2.2140 O.3    33  DA33       -0.3327
    651  C3'      -25.3110   36.8780   -1.3640 C.3    33  DA33        0.1558
    652  O3'      -25.1360   36.2080   -0.1110 O.3    33  DA33       -0.3138
    653  C2'      -26.7820   37.1770   -1.6320 C.3    33  DA33        0.0865
    654  C1'      -26.6970   38.4410   -2.4930 C.3    33  DA33        0.2094
    655  N9       -26.7180   38.1610   -3.9420 N.ar   33  DA33       -0.2714
    656  C8       -25.7100   37.6700   -4.7300 C.ar   33  DA33        0.1815
    657  N7       -26.1200   37.2080   -5.8870 N.ar   33  DA33       -0.2193
    658  C5       -27.4920   37.4070   -5.8560 C.ar   33  DA33        0.1518
    659  C6       -28.5090   37.1290   -6.7860 C.ar   33  DA33        0.1919
    660  N6       -28.2880   36.5680   -7.9770 N.pl3  33  DA33       -0.1054
    661  N1       -29.7750   37.4520   -6.4450 N.ar   33  DA33       -0.2040
    662  C2       -29.9940   38.0160   -5.2520 C.ar   33  DA33        0.2016
    663  N3       -29.1220   38.3260   -4.2950 N.ar   33  DA33       -0.2048
    664  C4       -27.8740   37.9920   -4.6640 C.ar   33  DA33        0.1691
    665  P        -24.5600   34.5160   -0.1030 P.3    34  DT34        0.2141
    666  OP1      -23.6580   34.1370    1.0130 O.3    34  DT34       -0.4373
    667  OP2      -24.4290   33.8510   -1.4160 O.2    34  DT34       -0.5172
    668  O5'      -26.0860   34.3420    0.3560 O.3    34  DT34       -0.3114
    669  C5'      -26.9110   35.4060    0.8270 C.3    34  DT34        0.1811
    670  C4'      -28.3030   35.2700    0.2250 C.3    34  DT34        0.1746
    671  O4'      -28.3710   35.9140   -1.0660 O.3    34  DT34       -0.3327
    672  C3'      -28.7560   33.8580   -0.1120 C.3    34  DT34        0.1558
    673  O3'      -29.1700   33.1710    1.0600 O.3    34  DT34       -0.3138
    674  C2'      -29.9070   34.1380   -1.0600 C.3    34  DT34        0.0866
    675  C1'      -29.3910   35.3300   -1.8400 C.3    34  DT34        0.2106
    676  N1       -28.8750   34.8790   -3.1220 N.ar   34  DT34       -0.2559
    677  C2       -29.7930   34.5650   -4.1060 C.ar   34  DT34        0.3545
    678  O2       -30.9960   34.6860   -3.9540 O.2    34  DT34       -0.2443
    679  N3       -29.2510   34.1020   -5.2810 N.ar   34  DT34       -0.1533
    680  C4       -27.9130   33.9250   -5.5640 C.ar   34  DT34        0.2804
    681  O4       -27.5790   33.5010   -6.6670 O.2    34  DT34       -0.2654
    682  C5       -27.0230   34.2720   -4.4920 C.ar   34  DT34        0.0534
    683  C6       -27.5230   34.7240   -3.3390 C.ar   34  DT34        0.0824
    684  C7       -25.5460   34.1140   -4.7020 C.3    34  DT34        0.0377
    685  P        -28.8110   31.6730    1.1410 P.3    35  DA35        0.2141
    686  OP1      -29.1420   31.1920    2.5100 O.3    35  DA35       -0.4373
    687  OP2      -27.6150   31.1380    0.4410 O.2    35  DA35       -0.5172
    688  O5'      -30.0850   31.4170    0.2330 O.3    35  DA35       -0.3114
    689  C5'      -31.3850   31.6880    0.7310 C.3    35  DA35        0.1811
    690  C4'      -32.3980   31.0310   -0.1520 C.3    35  DA35        0.1746
    691  O4'      -32.3800   31.6830   -1.4450 O.3    35  DA35       -0.3327
    692  C3'      -32.0630   29.5900   -0.4720 C.3    35  DA35        0.1558
    693  O3'      -32.4990   28.7190    0.5610 O.3    35  DA35       -0.3138
    694  C2'      -32.8090   29.3750   -1.7780 C.3    35  DA35        0.0865
    695  C1'      -32.6060   30.7260   -2.4610 C.3    35  DA35        0.2094
    696  N9       -31.4330   30.7110   -3.3710 N.ar   35  DA35       -0.2714
    697  C8       -30.1190   30.9440   -3.0610 C.ar   35  DA35        0.1815
    698  N7       -29.3080   30.8450   -4.0870 N.ar   35  DA35       -0.2193
    699  C5       -30.1470   30.5240   -5.1430 C.ar   35  DA35        0.1518
    700  C6       -29.9020   30.2830   -6.5060 C.ar   35  DA35        0.1919
    701  N6       -28.6880   30.3330   -7.0590 N.pl3  35  DA35       -0.1054
    702  N1       -30.9600   29.9870   -7.2900 N.ar   35  DA35       -0.2040
    703  C2       -32.1770   29.9380   -6.7350 C.ar   35  DA35        0.2016
    704  N3       -32.5320   30.1450   -5.4690 N.ar   35  DA35       -0.2048
    705  C4       -31.4580   30.4360   -4.7170 C.ar   35  DA35        0.1691
    706  P        -31.8240   27.2520    0.6640 P.3    36  DC36        0.2141
    707  OP1      -32.4310   26.6860    1.8900 O.3    36  DC36       -0.4373
    708  OP2      -30.3570   27.4220    0.5600 O.2    36  DC36       -0.5172
    709  O5'      -32.3060   26.4150   -0.6090 O.3    36  DC36       -0.3115
    710  C5'      -33.6510   25.9840   -0.7110 C.3    36  DC36        0.1785
    711  C4'      -34.0660   25.9830   -2.1660 C.3    36  DC36        0.1471
    712  O4'      -33.4230   27.0790   -2.8410 O.3    36  DC36       -0.3374
    713  C3'      -33.5570   24.8170   -2.9820 C.3    36  DC36        0.0366
    714  O3'      -34.3340   23.6730   -2.7400 O.3    36  DC36       -0.1270
    715  C2'      -33.7040   25.3290   -4.4060 C.3    36  DC36        0.0537
    716  C1'      -33.2170   26.7550   -4.2020 C.3    36  DC36        0.1973
    717  N1       -31.8210   26.9720   -4.5860 N.pl3  36  DC36       -0.2149
    718  C2       -31.3880   26.9760   -5.9170 C.2    36  DC36        0.4129
    719  O2       -32.2120   26.7280   -6.8150 O.2    36  DC36       -0.3558
    720  N3       -30.0890   27.2480   -6.1870 N.2    36  DC36        0.0219
    721  C4       -29.2410   27.5070   -5.1920 C.2    36  DC36        0.4171
    722  N4       -27.9700   27.7690   -5.5060 N.pl3  36  DC36        0.2162
    723  C5       -29.6600   27.5080   -3.8370 C.2    36  DC36        0.0937
    724  C6       -30.9430   27.2390   -3.5740 C.3    36  DC36        0.1339
    725  P        -33.4560   22.7160   -2.2670 P.3    37  DC37        0.5677
    726  OP1      -34.4470   21.7310   -1.7110 O.2    37  DC37       -0.2249
    727  OP2      -32.0270   22.3530   -2.0800 O.2    37  DC37       -0.2249
    728  O5'      -33.7920   23.1060   -3.7570 O.3    37  DC37       -0.2092
    729  C5'      -35.2200   23.1570   -4.0480 C.3    37  DC37        0.2145
    730  C4'      -35.2360   23.3740   -5.5470 C.3    37  DC37        0.1774
    731  O4'      -34.7740   24.6530   -5.8730 O.3    37  DC37       -0.3346
    732  C3'      -34.2900   22.4510   -6.3070 C.3    37  DC37        0.1556
    733  O3'      -34.7860   21.1360   -6.4190 O.3    37  DC37       -0.3139
    734  C2'      -34.2240   23.2150   -7.6400 C.3    37  DC37        0.0837
    735  C1'      -34.1160   24.6550   -7.1690 C.3    37  DC37        0.2025
    736  N1       -32.7020   25.0030   -7.0330 N.pl3  37  DC37       -0.1881
    737  C2       -32.0890   25.6130   -8.1340 C.3    37  DC37        0.5306
    738  O2       -32.8020   26.0020   -9.0750 O.3    37  DC37       -0.1143
    739  N3       -30.7430   25.7600   -8.1410 N.2    37  DC37        0.0268
    740  C4       -30.0190   25.3260   -7.1090 C.2    37  DC37        0.4188
    741  N4       -28.6950   25.4920   -7.1610 N.pl3  37  DC37        0.2162
    742  C5       -30.6210   24.7050   -5.9840 C.2    37  DC37        0.1140
    743  C6       -31.9500   24.5620   -5.9810 C.2    37  DC37        0.0801
    744  P        -34.1160   19.8610   -7.1050 P.3    38  DA38        0.2141
    745  OP1      -35.2160   18.8870   -6.9530 O.2    38  DA38       -0.5172
    746  OP2      -32.8820   19.7800   -6.3030 O.3    38  DA38       -0.4373
    747  O5'      -33.7180   19.7980   -8.6320 O.3    38  DA38       -0.3114
    748  C5'      -34.7410   19.7800   -9.5810 C.3    38  DA38        0.1811
    749  C4'      -34.1380   20.3470  -10.8310 C.3    38  DA38        0.1746
    750  O4'      -33.6290   21.6840  -10.5970 O.3    38  DA38       -0.3327
    751  C3'      -32.9050   19.5990  -11.3230 C.3    38  DA38        0.1558
    752  O3'      -33.2990   18.3080  -11.7950 O.3    38  DA38       -0.3138
    753  C2'      -32.4810   20.6090  -12.3760 C.3    38  DA38        0.0865
    754  C1'      -32.6050   21.8990  -11.5460 C.3    38  DA38        0.2094
    755  N9       -31.4590   22.4220  -10.8740 N.ar   38  DA38       -0.2714
    756  C8       -31.1920   22.3200   -9.5340 C.ar   38  DA38        0.1815
    757  N7       -30.0520   22.8650   -9.1790 N.ar   38  DA38       -0.2193
    758  C5       -29.5350   23.3560  -10.3670 C.ar   38  DA38        0.1518
    759  C6       -28.3480   24.0460  -10.6680 C.ar   38  DA38        0.1919
    760  N6       -27.4300   24.3720   -9.7550 N.pl3  38  DA38       -0.1054
    761  N1       -28.1340   24.3930  -11.9550 N.ar   38  DA38       -0.2040
    762  C2       -29.0540   24.0660  -12.8700 C.ar   38  DA38        0.2016
    763  N3       -30.2070   23.4210  -12.7090 N.ar   38  DA38       -0.2048
    764  C4       -30.3900   23.0900  -11.4200 C.ar   38  DA38        0.1691
    765  P        -32.2660   17.1340  -12.2100 P.3    39  DG39        0.2141
    766  OP1      -32.7930   15.7960  -12.5790 O.2    39  DG39       -0.5172
    767  OP2      -31.5520   17.2890  -10.9210 O.3    39  DG39       -0.4373
    768  O5'      -31.3770   17.7090  -13.3930 O.3    39  DG39       -0.3114
    769  C5'      -31.9410   17.9410  -14.6740 C.3    39  DG39        0.1811
    770  C4'      -30.9870   18.6830  -15.5710 C.3    39  DG39        0.1746
    771  O4'      -30.8220   20.0440  -15.1030 O.3    39  DG39       -0.3327
    772  C3'      -29.5720   18.1400  -15.6220 C.3    39  DG39        0.1558
    773  O3'      -29.4440   17.0170  -16.4720 O.3    39  DG39       -0.3138
    774  C2'      -28.7670   19.3490  -16.0780 C.3    39  DG39        0.0865
    775  C1'      -29.5060   20.4870  -15.3720 C.3    39  DG39        0.2094
    776  N9       -28.8990   20.8420  -14.1210 N.ar   39  DG39       -0.2713
    777  C8       -29.2630   20.4080  -12.8690 C.ar   39  DG39        0.1816
    778  N7       -28.4580   20.8190  -11.9270 N.ar   39  DG39       -0.2173
    779  C5       -27.5070   21.5700  -12.5920 C.ar   39  DG39        0.1748
    780  C6       -26.3750   22.2710  -12.1010 C.ar   39  DG39        0.3023
    781  O6       -25.9800   22.3650  -10.9320 O.2    39  DG39       -0.2633
    782  N1       -25.6720   22.9050  -13.1220 N.ar   39  DG39       -0.1709
    783  C2       -26.0170   22.8690  -14.4520 C.ar   39  DG39        0.2606
    784  N2       -25.2170   23.5430  -15.2880 N.pl3  39  DG39       -0.0859
    785  N3       -27.0650   22.2220  -14.9230 N.ar   39  DG39       -0.1918
    786  C4       -27.7620   21.5980  -13.9500 C.ar   39  DG39        0.1722
    787  P        -27.9950   16.0770  -16.4320 P.3    40  DC40        0.2141
    788  OP1      -27.9550   14.9720  -17.4120 O.2    40  DC40       -0.5172
    789  OP2      -28.1390   15.7760  -14.9900 O.3    40  DC40       -0.4373
    790  O5'      -26.6660   16.9660  -16.5070 O.3    40  DC40       -0.3114
    791  C5'      -26.1180   17.3170  -17.7660 C.3    40  DC40        0.1811
    792  C4'      -24.8430   18.1180  -17.6340 C.3    40  DC40        0.1746
    793  O4'      -25.1250   19.3730  -16.9670 O.3    40  DC40       -0.3327
    794  C3'      -23.7230   17.4950  -16.8110 C.3    40  DC40        0.1558
    795  O3'      -22.9200   16.5870  -17.5360 O.3    40  DC40       -0.3138
    796  C2'      -22.9290   18.6990  -16.3320 C.3    40  DC40        0.0866
    797  C1'      -24.0190   19.7620  -16.1890 C.3    40  DC40        0.2106
    798  N1       -24.4250   19.7780  -14.7540 N.ar   40  DC40       -0.2556
    799  C2       -23.5330   20.3360  -13.8310 C.ar   40  DC40        0.3531
    800  O2       -22.4580   20.8030  -14.2460 O.2    40  DC40       -0.2443
    801  N3       -23.8650   20.3500  -12.5180 N.ar   40  DC40       -0.1739
    802  C4       -25.0290   19.8360  -12.1190 C.ar   40  DC40        0.1759
    803  N4       -25.3140   19.8720  -10.8150 N.pl3  40  DC40       -0.1070
    804  C5       -25.9470   19.2660  -13.0380 C.ar   40  DC40        0.0566
    805  C6       -25.6150   19.2540  -14.3340 C.ar   40  DC40        0.0849
    806  P        -22.7140   15.2000  -16.9620 P.3    41  DT41        0.2141
    807  OP1      -22.9410   14.0730  -17.8960 O.2    41  DT41       -0.5172
    808  OP2      -22.8820   14.9860  -15.4980 O.3    41  DT41       -0.4373
    809  O5'      -21.2640   15.7960  -17.2300 O.3    41  DT41       -0.3114
    810  C5'      -20.1290   15.1880  -16.6500 C.3    41  DT41        0.1811
    811  C4'      -19.2800   16.2090  -15.9450 C.3    41  DT41        0.1746
    812  O4'      -20.0830   17.2530  -15.3300 O.3    41  DT41       -0.3327
    813  C3'      -18.5360   15.5900  -14.7870 C.3    41  DT41        0.1558
    814  O3'      -17.3700   14.9150  -15.2170 O.3    41  DT41       -0.3138
    815  C2'      -18.2610   16.7670  -13.8600 C.3    41  DT41        0.0866
    816  C1'      -19.4670   17.6760  -14.1190 C.3    41  DT41        0.2106
    817  N1       -20.4160   17.5790  -13.0700 N.ar   41  DT41       -0.2559
    818  C2       -20.1140   18.1210  -11.8350 C.ar   41  DT41        0.3545
    819  O2       -19.0940   18.7500  -11.6170 O.2    41  DT41       -0.2443
    820  N3       -21.0530   17.8980  -10.8570 N.ar   41  DT41       -0.1533
    821  C4       -22.2380   17.2030  -10.9870 C.ar   41  DT41        0.2804
    822  O4       -22.9810   17.0880  -10.0160 O.2    41  DT41       -0.2654
    823  C5       -22.4790   16.6700  -12.2990 C.ar   41  DT41        0.0534
    824  C6       -21.5820   16.8720  -13.2680 C.ar   41  DT41        0.0824
    825  C7       -23.7410   15.8970  -12.5420 C.3    41  DT41        0.0377
    826  P        -16.9810   13.3010  -14.5050 P.3    42  DT42        0.2141
    827  OP1      -16.2030   12.4170  -15.4020 O.2    42  DT42       -0.5172
    828  OP2      -18.1820   12.8010  -13.8010 O.3    42  DT42       -0.4373
    829  O5'      -16.0320   13.8440  -13.3340 O.3    42  DT42       -0.3114
    830  C5'      -14.8620   14.5720  -13.6730 C.3    42  DT42        0.1811
    831  C4'      -14.3800   15.4560  -12.5480 C.3    42  DT42        0.1746
    832  O4'      -15.4170   16.3990  -12.1720 O.3    42  DT42       -0.3327
    833  C3'      -14.0050   14.7530  -11.2510 C.3    42  DT42        0.1558
    834  O3'      -12.6850   14.2280  -11.2750 O.3    42  DT42       -0.3138
    835  C2'      -14.2210   15.8260  -10.1880 C.3    42  DT42        0.0866
    836  C1'      -15.3570   16.6510  -10.7870 C.3    42  DT42        0.2106
    837  N1       -16.6690   16.3100  -10.1190 N.ar   42  DT42       -0.2559
    838  C2       -16.9380   16.8780   -8.8880 C.ar   42  DT42        0.3545
    839  O2       -16.1730   17.6440   -8.3290 O.2    42  DT42       -0.2443
    840  N3       -18.1410   16.5160   -8.3310 N.ar   42  DT42       -0.1533
    841  C4       -19.0800   15.6610   -8.8690 C.ar   42  DT42        0.2804
    842  O4       -20.1160   15.4330   -8.2490 O.2    42  DT42       -0.2654
    843  C5       -18.7270   15.1110  -10.1480 C.ar   42  DT42        0.0534
    844  C6       -17.5640   15.4470  -10.7120 C.ar   42  DT42        0.0824
    845  C7       -19.6840   14.1690  -10.8160 C.3    42  DT42        0.0377
    846  P        -12.1890   13.2190  -10.2100 P.3    43  DA43        0.2141
    847  OP1      -10.7870   12.8430   -9.9330 O.3    43  DA43       -0.4373
    848  OP2      -13.2490   12.1970  -10.0690 O.2    43  DA43       -0.5172
    849  O5'      -12.5910   14.4590   -9.2770 O.3    43  DA43       -0.3114
    850  C5'      -11.7350   15.5950   -9.1930 C.3    43  DA43        0.1811
    851  C4'      -11.7730   16.2590   -7.8270 C.3    43  DA43        0.1746
    852  O4'      -13.0860   16.8140   -7.5840 O.3    43  DA43       -0.3327
    853  C3'      -11.5560   15.3330   -6.6420 C.3    43  DA43        0.1558
    854  O3'      -10.1740   15.1220   -6.4090 O.3    43  DA43       -0.3138
    855  C2'      -12.2780   16.0630   -5.5000 C.3    43  DA43        0.0865
    856  C1'      -13.4970   16.5590   -6.2550 C.3    43  DA43        0.2094
    857  N9       -14.6220   15.6370   -6.2280 N.ar   43  DA43       -0.2714
    858  C8       -14.9260   14.6310   -7.1070 C.ar   43  DA43        0.1815
    859  N7       -15.9630   13.9100   -6.7490 N.ar   43  DA43       -0.2193
    860  C5       -16.3660   14.4820   -5.5520 C.ar   43  DA43        0.1518
    861  C6       -17.4140   14.1790   -4.6650 C.ar   43  DA43        0.1919
    862  N6       -18.2800   13.1820   -4.8570 N.pl3  43  DA43       -0.1054
    863  N1       -17.5400   14.9450   -3.5600 N.ar   43  DA43       -0.2040
    864  C2       -16.6720   15.9440   -3.3690 C.ar   43  DA43        0.2016
    865  N3       -15.6490   16.3270   -4.1300 N.ar   43  DA43       -0.2048
    866  C4       -15.5500   15.5460   -5.2190 C.ar   43  DA43        0.1691
    867  P         -9.6580   13.7240   -5.5660 P.3    44  DT44        0.2141
    868  OP1       -8.2470   13.7960   -5.0810 O.3    44  DT44       -0.4373
    869  OP2      -10.1390   12.5140   -6.2710 O.2    44  DT44       -0.5172
    870  O5'      -10.5840   14.0560   -4.3170 O.3    44  DT44       -0.3114
    871  C5'      -10.2740   15.1630   -3.4780 C.3    44  DT44        0.1811
    872  C4'      -10.8910   14.9880   -2.1150 C.3    44  DT44        0.1746
    873  O4'      -12.3340   14.9210   -2.2530 O.3    44  DT44       -0.3327
    874  C3'      -10.5360   13.7020   -1.3830 C.3    44  DT44        0.1558
    875  O3'       -9.2970   13.8160   -0.6980 O.3    44  DT44       -0.3138
    876  C2'      -11.7030   13.5580   -0.4170 C.3    44  DT44        0.0866
    877  C1'      -12.8640   14.0420   -1.2780 C.3    44  DT44        0.2106
    878  N1       -13.5220   12.9380   -2.0960 N.ar   44  DT44       -0.2559
    879  C2       -14.4930   12.2050   -1.4400 C.ar   44  DT44        0.3545
    880  O2       -14.8780   12.4680   -0.3150 O.2    44  DT44       -0.2443
    881  N3       -15.0000   11.1440   -2.1520 N.ar   44  DT44       -0.1533
    882  C4       -14.6420   10.7520   -3.4250 C.ar   44  DT44        0.2804
    883  O4       -15.1890    9.7770   -3.9340 O.2    44  DT44       -0.2654
    884  C5       -13.6280   11.5630   -4.0380 C.ar   44  DT44        0.0534
    885  C6       -13.1170   12.6000   -3.3690 C.ar   44  DT44        0.0824
    886  C7       -13.1700   11.2170   -5.4240 C.3    44  DT44        0.0377
    887  P         -8.4450   12.4740   -0.2160 P.3    45  DT45        0.2141
    888  OP1       -7.1780   12.7020    0.5000 O.3    45  DT45       -0.4373
    889  OP2       -8.4430   11.6380   -1.4440 O.2    45  DT45       -0.5172
    890  O5'       -9.5050   11.8410    0.7870 O.3    45  DT45       -0.3114
    891  C5'       -9.7750   12.4400    2.0480 C.3    45  DT45        0.1811
    892  C4'      -10.6950   11.5540    2.8560 C.3    45  DT45        0.1746
    893  O4'      -12.0290   11.5750    2.2850 O.3    45  DT45       -0.3327
    894  C3'      -10.3180   10.0830    2.8360 C.3    45  DT45        0.1558
    895  O3'       -9.2810    9.7850    3.7510 O.3    45  DT45       -0.3138
    896  C2'      -11.6380    9.3940    3.1530 C.3    45  DT45        0.0866
    897  C1'      -12.6180   10.2800    2.3890 C.3    45  DT45        0.2106
    898  N1       -12.8380    9.7830    1.0120 N.ar   45  DT45       -0.2559
    899  C2       -13.7580    8.7640    0.8520 C.ar   45  DT45        0.3545
    900  O2       -14.3970    8.2950    1.7770 O.2    45  DT45       -0.2443
    901  N3       -13.9050    8.3110   -0.4360 N.ar   45  DT45       -0.1533
    902  C4       -13.2380    8.7630   -1.5560 C.ar   45  DT45        0.2804
    903  O4       -13.4790    8.2560   -2.6490 O.2    45  DT45       -0.2654
    904  C5       -12.2990    9.8210   -1.3080 C.ar   45  DT45        0.0534
    905  C6       -12.1370   10.2810   -0.0650 C.ar   45  DT45        0.0824
    906  C7       -11.5230   10.3810   -2.4630 C.3    45  DT45        0.0377
    907  P         -8.4510    8.5300    3.4790 P.3    46  DC46        0.2141
    908  OP1       -7.2550    8.4900    4.3490 O.3    46  DC46       -0.4373
    909  OP2       -8.2780    8.5750    2.0080 O.2    46  DC46       -0.5172
    910  O5'       -9.4000    7.2630    3.7580 O.3    46  DC46       -0.3114
    911  C5'      -10.1970    7.2230    4.9350 C.3    46  DC46        0.1811
    912  C4'      -11.3660    6.2640    4.8410 C.3    46  DC46        0.1746
    913  O4'      -12.3950    6.7650    3.9460 O.3    46  DC46       -0.3327
    914  C3'      -11.0670    4.8820    4.2880 C.3    46  DC46        0.1558
    915  O3'      -10.4230    4.0320    5.2170 O.3    46  DC46       -0.3138
    916  C2'      -12.4460    4.4030    3.8510 C.3    46  DC46        0.0866
    917  C1'      -13.0060    5.6900    3.2600 C.3    46  DC46        0.2106
    918  N1       -12.5990    5.6300    1.7080 N.ar   46  DC46       -0.2556
    919  C2       -13.1320    4.6910    0.8170 C.ar   46  DC46        0.3531
    920  O2       -13.7970    3.7450    1.2720 O.2    46  DC46       -0.2443
    921  N3       -12.9060    4.8390   -0.5100 N.ar   46  DC46       -0.1739
    922  C4       -12.1850    5.8700   -0.9540 C.ar   46  DC46        0.1759
    923  N4       -11.9880    5.9750   -2.2700 N.pl3  46  DC46       -0.1070
    924  C5       -11.6370    6.8320   -0.0670 C.ar   46  DC46        0.0566
    925  C6       -11.8620    6.6820    1.2430 C.ar   46  DC46        0.0849
    926  P         -8.9820    3.5760    4.7780 P.3    47  DA47        0.2141
    927  OP1       -8.0740    2.7540    5.5950 O.3    47  DA47       -0.4373
    928  OP2       -8.4130    4.6910    3.9490 O.2    47  DA47       -0.5172
    929  O5'       -9.8030    2.5680    3.8500 O.3    47  DA47       -0.3114
    930  C5'      -10.5040    1.4520    4.4250 C.3    47  DA47        0.1811
    931  C4'      -11.0120    0.5010    3.3490 C.3    47  DA47        0.1746
    932  O4'      -11.9660    1.1700    2.4690 O.3    47  DA47       -0.3327
    933  C3'       -9.9960   -0.1310    2.4110 C.3    47  DA47        0.1558
    934  O3'       -9.3550   -1.2720    2.9650 O.3    47  DA47       -0.3138
    935  C2'      -10.8790   -0.5540    1.2540 C.3    47  DA47        0.0865
    936  C1'      -11.8530    0.6310    1.1610 C.3    47  DA47        0.2094
    937  N9       -11.3210    1.6990    0.2770 N.ar   47  DA47       -0.2714
    938  C8       -10.5780    2.7960    0.6280 C.ar   47  DA47        0.1815
    939  N7       -10.1980    3.5260   -0.3950 N.ar   47  DA47       -0.2193
    940  C5       -10.7260    2.8620   -1.4910 C.ar   47  DA47        0.1518
    941  C6       -10.6790    3.1280   -2.8700 C.ar   47  DA47        0.1919
    942  N6       -10.0480    4.1790   -3.4000 N.pl3  47  DA47       -0.1054
    943  N1       -11.3100    2.2660   -3.6960 N.ar   47  DA47       -0.2040
    944  C2       -11.9430    1.2140   -3.1650 C.ar   47  DA47        0.2016
    945  N3       -12.0570    0.8590   -1.8870 N.ar   47  DA47       -0.2048
    946  C4       -11.4190    1.7350   -1.0930 C.ar   47  DA47        0.1691
    947  P         -7.4290   -1.8290    2.5230 P.3    48  DA48        0.2141
    948  OP1       -7.1790   -2.6810    3.7110 O.3    48  DA48       -0.4373
    949  OP2       -6.7230   -0.5300    2.3820 O.2    48  DA48       -0.5172
    950  O5'       -7.1830   -2.6930    1.2140 O.3    48  DA48       -0.3114
    951  C5'       -7.9830   -3.8360    0.9820 C.3    48  DA48        0.1811
    952  C4'       -8.3140   -3.9810   -0.4800 C.3    48  DA48        0.1746
    953  O4'       -9.0730   -2.8430   -0.9750 O.3    48  DA48       -0.3327
    954  C3'       -7.1740   -4.0420   -1.4670 C.3    48  DA48        0.1558
    955  O3'       -6.4620   -5.2470   -1.4050 O.3    48  DA48       -0.3138
    956  C2'       -7.9030   -3.8310   -2.7770 C.3    48  DA48        0.0865
    957  C1'       -8.8860   -2.7360   -2.3830 C.3    48  DA48        0.2094
    958  N9        -8.2520   -1.4160   -2.6060 N.ar   48  DA48       -0.2714
    959  C8        -7.7400   -0.5790   -1.6490 C.ar   48  DA48        0.1815
    960  N7        -7.3520    0.5840   -2.1160 N.ar   48  DA48       -0.2193
    961  C5        -7.6270    0.5050   -3.4720 C.ar   48  DA48        0.1518
    962  C6        -7.4470    1.4160   -4.5280 C.ar   48  DA48        0.1919
    963  N6        -6.9260    2.6350   -4.3730 N.pl3  48  DA48       -0.1054
    964  N1        -7.8260    1.0250   -5.7640 N.ar   48  DA48       -0.2040
    965  C2        -8.3490   -0.1970   -5.9190 C.ar   48  DA48        0.2016
    966  N3        -8.5680   -1.1400   -5.0050 N.ar   48  DA48       -0.2048
    967  C4        -8.1800   -0.7210   -3.7890 C.ar   48  DA48        0.1691
    968  P         -4.8900   -5.2070   -1.2670 P.3    49  DT49        0.2141
    969  OP1       -4.5000   -6.5170   -0.6970 O.2    49  DT49       -0.5172
    970  OP2       -4.4140   -3.9520   -0.6490 O.3    49  DT49       -0.4373
    971  O5'       -4.4150   -5.1460   -2.7930 O.3    49  DT49       -0.3114
    972  C5'       -4.8350   -6.1980   -3.6480 C.3    49  DT49        0.1811
    973  C4'       -4.8150   -5.7800   -5.0950 C.3    49  DT49        0.1746
    974  O4'       -5.5230   -4.5270   -5.2530 O.3    49  DT49       -0.3327
    975  C3'       -3.4520   -5.4900   -5.6940 C.3    49  DT49        0.1558
    976  O3'       -2.7450   -6.6570   -6.0600 O.3    49  DT49       -0.3138
    977  C2'       -3.7990   -4.6060   -6.8780 C.3    49  DT49        0.0866
    978  C1'       -4.9360   -3.7740   -6.2900 C.3    49  DT49        0.2106
    979  N1        -4.5900   -2.4910   -5.7920 N.ar   49  DT49       -0.2559
    980  C2        -4.5310   -1.4320   -6.6790 C.ar   49  DT49        0.3545
    981  O2        -4.7950   -1.5420   -7.8630 O.2    49  DT49       -0.2443
    982  N3        -4.1490   -0.2330   -6.1270 N.ar   49  DT49       -0.1533
    983  C4        -3.8280    0.0080   -4.8080 C.ar   49  DT49        0.2804
    984  O4        -3.5030    1.1410   -4.4610 O.2    49  DT49       -0.2654
    985  C5        -3.9120   -1.1410   -3.9510 C.ar   49  DT49        0.0534
    986  C6        -4.2810   -2.3190   -4.4610 C.ar   49  DT49        0.0824
    987  C7        -3.5810   -0.9810   -2.4970 C.3    49  DT49        0.0377
    988  P         -1.3030   -6.4490   -6.4030 P.3    50  DT50        0.2141
    989  OP1       -0.7070   -7.7730   -6.7440 O.2    50  DT50       -0.5172
    990  OP2       -0.7040   -5.8250   -5.1600 O.3    50  DT50       -0.4373
    991  O5'       -1.5310   -5.4270   -7.6070 O.3    50  DT50       -0.3114
    992  C5'       -1.5280   -5.9610   -8.9500 C.3    50  DT50        0.1812
    993  C4'       -1.7220   -4.8050   -9.8990 C.3    50  DT50        0.1775
    994  O4'       -2.4050   -3.7720   -9.2180 O.3    50  DT50       -0.3326
    995  C3'       -0.5120   -4.0910  -10.4640 C.3    50  DT50        0.1859
    996  O3'        0.1840   -4.8040  -11.4840 O.3    50  DT50       -0.2202
    997  C2'       -1.1050   -2.7700  -10.9100 C.3    50  DT50        0.0895
    998  C1'       -2.1500   -2.5300   -9.8640 C.3    50  DT50        0.2107
    999  N1        -1.6120   -1.4400   -9.1980 N.ar   50  DT50       -0.2559
   1000  C2        -1.5170   -0.1380   -9.6530 C.ar   50  DT50        0.3545
   1001  O2        -1.6800    0.1720  -10.8200 O.2    50  DT50       -0.2443
   1002  N3        -1.2210    0.7940   -8.6880 N.ar   50  DT50       -0.1533
   1003  C4        -1.0160    0.5610   -7.3440 C.ar   50  DT50        0.2804
   1004  O4        -0.7580    1.5030   -6.5980 O.2    50  DT50       -0.2654
   1005  C5        -1.1310   -0.8150   -6.9500 C.ar   50  DT50        0.0534
   1006  C6        -1.4180   -1.7420   -7.8680 C.ar   50  DT50        0.0824
   1007  C7        -0.9240   -1.1710   -5.5080 C.3    50  DT50        0.0377
   1008  P          1.4760   -5.3940  -10.6330 P.3    51  DA51        0.4149
   1009  OP1        2.1610   -6.0820  -11.7570 O.3    51  DA51       -0.1481
   1010  OP2        2.1460   -5.2990   -9.3140 O.2    51  DA51       -0.2668
   1011  O5'        1.0880   -3.9290  -11.1330 O.3    51  DA51       -0.2177
   1012  C5'        1.3120   -3.5220  -12.4900 C.3    51  DA51        0.2140
   1013  C4'        1.9460   -2.1380  -12.5390 C.3    51  DA51        0.1776
   1014  O4'        1.1330   -1.2110  -11.7720 O.3    51  DA51       -0.3326
   1015  C3'        3.3470   -2.0100  -11.9490 C.3    51  DA51        0.1559
   1016  O3'        4.3290   -2.2890  -12.9480 O.3    51  DA51       -0.3138
   1017  C2'        3.4060   -0.5410  -11.5430 C.3    51  DA51        0.0865
   1018  C1'        1.9650   -0.2870  -11.0940 C.3    51  DA51        0.2094
   1019  N9         1.7940   -0.4670   -9.6430 N.ar   51  DA51       -0.2714
   1020  C8         1.5300   -1.6330   -8.9730 C.ar   51  DA51        0.1815
   1021  N7         1.5060   -1.4990   -7.6680 N.ar   51  DA51       -0.2193
   1022  C5         1.7730   -0.1540   -7.4670 C.ar   51  DA51        0.1518
   1023  C6         1.8850    0.6240   -6.3020 C.ar   51  DA51        0.1919
   1024  N6         1.7340    0.1350   -5.0690 N.pl3  51  DA51       -0.1054
   1025  N1         2.1600    1.9380   -6.4500 N.ar   51  DA51       -0.2040
   1026  C2         2.3100    2.4270   -7.6870 C.ar   51  DA51        0.2016
   1027  N3         2.2270    1.7960   -8.8560 N.ar   51  DA51       -0.2048
   1028  C4         1.9540    0.4940   -8.6740 C.ar   51  DA51        0.1691
   1029  P          5.9120   -3.0520  -12.5300 P.3    52  DC52        0.2141
   1030  OP1        6.6950   -3.6100  -13.6250 O.2    52  DC52       -0.5172
   1031  OP2        5.2310   -3.9410  -11.5880 O.3    52  DC52       -0.4373
   1032  O5'        6.8040   -2.0300  -11.6440 O.3    52  DC52       -0.3114
   1033  C5'        7.2570   -0.8030  -12.2490 C.3    52  DC52        0.1811
   1034  C4'        7.9950    0.1020  -11.2980 C.3    52  DC52        0.1746
   1035  O4'        7.0510    0.7820  -10.4290 O.3    52  DC52       -0.3327
   1036  C3'        8.9100   -0.5710  -10.3170 C.3    52  DC52        0.1558
   1037  O3'       10.1510   -0.8090  -10.8940 O.3    52  DC52       -0.3138
   1038  C2'        9.0380    0.4940   -9.2240 C.3    52  DC52        0.0866
   1039  C1'        7.6110    0.9980   -9.1330 C.3    52  DC52        0.2106
   1040  N1         6.7660    0.3850   -8.1960 N.ar   52  DC52       -0.2556
   1041  C2         6.8180    0.8420   -6.8740 C.ar   52  DC52        0.3531
   1042  O2         7.5100    1.8420   -6.6150 O.2    52  DC52       -0.2443
   1043  N3         6.1180    0.1840   -5.9200 N.ar   52  DC52       -0.1739
   1044  C4         5.3900   -0.8850   -6.2450 C.ar   52  DC52        0.1759
   1045  N4         4.7160   -1.5010   -5.2710 N.pl3  52  DC52       -0.1070
   1046  C5         5.3240   -1.3640   -7.5780 C.ar   52  DC52        0.0566
   1047  C6         6.0170   -0.7120   -8.5170 C.ar   52  DC52        0.0849
   1048  P         10.8580   -1.9600  -10.1390 P.3    53  DG53        0.2141
   1049  OP1       12.1090   -2.1370  -10.9260 O.2    53  DG53       -0.5172
   1050  OP2        9.8530   -3.0520  -10.0970 O.3    53  DG53       -0.4373
   1051  O5'       11.2190   -1.5780   -8.6360 O.3    53  DG53       -0.3114
   1052  C5'       12.1220   -0.4970   -8.3850 C.3    53  DG53        0.1811
   1053  C4'       12.1420   -0.1300   -6.9250 C.3    53  DG53        0.1746
   1054  O4'       10.8230    0.2690   -6.5000 O.3    53  DG53       -0.3327
   1055  C3'       12.5360   -1.2060   -5.9410 C.3    53  DG53        0.1558
   1056  O3'       13.9340   -1.3430   -5.8520 O.3    53  DG53       -0.3138
   1057  C2'       11.9440   -0.6910   -4.6420 C.3    53  DG53        0.0865
   1058  C1'       10.6560   -0.0370   -5.1320 C.3    53  DG53        0.2094
   1059  N9         9.4750   -0.9650   -4.9770 N.ar   53  DG53       -0.2713
   1060  C8         8.8990   -1.7590   -5.9390 C.ar   53  DG53        0.1816
   1061  N7         7.8760   -2.4410   -5.4990 N.ar   53  DG53       -0.2173
   1062  C5         7.7670   -2.0770   -4.1700 C.ar   53  DG53        0.1748
   1063  C6         6.8470   -2.4890   -3.1720 C.ar   53  DG53        0.3023
   1064  O6         5.9090   -3.2890   -3.2790 O.2    53  DG53       -0.2633
   1065  N1         7.0940   -1.8730   -1.9490 N.ar   53  DG53       -0.1709
   1066  C2         8.1040   -0.9700   -1.7150 C.ar   53  DG53        0.2606
   1067  N2         8.1840   -0.4820   -0.4700 N.pl3  53  DG53       -0.0859
   1068  N3         8.9670   -0.5790   -2.6310 N.ar   53  DG53       -0.1918
   1069  C4         8.7470   -1.1650   -3.8270 C.ar   53  DG53        0.1722
   1070  P         14.6240   -2.7830   -5.2550 P.3    54  DT54        0.2141
   1071  OP1       15.6430   -3.0550   -6.2970 O.2    54  DT54       -0.5172
   1072  OP2       13.5020   -3.7320   -5.0790 O.3    54  DT54       -0.4373
   1073  O5'       15.3080   -2.7360   -3.8100 O.3    54  DT54       -0.3114
   1074  C5'       15.1260   -1.5900   -2.9910 C.3    54  DT54        0.1811
   1075  C4'       14.8220   -1.9480   -1.5590 C.3    54  DT54        0.1746
   1076  O4'       13.4040   -1.8220   -1.2870 O.3    54  DT54       -0.3327
   1077  C3'       15.1570   -3.3660   -1.1290 C.3    54  DT54        0.1558
   1078  O3'       16.5360   -3.5290   -0.8650 O.3    54  DT54       -0.3138
   1079  C2'       14.2860   -3.5430    0.1070 C.3    54  DT54        0.0866
   1080  C1'       13.0510   -2.7150   -0.2510 C.3    54  DT54        0.2106
   1081  N1        11.8030   -3.3360   -0.8460 N.ar   54  DT54       -0.2559
   1082  C2        10.6870   -3.4780   -0.0440 C.ar   54  DT54        0.3545
   1083  O2        10.5780   -2.9410    1.0440 O.2    54  DT54       -0.2443
   1084  N3         9.6970   -4.2770   -0.5630 N.ar   54  DT54       -0.1533
   1085  C4         9.7110   -4.9330   -1.7760 C.ar   54  DT54        0.2804
   1086  O4         8.7440   -5.6160   -2.1050 O.2    54  DT54       -0.2654
   1087  C5        10.9040   -4.7370   -2.5500 C.ar   54  DT54        0.0534
   1088  C6        11.8820   -3.9650   -2.0700 C.ar   54  DT54        0.0824
   1089  C7        11.0150   -5.4100   -3.8860 C.3    54  DT54        0.0377
   1090  P         17.3730   -4.8060   -0.9190 P.3    55  DC55        0.2141
   1091  OP1       17.7620   -5.1210   -2.3230 O.2    55  DC55       -0.5172
   1092  OP2       16.6060   -5.8060   -0.1180 O.3    55  DC55       -0.4373
   1093  O5'       18.7250   -4.4390   -0.1670 O.3    55  DC55       -0.3114
   1094  C5'       19.5070   -3.3800   -0.6880 C.3    55  DC55        0.1811
   1095  C4'       20.8830   -3.3970   -0.1100 C.3    55  DC55        0.1746
   1096  O4'       20.8210   -3.0540    1.2860 O.3    55  DC55       -0.3327
   1097  C3'       21.6370   -4.7030   -0.2140 C.3    55  DC55        0.1558
   1098  O3'       22.9640   -4.2810   -0.4850 O.3    55  DC55       -0.3138
   1099  C2'       21.4350   -5.3140    1.1670 C.3    55  DC55        0.0866
   1100  C1'       21.4170   -4.0730    2.0470 C.3    55  DC55        0.2106
   1101  N1        20.8500   -4.3850    3.1650 N.ar   55  DC55       -0.2556
   1102  C2        21.4720   -4.4140    4.4180 C.ar   55  DC55        0.3531
   1103  O2        22.3680   -3.5880    4.6600 O.2    55  DC55       -0.2443
   1104  N3        21.0820   -5.3400    5.3260 N.ar   55  DC55       -0.1739
   1105  C4        20.1160   -6.2080    5.0210 C.ar   55  DC55        0.1759
   1106  N4        19.7650   -7.1030    5.9480 N.pl3  55  DC55       -0.1070
   1107  C5        19.4730   -6.1950    3.7570 C.ar   55  DC55        0.0566
   1108  C6        19.8620   -5.2790    2.8630 C.ar   55  DC55        0.0849
   1109  P         24.1950   -5.5800   -0.7940 P.3    56  DT56        0.2141
   1110  OP1       25.2020   -4.9540   -1.6670 O.2    56  DT56       -0.5172
   1111  OP2       23.7930   -6.9810   -1.0150 O.3    56  DT56       -0.4373
   1112  O5'       24.7160   -5.4430    0.6900 O.3    56  DT56       -0.3114
   1113  C5'       25.9110   -4.7500    0.8870 C.3    56  DT56        0.1811
   1114  C4'       26.2830   -4.7950    2.3440 C.3    56  DT56        0.1746
   1115  O4'       25.0890   -4.8500    3.1680 O.3    56  DT56       -0.3327
   1116  C3'       27.0360   -6.0470    2.7320 C.3    56  DT56        0.1558
   1117  O3'       28.3730   -5.9270    2.3430 O.3    56  DT56       -0.3138
   1118  C2'       26.8530   -6.0060    4.2430 C.3    56  DT56        0.0866
   1119  C1'       25.3840   -5.5990    4.3370 C.3    56  DT56        0.2106
   1120  N1        24.5390   -6.8190    4.3590 N.ar   56  DT56       -0.2559
   1121  C2        24.2030   -7.3710    5.5810 C.ar   56  DT56        0.3545
   1122  O2        24.8180   -7.1370    6.6060 O.2    56  DT56       -0.2443
   1123  N3        23.1170   -8.2120    5.5600 N.ar   56  DT56       -0.1533
   1124  C4        22.3500   -8.5490    4.4640 C.ar   56  DT56        0.2805
   1125  O4        21.4020   -9.3180    4.6030 O.3    56  DT56       -0.2639
   1126  C5        22.7620   -7.9370    3.2320 C.ar   56  DT56        0.0533
   1127  C6        23.8150   -7.1150    3.2240 C.ar   56  DT56        0.0824
   1128  C7        21.9910   -8.2420    1.9820 C.3    56  DT56        0.0398
   1129  P         29.2260   -7.2600    2.0200 P.3    57  DG57        0.2141
   1130  OP1       30.4060   -6.8750    1.2080 O.2    57  DG57       -0.5172
   1131  OP2       28.2720   -8.2660    1.4950 O.3    57  DG57       -0.4373
   1132  O5'       29.7530   -7.7720    3.4320 O.3    57  DG57       -0.3114
   1133  C5'       30.4050   -6.8670    4.3370 C.3    57  DG57        0.1811
   1134  C4'       30.3300   -7.3880    5.7520 C.3    57  DG57        0.1767
   1135  O4'       28.9490   -7.6940    6.0890 O.3    57  DG57       -0.3157
   1136  C3'       31.0400   -8.6980    6.0450 C.3    57  DG57        0.1581
   1137  O3'       32.4440   -8.5020    6.1980 O.3    57  DG57       -0.3138
   1138  C2'       30.3720   -9.1160    7.3500 C.3    57  DG57        0.1122
   1139  C1'       28.9240   -8.7040    7.0890 C.3    57  DG57        0.2866
   1140  N9        28.2080   -9.7440    6.5500 N.pl3  57  DG57       -0.1563
   1141  C8        27.9750   -9.9940    5.2200 C.3    57  DG57        0.2866
   1142  N7        27.2650  -11.0700    5.0140 N.3    57  DG57       -0.2101
   1143  C5        27.0100  -11.5600    6.2810 C.3    57  DG57        0.2601
   1144  C6        26.2880  -12.7070    6.7000 C.2    57  DG57        0.3124
   1145  O6        25.7080  -13.5450    5.9980 O.2    57  DG57       -0.3404
   1146  N1        26.2750  -12.8370    8.0860 N.2    57  DG57       -0.3096
   1147  C2        26.8830  -11.9690    8.9610 C.cat  57  DG57        0.4272
   1148  N2        26.7600  -12.2610   10.2630 N.pl3  57  DG57       -0.0481
   1149  N3        27.5580  -10.9010    8.5870 N.2    57  DG57        0.0089
   1150  C4        27.5850  -10.7540    7.2460 C.2    57  DG57        0.3324
   1151  P         33.3310   -9.7220    6.2880 P.3    58  DC58        0.2141
   1152  OP1       34.6030   -8.9920    6.5040 O.3    58  DC58       -0.4373
   1153  OP2       33.1020  -10.4640    5.0270 O.2    58  DC58       -0.5172
   1154  O5'       33.0830  -10.8130    7.4400 O.3    58  DC58       -0.3114
   1155  C5'       33.5160  -10.5820    8.7760 C.3    58  DC58        0.1811
   1156  C4'       32.8650  -11.4970    9.7960 C.3    58  DC58        0.1746
   1157  O4'       31.4280  -11.5430    9.5900 O.3    58  DC58       -0.3327
   1158  C3'       33.2810  -12.9660    9.8030 C.3    58  DC58        0.1558
   1159  O3'       34.5080  -13.2190   10.4660 O.3    58  DC58       -0.3138
   1160  C2'       32.0980  -13.6370   10.4840 C.3    58  DC58        0.0866
   1161  C1'       30.9310  -12.8170    9.9430 C.3    58  DC58        0.2106
   1162  N1        30.3370  -13.4300    8.7820 N.ar   58  DC58       -0.2556
   1163  C2        29.5570  -14.5840    8.9180 C.ar   58  DC58        0.3531
   1164  O2        29.4660  -15.1150   10.0380 O.2    58  DC58       -0.2443
   1165  N3        28.9270  -15.0870    7.8300 N.ar   58  DC58       -0.1739
   1166  C4        29.0550  -14.4840    6.6470 C.ar   58  DC58        0.1759
   1167  N4        28.4160  -15.0160    5.6030 N.pl3  58  DC58       -0.1070
   1168  C5        29.8410  -13.3140    6.4880 C.ar   58  DC58        0.0566
   1169  C6        30.4610  -12.8210    7.5650 C.ar   58  DC58        0.0849
   1170  P         35.3930  -14.3000    9.9780 P.3    59  DA59        0.2141
   1171  OP1       36.6040  -14.2310   10.8450 O.3    59  DA59       -0.4373
   1172  OP2       35.5300  -14.6330    8.5380 O.2    59  DA59       -0.5172
   1173  O5'       34.3800  -15.3470   10.6260 O.3    59  DA59       -0.3114
   1174  C5'       34.6420  -15.9100   11.9100 C.3    59  DA59        0.1811
   1175  C4'       33.5180  -16.8260   12.3290 C.3    59  DA59        0.1746
   1176  O4'       32.2600  -16.4490   11.7000 O.3    59  DA59       -0.3327
   1177  C3'       33.6570  -18.2770   11.9280 C.3    59  DA59        0.1558
   1178  O3'       34.6400  -18.9710   12.6790 O.3    59  DA59       -0.3138
   1179  C2'       32.2340  -18.7740   12.1400 C.3    59  DA59        0.0865
   1180  C1'       31.4510  -17.6080   11.5420 C.3    59  DA59        0.2094
   1181  N9        31.1800  -17.8050   10.1340 N.ar   59  DA59       -0.2714
   1182  C8        31.5360  -16.8540    9.2130 C.ar   59  DA59        0.1815
   1183  N7        31.0240  -17.0540    8.0220 N.ar   59  DA59       -0.2193
   1184  C5        30.2820  -18.2150    8.1700 C.ar   59  DA59        0.1518
   1185  C6        29.4940  -18.9550    7.2700 C.ar   59  DA59        0.1919
   1186  N6        29.3180  -18.6170    5.9910 N.pl3  59  DA59       -0.1054
   1187  N1        28.8880  -20.0670    7.7370 N.ar   59  DA59       -0.2040
   1188  C2        29.0650  -20.4040    9.0200 C.ar   59  DA59        0.2016
   1189  N3        29.7790  -19.7900    9.9600 N.ar   59  DA59       -0.2048
   1190  C4        30.3690  -18.6900    9.4640 C.ar   59  DA59        0.1691
   1191  P         35.4630  -20.1230   11.9810 P.3    60  DC60        0.2141
   1192  OP1       36.4250  -20.4910   13.0420 O.3    60  DC60       -0.4373
   1193  OP2       35.9230  -19.7910   10.6140 O.2    60  DC60       -0.5172
   1194  O5'       34.4560  -21.3470   11.7650 O.3    60  DC60       -0.3114
   1195  C5'       34.0880  -22.0560   12.9330 C.3    60  DC60        0.1811
   1196  C4'       32.8730  -22.9130   12.7190 C.3    60  DC60        0.1746
   1197  O4'       31.8460  -22.1540   12.0340 O.3    60  DC60       -0.3327
   1198  C3'       33.0560  -24.1190   11.8210 C.3    60  DC60        0.1558
   1199  O3'       33.7380  -25.1810   12.4520 O.3    60  DC60       -0.3138
   1200  C2'       31.6160  -24.4440   11.4630 C.3    60  DC60        0.0866
   1201  C1'       31.0600  -23.0350   11.2580 C.3    60  DC60        0.2106
   1202  N1        31.2300  -22.7570    9.7790 N.ar   60  DC60       -0.2556
   1203  C2        30.2780  -23.2190    8.8620 C.ar   60  DC60        0.3531
   1204  O2        29.3910  -23.9930    9.2610 O.2    60  DC60       -0.2443
   1205  N3        30.3520  -22.8110    7.5730 N.ar   60  DC60       -0.1739
   1206  C4        31.3220  -21.9810    7.1900 C.ar   60  DC60        0.1759
   1207  N4        31.3550  -21.6060    5.9090 N.pl3  60  DC60       -0.1070
   1208  C5        32.2960  -21.5010    8.1030 C.ar   60  DC60        0.0566
   1209  C6        32.2200  -21.9070    9.3760 C.ar   60  DC60        0.0849
   1210  P         34.5330  -25.4400   11.7930 P.3    61  DA61        0.2141
   1211  OP1       35.5680  -26.0970   12.6280 O.3    61  DA61       -0.4373
   1212  OP2       34.9380  -24.4760   10.7440 O.2    61  DA61       -0.5172
   1213  O5'       33.6470  -26.5140   10.9920 O.3    61  DA61       -0.3114
   1214  C5'       32.4910  -27.1180   11.5610 C.3    61  DA61        0.1811
   1215  C4'       31.5970  -27.7550   10.5180 C.3    61  DA61        0.1744
   1216  O4'       30.9360  -26.7350    9.7230 O.3    61  DA61       -0.3349
   1217  C3'       32.2720  -28.6350    9.4790 C.3    61  DA61        0.1555
   1218  O3'       32.5470  -29.9400    9.9490 O.3    61  DA61       -0.3139
   1219  C2'       31.2540  -28.6360    8.3500 C.3    61  DA61        0.0835
   1220  C1'       30.7270  -27.2060    8.4080 C.3    61  DA61        0.1974
   1221  N9        31.4470  -26.4260    7.4650 N.pl3  61  DA61       -0.2458
   1222  C8        32.5380  -25.6340    7.7110 C.2    61  DA61        0.1669
   1223  N7        33.0640  -25.1080    6.6310 N.2    61  DA61       -0.2209
   1224  C5        32.2650  -25.5870    5.6050 C.2    61  DA61        0.1902
   1225  C6        32.2960  -25.3950    4.2120 C.2    61  DA61        0.4251
   1226  N6        33.2020  -24.6350    3.5910 N.pl3  61  DA61        0.2155
   1227  N1        31.3540  -26.0180    3.4730 N.pl3  61  DA61        0.0229
   1228  C2        30.4470  -26.7780    4.0960 C.2    61  DA61        0.3241
   1229  N3        30.3140  -27.0330    5.3960 N.2    61  DA61       -0.2026
   1230  C4        31.2650  -26.4010    6.1030 C.3    61  DA61        0.2332
   1231  P         33.5890  -30.9850    9.0190 P.3    62  DT62        0.2141
   1232  OP1       34.1380  -31.9880    9.9540 O.3    62  DT62       -0.4373
   1233  OP2       34.4200  -29.8360    8.6080 O.2    62  DT62       -0.5172
   1234  O5'       33.1630  -31.6830    7.6430 O.3    62  DT62       -0.3114
   1235  C5'       32.0990  -32.6290    7.5710 C.3    62  DT62        0.1811
   1236  C4'       31.1520  -32.2630    6.4500 C.3    62  DT62        0.1746
   1237  O4'       31.0020  -30.8140    6.4310 O.3    62  DT62       -0.3327
   1238  C3'       31.5350  -32.5930    5.0110 C.3    62  DT62        0.1558
   1239  O3'       31.2310  -33.9560    4.6880 O.3    62  DT62       -0.3138
   1240  C2'       30.6140  -31.6490    4.2490 C.3    62  DT62        0.0866
   1241  C1'       30.7070  -30.3840    5.1070 C.3    62  DT62        0.2106
   1242  N1        31.6920  -29.5740    4.6320 N.ar   62  DT62       -0.2559
   1243  C2        31.5960  -28.8220    3.4770 C.ar   62  DT62        0.3545
   1244  O2        30.6750  -28.9330    2.6870 O.2    62  DT62       -0.2443
   1245  N3        32.6220  -27.9310    3.2760 N.ar   62  DT62       -0.1533
   1246  C4        33.7110  -27.7200    4.0960 C.ar   62  DT62        0.2804
   1247  O4        34.5520  -26.8820    3.7820 O.2    62  DT62       -0.2654
   1248  C5        33.7400  -28.5390    5.2750 C.ar   62  DT62        0.0534
   1249  C6        32.7550  -29.4140    5.4950 C.ar   62  DT62        0.0824
   1250  C7        34.8860  -28.3840    6.2310 C.3    62  DT62        0.0377
   1251  P         31.5060  -34.1250    3.3580 P.3    63  DA63        0.2141
   1252  OP1       30.5160  -35.0820    3.9100 O.3    63  DA63       -0.4373
   1253  OP2       32.8050  -34.6310    2.8380 O.2    63  DA63       -0.5172
   1254  O5'       30.8040  -33.2900    2.1900 O.3    63  DA63       -0.3114
   1255  C5'       29.4790  -32.7650    2.3300 C.3    63  DA63        0.1810
   1256  C4'       28.4910  -33.6100    1.5510 C.3    63  DA63        0.1725
   1257  O4'       28.4900  -34.9450    2.1200 O.3    63  DA63       -0.3511
   1258  C3'       27.0360  -33.1530    1.6130 C.3    63  DA63        0.1538
   1259  O3'       26.7410  -32.2330    0.5610 O.3    63  DA63       -0.3139
   1260  C2'       26.2720  -34.4600    1.4340 C.3    63  DA63        0.0646
   1261  C1'       27.1660  -35.4400    2.1920 C.3    63  DA63        0.1449
   1262  N9        27.0510  -35.3530    4.1150 N.ar   63  DA63       -0.2032
   1263  C8        28.1410  -35.1910    4.9300 C.ar   63  DA63        0.2005
   1264  N7        27.9290  -35.5520    6.1740 N.ar   63  DA63       -0.2179
   1265  C5        26.6110  -35.9790    6.1760 C.ar   63  DA63        0.1534
   1266  C6        25.7820  -36.4860    7.1920 C.ar   63  DA63        0.1919
   1267  N6        26.1800  -36.6560    8.4550 N.pl3  63  DA63       -0.1054
   1268  N1        24.5150  -36.8170    6.8610 N.ar   63  DA63       -0.2040
   1269  C2        24.1170  -36.6470    5.5950 C.ar   63  DA63        0.2016
   1270  N3        24.8030  -36.1800    4.5530 N.ar   63  DA63       -0.2031
   1271  C4        26.0560  -35.8610    4.9150 C.ar   63  DA63        0.1862
   1272  P         25.9890  -31.4900    0.5850 P.3    64  DC64        0.2141
   1273  OP1       25.9050  -30.9740   -0.7990 O.2    64  DC64       -0.5172
   1274  OP2       26.4530  -30.6110    1.6820 O.3    64  DC64       -0.4373
   1275  O5'       24.5480  -31.9950    1.0630 O.3    64  DC64       -0.3114
   1276  C5'       23.9650  -33.1230    0.4230 C.3    64  DC64        0.1811
   1277  C4'       23.1050  -33.9300    1.3650 C.3    64  DC64        0.1746
   1278  O4'       23.8980  -34.3890    2.4920 O.3    64  DC64       -0.3327
   1279  C3'       21.9380  -33.1940    2.0110 C.3    64  DC64        0.1558
   1280  O3'       20.8150  -33.0830    1.1580 O.3    64  DC64       -0.3138
   1281  C2'       21.6780  -34.0290    3.2600 C.3    64  DC64        0.0866
   1282  C1'       23.1030  -34.4190    3.6570 C.3    64  DC64        0.2106
   1283  N1        23.7040  -33.5030    4.5890 N.ar   64  DC64       -0.2556
   1284  C2        23.4100  -33.5890    5.9550 C.ar   64  DC64        0.3531
   1285  O2        22.5900  -34.4410    6.3370 O.2    64  DC64       -0.2443
   1286  N3        24.0240  -32.7430    6.8160 N.ar   64  DC64       -0.1739
   1287  C4        24.8960  -31.8430    6.3600 C.ar   64  DC64        0.1759
   1288  N4        25.4760  -31.0310    7.2460 N.pl3  64  DC64       -0.1070
   1289  C5        25.2080  -31.7400    4.9800 C.ar   64  DC64        0.0566
   1290  C6        24.5990  -32.5770    4.1330 C.ar   64  DC64        0.0849
   1291  P         19.5820  -32.0850    1.5170 P.3    65  DC65        0.2141
   1292  OP1       18.4790  -32.1370    0.5300 O.2    65  DC65       -0.5172
   1293  OP2       20.2480  -30.7980    1.8230 O.3    65  DC65       -0.4373
   1294  O5'       19.0770  -32.5980    2.9440 O.3    65  DC65       -0.3114
   1295  C5'       18.1660  -33.6780    3.0640 C.3    65  DC65        0.1811
   1296  C4'       18.0880  -34.1660    4.4880 C.3    65  DC65        0.1746
   1297  O4'       19.4140  -34.1450    5.0670 O.3    65  DC65       -0.3327
   1298  C3'       17.2560  -33.3340    5.4510 C.3    65  DC65        0.1558
   1299  O3'       15.8780  -33.6450    5.3820 O.3    65  DC65       -0.3138
   1300  C2'       17.8620  -33.6920    6.7960 C.3    65  DC65        0.0866
   1301  C1'       19.3340  -33.8210    6.4360 C.3    65  DC65        0.2106
   1302  N1        20.1380  -32.6050    6.7650 N.ar   65  DC65       -0.2556
   1303  C2        20.3410  -32.1620    8.0780 C.ar   65  DC65        0.3531
   1304  O2        19.8350  -32.8080    9.0110 O.2    65  DC65       -0.2443
   1305  N3        21.0780  -31.0460    8.2910 N.ar   65  DC65       -0.1739
   1306  C4        21.6010  -30.3840    7.2590 C.ar   65  DC65        0.1759
   1307  N4        22.3200  -29.2900    7.5180 N.pl3  65  DC65       -0.1070
   1308  C5        21.4070  -30.8160    5.9210 C.ar   65  DC65        0.0566
   1309  C6        20.6790  -31.9190    5.7150 C.ar   65  DC65        0.0849
   1310  P         14.8560  -32.5360    5.2170 P.3    66  DA66        0.2141
   1311  OP1       13.4410  -32.9420    4.7890 O.3    66  DA66       -0.4373
   1312  OP2       15.4840  -31.3020    4.6520 O.2    66  DA66       -0.5172
   1313  O5'       14.9250  -32.4540    6.8450 O.3    66  DA66       -0.3114
   1314  C5'       14.1920  -33.5210    7.5900 C.3    66  DA66        0.1811
   1315  C4'       14.7870  -33.8030    8.9690 C.3    66  DA66        0.1746
   1316  O4'       16.2450  -33.9040    8.9160 O.3    66  DA66       -0.3327
   1317  C3'       14.5460  -32.7340   10.0190 C.3    66  DA66        0.1558
   1318  O3'       13.2290  -32.7690   10.4860 O.3    66  DA66       -0.3138
   1319  C2'       15.6080  -33.1740   11.0330 C.3    66  DA66        0.0865
   1320  C1'       16.8100  -33.3800   10.1030 C.3    66  DA66        0.2094
   1321  N9        17.4550  -32.0580    9.9050 N.ar   66  DA66       -0.2714
   1322  C8        17.6640  -31.5390    8.6540 C.ar   66  DA66        0.1815
   1323  N7        18.5020  -30.5300    8.6330 N.ar   66  DA66       -0.2193
   1324  C5        18.8670  -30.3740    9.9610 C.ar   66  DA66        0.1518
   1325  C6        19.7330  -29.4730   10.6040 C.ar   66  DA66        0.1919
   1326  N6        20.4160  -28.5200    9.9660 N.pl3  66  DA66       -0.1054
   1327  N1        19.8740  -29.5870   11.9420 N.ar   66  DA66       -0.2040
   1328  C2        19.1900  -30.5430   12.5810 C.ar   66  DA66        0.2016
   1329  N3        18.3480  -31.4480   12.0870 N.ar   66  DA66       -0.2048
   1330  C4        18.2290  -31.3070   10.7560 C.ar   66  DA66        0.1691
   1331  P         12.3840  -31.6320   10.1470 P.3    67  DG67        0.2141
   1332  OP1       10.9620  -31.6850   10.5450 O.3    67  DG67       -0.4373
   1333  OP2       12.7680  -30.7310    9.0300 O.2    67  DG67       -0.5172
   1334  O5'       13.3080  -31.3090   11.4170 O.3    67  DG67       -0.3114
   1335  C5'       12.9160  -31.5570   12.7630 C.3    67  DG67        0.1812
   1336  C4'       14.0050  -31.1160   13.7340 C.3    67  DG67        0.1775
   1337  O4'       15.3110  -31.2380   13.0930 O.3    67  DG67       -0.3326
   1338  C3'       13.9870  -29.6570   14.2090 C.3    67  DG67        0.1859
   1339  O3'       13.0480  -29.3880   15.2520 O.3    67  DG67       -0.2202
   1340  C2'       15.4590  -29.4670   14.6070 C.3    67  DG67        0.0894
   1341  C1'       16.0930  -30.0770   13.3570 C.3    67  DG67        0.2095
   1342  N9        16.0270  -28.9160   12.1630 N.ar   67  DG67       -0.2713
   1343  C8        15.6330  -29.3720   10.9280 C.ar   67  DG67        0.1816
   1344  N7        15.9430  -28.5580    9.9560 N.ar   67  DG67       -0.2173
   1345  C5        16.5810  -27.5030   10.5820 C.ar   67  DG67        0.1748
   1346  C6        17.1430  -26.3160   10.0470 C.ar   67  DG67        0.3023
   1347  O6        17.1860  -25.9540    8.8640 O.2    67  DG67       -0.2633
   1348  N1        17.6950  -25.5080   11.0380 N.ar   67  DG67       -0.1709
   1349  C2        17.7040  -25.8080   12.3790 C.ar   67  DG67        0.2606
   1350  N2        18.2840  -24.9060   13.1820 N.pl3  67  DG67       -0.0859
   1351  N3        17.1860  -26.9070   12.8910 N.ar   67  DG67       -0.1918
   1352  C4        16.6440  -27.7060   11.9470 C.ar   67  DG67        0.1722
   1353  P         11.7110  -28.8720   14.8250 P.3    68  DC68        0.4149
   1354  OP1       10.4970  -29.3040   15.5540 O.2    68  DC68       -0.2668
   1355  OP2       11.5810  -27.9610   13.6650 O.3    68  DC68       -0.1481
   1356  O5'       12.7610  -28.1410   15.7990 O.3    68  DC68       -0.2177
   1357  C5'       12.6130  -26.7900   16.2340 C.3    68  DC68        0.2140
   1358  C4'       13.9360  -26.0590   16.2860 C.3    68  DC68        0.1776
   1359  O4'       14.7230  -26.4190   15.1180 O.3    68  DC68       -0.3326
   1360  C3'       13.8700  -24.5340   16.2430 C.3    68  DC68        0.1559
   1361  O3'       13.6360  -23.9130   17.4980 O.3    68  DC68       -0.3138
   1362  C2'       15.2040  -24.1400   15.6170 C.3    68  DC68        0.0866
   1363  C1'       15.4500  -25.3030   14.6490 C.3    68  DC68        0.2106
   1364  N1        15.0830  -24.8710   13.3150 N.ar   68  DC68       -0.2556
   1365  C2        15.8410  -23.8820   12.6790 C.ar   68  DC68        0.3531
   1366  O2        16.6510  -23.2230   13.3530 O.2    68  DC68       -0.2443
   1367  N3        15.6700  -23.6720   11.3520 N.ar   68  DC68       -0.1739
   1368  C4        14.7890  -24.4030   10.6680 C.ar   68  DC68        0.1759
   1369  N4        14.6550  -24.1600    9.3620 N.pl3  68  DC68       -0.1070
   1370  C5        14.0110  -25.4100   11.2940 C.ar   68  DC68        0.0566
   1371  C6        14.1830  -25.6140   12.6050 C.ar   68  DC68        0.0849
   1372  P         13.1410  -22.7210   17.3700 P.3    69  DT69        0.2141
   1373  OP1       12.9460  -22.2600   18.7650 O.3    69  DT69       -0.4373
   1374  OP2       11.9950  -23.2720   16.6020 O.2    69  DT69       -0.5172
   1375  O5'       13.8060  -21.5260   16.5310 O.3    69  DT69       -0.3114
   1376  C5'       14.7730  -20.7240   17.1740 C.3    69  DT69        0.1811
   1377  C4'       15.5760  -19.9000   16.1880 C.3    69  DT69        0.1746
   1378  O4'       15.8730  -20.6780   15.0050 O.3    69  DT69       -0.3327
   1379  C3'       14.8570  -18.6900   15.6330 C.3    69  DT69        0.1558
   1380  O3'       14.9180  -17.6390   16.5660 O.3    69  DT69       -0.3138
   1381  C2'       15.7270  -18.3980   14.4220 C.3    69  DT69        0.0866
   1382  C1'       15.9600  -19.8060   13.8950 C.3    69  DT69        0.2106
   1383  N1        14.9070  -20.1910   12.9330 N.ar   69  DT69       -0.2559
   1384  C2        14.8570  -19.6870   11.6470 C.ar   69  DT69        0.3545
   1385  O2        15.5910  -18.7990   11.2530 O.2    69  DT69       -0.2443
   1386  N3        13.9100  -20.2620   10.8340 N.ar   69  DT69       -0.1533
   1387  C4        13.0280  -21.2680   11.1710 C.ar   69  DT69        0.2804
   1388  O4        12.2340  -21.6830   10.3300 O.2    69  DT69       -0.2654
   1389  C5        13.1420  -21.7370   12.5230 C.ar   69  DT69        0.0534
   1390  C6        14.0540  -21.1950   13.3350 C.ar   69  DT69        0.0824
   1391  C7        12.2250  -22.8300   12.9860 C.3    69  DT69        0.0377
   1392  P         13.7070  -16.5290   16.6110 P.3    70  DT70        0.2141
   1393  OP1       14.0010  -15.6620   17.7710 O.3    70  DT70       -0.4373
   1394  OP2       12.3570  -17.1270   16.4800 O.2    70  DT70       -0.5172
   1395  O5'       14.0360  -15.7280   15.2620 O.3    70  DT70       -0.3114
   1396  C5'       14.6980  -14.4700   15.3140 C.3    70  DT70        0.1811
   1397  C4'       15.0320  -13.9680   13.9230 C.3    70  DT70        0.1746
   1398  O4'       15.3240  -15.0830   13.0510 O.3    70  DT70       -0.3327
   1399  C3'       13.9020  -13.2600   13.2000 C.3    70  DT70        0.1558
   1400  O3'       13.8110  -11.9360   13.6170 O.3    70  DT70       -0.3138
   1401  C2'       14.3720  -13.3450   11.7610 C.3    70  DT70        0.0866
   1402  C1'       14.8810  -14.7780   11.7410 C.3    70  DT70        0.2106
   1403  N1        13.8300  -15.6650   11.1840 N.ar   70  DT70       -0.2559
   1404  C2        13.6290  -15.7830    9.8220 C.ar   70  DT70        0.3545
   1405  O2        14.0990  -15.0040    9.0110 O.2    70  DT70       -0.2443
   1406  N3        12.8520  -16.8500    9.4390 N.ar   70  DT70       -0.1533
   1407  C4        12.2700  -17.7900   10.2640 C.ar   70  DT70        0.2804
   1408  O4        11.5980  -18.6930    9.7720 O.2    70  DT70       -0.2654
   1409  C5        12.5240  -17.5990   11.6640 C.ar   70  DT70        0.0534
   1410  C6        13.2760  -16.5700   12.0640 C.ar   70  DT70        0.0824
   1411  C7        11.9330  -18.5700   12.6430 C.3    70  DT70        0.0377
   1412  P         12.7670  -11.7380   14.1620 P.3    71  DA71        0.2141
   1413  OP1       12.8770  -10.3820   14.7580 O.2    71  DA71       -0.5172
   1414  OP2       11.8450  -12.7290   14.7820 O.3    71  DA71       -0.4373
   1415  O5'       12.3500  -11.5010   12.6420 O.3    71  DA71       -0.3114
   1416  C5'       12.7250  -10.2980   11.9850 C.3    71  DA71        0.1811
   1417  C4'       12.2800  -10.3280   10.5490 C.3    71  DA71        0.1744
   1418  O4'       12.3310  -11.7080   10.1260 O.3    71  DA71       -0.3349
   1419  C3'       10.8340   -9.9620   10.2640 C.3    71  DA71        0.1556
   1420  O3'       10.6410   -8.5520   10.1800 O.3    71  DA71       -0.3138
   1421  C2'       10.5930  -10.6340    8.9170 C.3    71  DA71        0.0816
   1422  C1'       11.4090  -11.9190    9.0780 C.3    71  DA71        0.1975
   1423  N9        10.6340  -13.1100    9.3370 N.pl3  71  DA71       -0.2458
   1424  C8        10.7070  -13.7900   10.5240 C.2    71  DA71        0.1669
   1425  N7        10.0220  -14.9090   10.5350 N.2    71  DA71       -0.2209
   1426  C5         9.4620  -14.9680    9.2690 C.2    71  DA71        0.1904
   1427  C6         8.6250  -15.9110    8.6480 C.2    71  DA71        0.4294
   1428  N6         8.1910  -17.0230    9.2480 N.pl3  71  DA71        0.2158
   1429  N1         8.2450  -15.6700    7.3760 N.pl3  71  DA71        0.0670
   1430  C2         8.6810  -14.5570    6.7750 C.2    71  DA71        0.3299
   1431  N3         9.4700  -13.5970    7.2540 N.2    71  DA71       -0.2023
   1432  C4         9.8290  -13.8660    8.5200 C.3    71  DA71        0.2332
   1433  P          9.5360   -8.1510   10.4360 P.3    72  DT72        0.2141
   1434  OP1        9.4200   -6.7070   10.1060 O.2    72  DT72       -0.5172
   1435  OP2        9.3150   -8.6080   11.8380 O.3    72  DT72       -0.4373
   1436  O5'        8.5860   -8.9760    9.4620 O.3    72  DT72       -0.3114
   1437  C5'        8.6270   -8.7460    8.0570 C.3    72  DT72        0.1811
   1438  C4'        7.4650   -9.4280    7.3860 C.3    72  DT72        0.1746
   1439  O4'        7.8040  -10.8110    7.0870 O.3    72  DT72       -0.3327
   1440  C3'        6.1980   -9.5080    8.2220 C.3    72  DT72        0.1558
   1441  O3'        5.4600   -8.2720    8.2170 O.3    72  DT72       -0.3138
   1442  C2'        5.4870  -10.6940    7.5680 C.3    72  DT72        0.0866
   1443  C1'        6.6590  -11.6350    7.2630 C.3    72  DT72        0.2106
   1444  N1         6.8550  -12.5000    8.6360 N.ar   72  DT72       -0.2559
   1445  C2         6.1520  -13.6890    8.6680 C.ar   72  DT72        0.3545
   1446  O2         5.4100  -14.0470    7.7700 O.2    72  DT72       -0.2443
   1447  N3         6.3470  -14.4490    9.7960 N.ar   72  DT72       -0.1533
   1448  C4         7.1560  -14.1460   10.8710 C.ar   72  DT72        0.2804
   1449  O4         7.2290  -14.9310   11.8130 O.2    72  DT72       -0.2654
   1450  C5         7.8520  -12.8950   10.7630 C.ar   72  DT72        0.0534
   1451  C6         7.6810  -12.1360    9.6770 C.ar   72  DT72        0.0824
   1452  C7         8.7580  -12.4760   11.8830 C.3    72  DT72        0.0377
   1453  P          5.4110   -7.5370    9.7660 P.3    73  DT73        0.2141
   1454  OP1        5.2360   -6.2490    9.0620 O.2    73  DT73       -0.5172
   1455  OP2        6.1030   -7.5960   11.0720 O.3    73  DT73       -0.4373
   1456  O5'        3.9890   -8.2040   10.0520 O.3    73  DT73       -0.3114
   1457  C5'        2.9800   -8.0690    9.0640 C.3    73  DT73        0.1811
   1458  C4'        2.0520   -9.2560    9.0280 C.3    73  DT73        0.1746
   1459  O4'        2.8190  -10.4870    9.0220 O.3    73  DT73       -0.3327
   1460  C3'        1.1390   -9.4350   10.2260 C.3    73  DT73        0.1558
   1461  O3'        0.0410   -8.5460   10.2440 O.3    73  DT73       -0.3138
   1462  C2'        0.7420  -10.8950   10.0830 C.3    73  DT73        0.0866
   1463  C1'        2.0860  -11.4960    9.6840 C.3    73  DT73        0.2106
   1464  N1         2.9130  -11.9690   10.8200 N.ar   73  DT73       -0.2559
   1465  C2         2.5290  -13.1400   11.4450 C.ar   73  DT73        0.3545
   1466  O2         1.5360  -13.7700   11.1240 O.2    73  DT73       -0.2443
   1467  N3         3.3510  -13.5510   12.4670 N.ar   73  DT73       -0.1533
   1468  C4         4.4940  -12.9220   12.9150 C.ar   73  DT73        0.2804
   1469  O4         5.1300  -13.4130   13.8440 O.2    73  DT73       -0.2654
   1470  C5         4.8260  -11.7120   12.2160 C.ar   73  DT73        0.0534
   1471  C6         4.0430  -11.2900   11.2190 C.ar   73  DT73        0.0824
   1472  C7         6.0520  -10.9540   12.6300 C.3    73  DT73        0.0377
   1473  P         -0.3290   -8.0590   11.6680 P.3    74  DC74        0.2141
   1474  OP1       -1.3090   -7.3320   10.8170 O.2    74  DC74       -0.5172
   1475  OP2        0.5410   -7.2980   12.6030 O.3    74  DC74       -0.4373
   1476  O5'       -1.1420   -9.1280   12.5170 O.3    74  DC74       -0.3114
   1477  C5'       -2.0540   -8.7120   13.5510 C.3    74  DC74        0.1811
   1478  C4'       -2.8550   -9.8950   14.0290 C.3    74  DC74        0.1746
   1479  O4'       -3.8030  -10.2960   13.0070 O.3    74  DC74       -0.3327
   1480  C3'       -2.0080  -11.1250   14.2890 C.3    74  DC74        0.1558
   1481  O3'       -1.4590  -11.0580   15.6040 O.3    74  DC74       -0.3138
   1482  C2'       -2.9950  -12.2690   14.0750 C.3    74  DC74        0.0866
   1483  C1'       -3.8760  -11.7100   12.9500 C.3    74  DC74        0.2106
   1484  N1        -3.5310  -12.0720   11.5810 N.ar   74  DC74       -0.2556
   1485  C2        -3.8100  -13.3980   11.2320 C.ar   74  DC74        0.3531
   1486  O2        -4.4540  -14.1030   12.0280 O.2    74  DC74       -0.2443
   1487  N3        -3.3690  -13.8740   10.0430 N.ar   74  DC74       -0.1739
   1488  C4        -2.6810  -13.0810    9.2210 C.ar   74  DC74        0.1759
   1489  N4        -2.2670  -13.5940    8.0600 N.pl3  74  DC74       -0.1070
   1490  C5        -2.3880  -11.7340    9.5560 C.ar   74  DC74        0.0566
   1491  C6        -2.8250  -11.2680   10.7310 C.ar   74  DC74        0.0849
   1492  P         -0.2780  -11.9790   16.0740 P.3    75  DA75        0.2141
   1493  OP1        0.0930  -11.2980   17.3350 O.3    75  DA75       -0.4373
   1494  OP2        0.4750  -11.7130   14.8350 O.2    75  DA75       -0.5172
   1495  O5'       -0.2750  -13.5510   16.3440 O.3    75  DA75       -0.3114
   1496  C5'       -1.4570  -14.1520   16.8090 C.3    75  DA75        0.1811
   1497  C4'       -1.5600  -15.5510   16.2520 C.3    75  DA75        0.1746
   1498  O4'       -2.1710  -15.5290   14.9420 O.3    75  DA75       -0.3327
   1499  C3'       -0.2230  -16.2020   15.9930 C.3    75  DA75        0.1558
   1500  O3'        0.3400  -16.6700   17.2090 O.3    75  DA75       -0.3138
   1501  C2'       -0.6470  -17.3300   15.0570 C.3    75  DA75        0.0865
   1502  C1'       -1.7050  -16.6400   14.1990 C.3    75  DA75        0.2094
   1503  N9        -1.1090  -16.1070   12.9410 N.ar   75  DA75       -0.2714
   1504  C8        -0.7580  -14.8150   12.6480 C.ar   75  DA75        0.1815
   1505  N7        -0.2600  -14.6620   11.4440 N.ar   75  DA75       -0.2193
   1506  C5        -0.2830  -15.9410   10.9110 C.ar   75  DA75        0.1518
   1507  C6         0.1130  -16.4520    9.6620 C.ar   75  DA75        0.1919
   1508  N6         0.6290  -15.7020    8.6860 N.pl3  75  DA75       -0.1054
   1509  N1        -0.0430  -17.7760    9.4490 N.ar   75  DA75       -0.2040
   1510  C2        -0.5620  -18.5270   10.4280 C.ar   75  DA75        0.2016
   1511  N3        -0.9710  -18.1620   11.6410 N.ar   75  DA75       -0.2048
   1512  C4        -0.8020  -16.8410   11.8210 C.ar   75  DA75        0.1691
   1513  P          2.0140  -16.6650   17.3510 P.3    76  DA76        0.2141
   1514  OP1        2.1640  -17.3750   18.6520 O.3    76  DA76       -0.4373
   1515  OP2        3.0040  -15.6180   16.9570 O.2    76  DA76       -0.5172
   1516  O5'        1.9640  -17.8010   16.2400 O.3    76  DA76       -0.3114
   1517  C5'        0.9610  -18.7940   16.3520 C.3    76  DA76        0.1811
   1518  C4'        1.2630  -19.9610   15.4720 C.3    76  DA76        0.1747
   1519  O4'        1.1320  -19.5690   14.0940 O.3    76  DA76       -0.3327
   1520  C3'        2.6320  -20.5820   15.6290 C.3    76  DA76        0.1559
   1521  O3'        2.3680  -21.9680   15.4890 O.3    76  DA76       -0.3138
   1522  C2'        3.4110  -19.9650   14.4750 C.3    76  DA76        0.0843
   1523  C1'        2.3300  -19.8400   13.4120 C.3    76  DA76        0.2095
   1524  N9         2.3950  -18.7020   12.4910 N.ar   76  DA76       -0.2714
   1525  C8         2.8900  -17.5630   13.0700 C.ar   76  DA76        0.1815
   1526  N7         3.6180  -16.8310   12.2590 N.ar   76  DA76       -0.2193
   1527  C5         3.5990  -17.5380   11.0670 C.ar   76  DA76        0.1518
   1528  C6         4.1830  -17.2920    9.8120 C.ar   76  DA76        0.1919
   1529  N6         4.9300  -16.2180    9.5430 N.pl3  76  DA76       -0.1054
   1530  N1         3.9710  -18.1970    8.8340 N.ar   76  DA76       -0.2040
   1531  C2         3.2220  -19.2720    9.1050 C.ar   76  DA76        0.2016
   1532  N3         2.6200  -19.6120   10.2420 N.ar   76  DA76       -0.2048
   1533  C4         2.8510  -18.6930   11.1950 C.ar   76  DA76        0.1691
   1534  P          3.6810  -23.1040   15.6920 P.3    77  DT77        0.2141
   1535  OP1        3.5680  -24.4710   16.2490 O.2    77  DT77       -0.5172
   1536  OP2        4.4730  -22.0850   16.4200 O.3    77  DT77       -0.4373
   1537  O5'        4.2300  -23.2340   14.1940 O.3    77  DT77       -0.3114
   1538  C5'        3.6160  -24.1670   13.3130 C.3    77  DT77        0.1811
   1539  C4'        3.9960  -23.9230   11.8650 C.3    77  DT77        0.1746
   1540  O4'        3.5250  -22.6280   11.4100 O.3    77  DT77       -0.3327
   1541  C3'        5.4870  -23.8700   11.5870 C.3    77  DT77        0.1558
   1542  O3'        6.0630  -25.1700   11.6080 O.3    77  DT77       -0.3138
   1543  C2'        5.4850  -23.2050   10.2160 C.3    77  DT77        0.0866
   1544  C1'        4.4720  -22.0890   10.4930 C.3    77  DT77        0.2106
   1545  N1         5.1440  -20.9150   11.0210 N.ar   77  DT77       -0.2559
   1546  C2         5.7370  -19.9890   10.1840 C.ar   77  DT77        0.3545
   1547  O2         5.8830  -20.1730    8.9880 O.2    77  DT77       -0.2443
   1548  N3         6.1570  -18.8350   10.7990 N.ar   77  DT77       -0.1533
   1549  C4         6.0470  -18.5200   12.1370 C.ar   77  DT77        0.2804
   1550  O4         6.4710  -17.4410   12.5420 O.2    77  DT77       -0.2654
   1551  C5         5.4210  -19.5320   12.9410 C.ar   77  DT77        0.0533
   1552  C6         5.0030  -20.6640   12.3690 C.ar   77  DT77        0.0824
   1553  C7         5.2550  -19.2840   14.4110 C.3    77  DT77        0.0398
   1554  P          7.4320  -25.4390   12.4180 P.3    78  DT78        0.2141
   1555  OP1        7.2710  -26.9140   12.4500 O.2    78  DT78       -0.5172
   1556  OP2        7.5530  -24.6820   13.6910 O.3    78  DT78       -0.4373
   1557  O5'        8.6910  -25.0610   11.5110 O.3    78  DT78       -0.3114
   1558  C5'        8.9210  -25.7270   10.2680 C.3    78  DT78        0.1811
   1559  C4'        9.0250  -24.7250    9.1360 C.3    78  DT78        0.1746
   1560  O4'        8.1320  -23.6090    9.3980 O.3    78  DT78       -0.3327
   1561  C3'       10.3570  -24.0340    8.9130 C.3    78  DT78        0.1558
   1562  O3'       11.2080  -24.8570    8.1390 O.3    78  DT78       -0.3138
   1563  C2'        9.9240  -22.8420    8.0800 C.3    78  DT78        0.0866
   1564  C1'        8.6520  -22.4310    8.8140 C.3    78  DT78        0.2106
   1565  N1         8.9630  -21.4130    9.7520 N.ar   78  DT78       -0.2559
   1566  C2         9.3670  -20.1360    9.4100 C.ar   78  DT78        0.3545
   1567  O2         9.7050  -19.8270    8.2810 O.2    78  DT78       -0.2443
   1568  N3         9.3640  -19.2290   10.4420 N.ar   78  DT78       -0.1533
   1569  C4         9.0040  -19.4650   11.7530 C.ar   78  DT78        0.2804
   1570  O4         9.0510  -18.5470   12.5680 O.2    78  DT78       -0.2654
   1571  C5         8.5970  -20.8140   12.0290 C.ar   78  DT78        0.0534
   1572  C6         8.5920  -21.7160   11.0440 C.ar   78  DT78        0.0824
   1573  C7         8.1870  -21.1710   13.4270 C.3    78  DT78        0.0377
   1574  P         12.4220  -24.6610    8.2210 P.3    79  DA79        0.2141
   1575  OP1       13.0590  -25.8310    8.8800 O.3    79  DA79       -0.4373
   1576  OP2       12.8730  -23.2640    8.3930 O.2    79  DA79       -0.5172
   1577  O5'       12.3050  -24.9580    6.6430 O.3    79  DA79       -0.3114
   1578  C5'       13.2500  -24.2950    5.8000 C.3    79  DA79        0.1811
   1579  C4'       12.6190  -23.2150    4.9480 C.3    79  DA79        0.1746
   1580  O4'       11.7720  -22.3120    5.6930 O.3    79  DA79       -0.3327
   1581  C3'       13.6470  -22.2260    4.4880 C.3    79  DA79        0.1558
   1582  O3'       14.4680  -22.7380    3.5420 O.3    79  DA79       -0.3138
   1583  C2'       12.7850  -21.1790    3.8780 C.3    79  DA79        0.0865
   1584  C1'       11.6590  -21.1780    4.8700 C.3    79  DA79        0.2094
   1585  N9        11.9760  -19.8550    5.4820 N.ar   79  DA79       -0.2715
   1586  C8        12.1330  -19.7890    6.8420 C.ar   79  DA79        0.1817
   1587  N7        12.1350  -18.5660    7.3150 N.ar   79  DA79       -0.2148
   1588  C5        11.9690  -17.7740    6.1900 C.ar   79  DA79        0.2028
   1589  C6        11.8870  -16.3820    6.0160 C.2    79  DA79        0.4039
   1590  N6        11.9650  -15.5060    7.0210 N.pl3  79  DA79        0.2133
   1591  N1        11.7210  -15.9150    4.7600 N.pl3  79  DA79       -0.0899
   1592  C2        11.6420  -16.7940    3.7540 C.3    79  DA79        0.3495
   1593  N3        11.7040  -18.1230    3.7920 N.2    79  DA79       -0.2042
   1594  C4        11.8710  -18.5540    5.0530 C.ar   79  DA79        0.1712
   1595  P         15.9840  -22.4170    3.6990 P.3    80  DG80        0.2141
   1596  OP1       16.8150  -23.3120    2.8820 O.2    80  DG80       -0.5172
   1597  OP2       16.5230  -22.0270    5.0300 O.3    80  DG80       -0.4373
   1598  O5'       15.6630  -21.1260    2.8000 O.3    80  DG80       -0.3114
   1599  C5'       15.4150  -21.2410    1.3840 C.3    80  DG80        0.1811
   1600  C4'       15.0880  -19.8850    0.7750 C.3    80  DG80        0.1746
   1601  O4'       13.9750  -19.2820    1.4680 O.3    80  DG80       -0.3327
   1602  C3'       16.1620  -18.8270    0.9310 C.3    80  DG80        0.1558
   1603  O3'       17.0730  -18.9610   -0.0790 O.3    80  DG80       -0.3138
   1604  C2'       15.3930  -17.5330    0.7090 C.3    80  DG80        0.0865
   1605  C1'       14.1600  -17.8700    1.5210 C.3    80  DG80        0.2094
   1606  N9        14.1780  -17.4160    2.8800 N.ar   80  DG80       -0.2713
   1607  C8        14.3780  -18.1870    3.9990 C.ar   80  DG80        0.1816
   1608  N7        14.4300  -17.4910    5.1020 N.ar   80  DG80       -0.2173
   1609  C5        14.2520  -16.1830    4.6910 C.ar   80  DG80        0.1748
   1610  C6        14.2150  -14.9770    5.4370 C.ar   80  DG80        0.3023
   1611  O6        14.3370  -14.8290    6.6600 O.2    80  DG80       -0.2633
   1612  N1        14.0130  -13.8660    4.6230 N.ar   80  DG80       -0.1709
   1613  C2        13.8650  -13.9120    3.2570 C.ar   80  DG80        0.2606
   1614  N2        13.6770  -12.7350    2.6440 N.pl3  80  DG80       -0.0859
   1615  N3        13.8980  -15.0240    2.5500 N.ar   80  DG80       -0.1918
   1616  C4        14.0940  -16.1150    3.3200 C.ar   80  DG80        0.1722
   1617  P         18.5860  -18.5170    0.1790 P.3    81  DA81        0.2141
   1618  OP1       19.5520  -19.1060   -0.7830 O.2    81  DA81       -0.5172
   1619  OP2       18.8270  -18.6700    1.6320 O.3    81  DA81       -0.4373
   1620  O5'       18.3700  -16.9500   -0.0360 O.3    81  DA81       -0.3114
   1621  C5'       17.7070  -16.4620   -1.1860 C.3    81  DA81        0.1811
   1622  C4'       17.2540  -15.0270   -0.9790 C.3    81  DA81        0.1746
   1623  O4'       16.3440  -14.9490    0.1450 O.3    81  DA81       -0.3327
   1624  C3'       18.2800  -13.9420   -0.6790 C.3    81  DA81        0.1558
   1625  O3'       18.9940  -13.4730   -1.8130 O.3    81  DA81       -0.3138
   1626  C2'       17.3990  -12.8430   -0.1060 C.3    81  DA81        0.0865
   1627  C1'       16.3980  -13.6540    0.7040 C.3    81  DA81        0.2094
   1628  N9        16.9110  -13.7130    2.1070 N.ar   81  DA81       -0.2714
   1629  C8        17.4220  -14.8170    2.7380 C.ar   81  DA81        0.1815
   1630  N7        17.6850  -14.6250    4.0090 N.ar   81  DA81       -0.2193
   1631  C5        17.3230  -13.3050    4.2270 C.ar   81  DA81        0.1518
   1632  C6        17.3580  -12.4920    5.3740 C.ar   81  DA81        0.1919
   1633  N6        17.7920  -12.9110    6.5650 N.pl3  81  DA81       -0.1054
   1634  N1        16.9260  -11.2190    5.2520 N.ar   81  DA81       -0.2040
   1635  C2        16.4900  -10.8000    4.0580 C.ar   81  DA81        0.2016
   1636  N3        16.4090  -11.4690    2.9110 N.ar   81  DA81       -0.2048
   1637  C4        16.8460  -12.7300    3.0650 C.ar   81  DA81        0.1691
   1638  P         20.3450  -13.5700   -1.7570 P.3    82  DT82        0.2141
   1639  OP1       21.1840  -13.3460   -2.9640 O.2    82  DT82       -0.5172
   1640  OP2       20.6640  -14.6950   -0.8380 O.3    82  DT82       -0.4373
   1641  O5'       20.3380  -12.2290   -0.8960 O.3    82  DT82       -0.3114
   1642  C5'       20.2200  -10.9750   -1.5430 C.3    82  DT82        0.1811
   1643  C4'       20.6290   -9.8540   -0.6190 C.3    82  DT82        0.1747
   1644  O4'       19.6770   -9.7650    0.4770 O.3    82  DT82       -0.3327
   1645  C3'       21.9640  -10.0170    0.0870 C.3    82  DT82        0.1559
   1646  O3'       23.0950   -9.6930   -0.7080 O.3    82  DT82       -0.3138
   1647  C2'       21.8000   -9.0980    1.2880 C.3    82  DT82        0.0844
   1648  C1'       20.3460   -9.3670    1.6650 C.3    82  DT82        0.2107
   1649  N1        20.1770  -10.4320    2.6320 N.ar   82  DT82       -0.2559
   1650  C2        20.3000  -10.0500    3.9540 C.ar   82  DT82        0.3544
   1651  O2        20.4470   -8.8910    4.3000 O.3    82  DT82       -0.2458
   1652  N3        20.2450  -11.0780    4.8640 N.ar   82  DT82       -0.1533
   1653  C4        20.0830  -12.4200    4.5900 C.ar   82  DT82        0.2804
   1654  O4        20.0520  -13.2270    5.5160 O.2    82  DT82       -0.2654
   1655  C5        19.9640  -12.7370    3.1950 C.ar   82  DT82        0.0534
   1656  C6        20.0140  -11.7560    2.2890 C.ar   82  DT82        0.0824
   1657  C7        19.7850  -14.1720    2.7950 C.3    82  DT82        0.0377
   1658  P         24.3170  -10.5790   -0.4950 P.3    83  DA83        0.2141
   1659  OP1       24.5180  -10.0550   -1.8620 O.2    83  DA83       -0.5172
   1660  OP2       24.2180  -12.0400   -0.2760 O.3    83  DA83       -0.4373
   1661  O5'       25.4970   -9.9890    0.4120 O.3    83  DA83       -0.3114
   1662  C5'       25.2210   -9.5930    1.7480 C.3    83  DA83        0.1811
   1663  C4'       26.0880  -10.3320    2.7470 C.3    83  DA83        0.1758
   1664  O4'       25.2190  -10.9380    3.7390 O.3    83  DA83       -0.3336
   1665  C3'       26.8730  -11.5240    2.2180 C.3    83  DA83        0.1701
   1666  O3'       28.0720  -11.1210    1.5640 O.3    83  DA83       -0.3124
   1667  C2'       27.1560  -12.2220    3.5400 C.3    83  DA83        0.1389
   1668  C1'       25.7570  -12.1870    4.1300 C.3    83  DA83        0.2125
   1669  N9        24.8780  -13.2940    3.6160 N.pl3  83  DA83       -0.2435
   1670  C8        24.0860  -13.2890    2.4980 C.2    83  DA83        0.1669
   1671  N7        23.5060  -14.4410    2.2550 N.2    83  DA83       -0.2207
   1672  C5        23.9490  -15.2580    3.2840 C.2    83  DA83        0.1937
   1673  C6        23.6950  -16.6040    3.5980 C.2    83  DA83        0.4342
   1674  N6        22.8980  -17.3950    2.8740 N.pl3  83  DA83        0.2179
   1675  N1        24.2940  -17.1160    4.6940 N.2    83  DA83       -0.0042
   1676  C2        25.0910  -16.3220    5.4190 C.2    83  DA83        0.3515
   1677  N3        25.4060  -15.0440    5.2260 N.4    83  DA83       -0.1242
   1678  C4        24.7950  -14.5660    4.1290 C.3    83  DA83        0.2511
   1679  P         28.4990  -12.0060    0.4890 P.3    84  DG84        0.2141
   1680  OP1       29.5810  -11.4830   -0.3760 O.2    84  DG84       -0.5172
   1681  OP2       27.1710  -12.3050   -0.0910 O.3    84  DG84       -0.4373
   1682  O5'       28.9530  -13.3770    1.1790 O.3    84  DG84       -0.3114
   1683  C5'       30.1960  -13.4320    1.8620 C.3    84  DG84        0.1811
   1684  C4'       30.4790  -14.8150    2.3860 C.3    84  DG84        0.1746
   1685  O4'       29.3380  -15.2960    3.1290 O.3    84  DG84       -0.3327
   1686  C3'       30.7260  -15.8710    1.3340 C.3    84  DG84        0.1558
   1687  O3'       32.0760  -15.8790    0.9440 O.3    84  DG84       -0.3138
   1688  C2'       30.3280  -17.1520    2.0390 C.3    84  DG84        0.0865
   1689  C1'       29.1930  -16.6800    2.9430 C.3    84  DG84        0.2094
   1690  N9        27.8620  -16.9060    2.3160 N.ar   84  DG84       -0.2713
   1691  C8        27.0830  -15.9640    1.6890 C.ar   84  DG84        0.1816
   1692  N7        25.9580  -16.4450    1.2350 N.ar   84  DG84       -0.2173
   1693  C5        25.9920  -17.7830    1.5820 C.ar   84  DG84        0.1748
   1694  C6        25.0500  -18.8190    1.3560 C.ar   84  DG84        0.3023
   1695  O6        23.9570  -18.7490    0.7810 O.2    84  DG84       -0.2633
   1696  N1        25.4820  -20.0370    1.8750 N.ar   84  DG84       -0.1709
   1697  C2        26.6740  -20.2320    2.5310 C.ar   84  DG84        0.2606
   1698  N2        26.9150  -21.4780    2.9610 N.pl3  84  DG84       -0.0859
   1699  N3        27.5590  -19.2790    2.7480 N.ar   84  DG84       -0.1918
   1700  C4        27.1610  -18.0880    2.2520 C.ar   84  DG84        0.1722
   1701  P         32.0850  -15.9610    0.1010 P.3    85  DT85        0.2141
   1702  OP1       33.4950  -15.5140    0.0460 O.3    85  DT85       -0.4373
   1703  OP2       31.0100  -15.1230   -0.4770 O.2    85  DT85       -0.5172
   1704  O5'       31.9720  -17.4170   -0.5500 O.3    85  DT85       -0.3114
   1705  C5'       32.9570  -18.3920   -0.2430 C.3    85  DT85        0.1811
   1706  C4'       32.5060  -19.7590   -0.7160 C.3    85  DT85        0.1746
   1707  O4'       31.2620  -20.1240   -0.0590 O.3    85  DT85       -0.3327
   1708  C3'       32.1510  -19.8460   -2.1910 C.3    85  DT85        0.1558
   1709  O3'       33.3010  -19.8980   -3.0270 O.3    85  DT85       -0.3138
   1710  C2'       31.3710  -21.1530   -2.1600 C.3    85  DT85        0.0866
   1711  C1'       30.4920  -20.9390   -0.9270 C.3    85  DT85        0.2106
   1712  N1        29.2580  -20.2960   -1.2900 N.ar   85  DT85       -0.2559
   1713  C2        28.1660  -21.0180   -1.7340 C.ar   85  DT85        0.3545
   1714  O2        28.2100  -22.2130   -1.9680 O.2    85  DT85       -0.2443
   1715  N3        27.0140  -20.2870   -1.8970 N.ar   85  DT85       -0.1533
   1716  C4        26.8480  -18.9380   -1.6660 C.ar   85  DT85        0.2804
   1717  O4        25.7500  -18.4220   -1.8580 O.2    85  DT85       -0.2654
   1718  C5        28.0270  -18.2580   -1.2080 C.ar   85  DT85        0.0534
   1719  C6        29.1610  -18.9450   -1.0400 C.ar   85  DT85        0.0824
   1720  C7        27.9480  -16.7860   -0.9290 C.3    85  DT85        0.0377
   1721  P         33.4430  -18.9060   -4.0620 P.3    86  DA86        0.2141
   1722  OP1       34.7390  -19.6220   -4.1410 O.3    86  DA86       -0.4373
   1723  OP2       33.2860  -17.6000   -4.7330 O.2    86  DA86       -0.5172
   1724  O5'       32.2770  -19.8620   -4.5970 O.3    86  DA86       -0.3114
   1725  C5'       32.4450  -20.5520   -5.8320 C.3    86  DA86        0.1811
   1726  C4'       32.0620  -22.0140   -5.7010 C.3    86  DA86        0.1746
   1727  O4'       33.0600  -22.7160   -4.9300 O.3    86  DA86       -0.3327
   1728  C3'       30.7780  -22.2660   -4.9390 C.3    86  DA86        0.1558
   1729  O3'       29.6600  -22.0960   -5.7950 O.3    86  DA86       -0.3138
   1730  C2'       30.9500  -23.7110   -4.4780 C.3    86  DA86        0.0865
   1731  C1'       32.4620  -23.8430   -4.3160 C.3    86  DA86        0.2094
   1732  N9        32.8050  -24.0110   -2.9940 N.ar   86  DA86       -0.2714
   1733  C8        33.6520  -23.1160   -2.3920 C.ar   86  DA86        0.1815
   1734  N7        33.9060  -23.3920   -1.1350 N.ar   86  DA86       -0.2193
   1735  C5        33.1750  -24.5450   -0.8940 C.ar   86  DA86        0.1518
   1736  C6        33.0190  -25.3430    0.2530 C.ar   86  DA86        0.1919
   1737  N6        33.6170  -25.0880    1.4190 N.pl3  86  DA86       -0.1054
   1738  N1        32.2170  -26.4260    0.1580 N.ar   86  DA86       -0.2040
   1739  C2        31.6180  -26.6810   -1.0110 C.ar   86  DA86        0.2016
   1740  N3        31.6880  -26.0060   -2.1560 N.ar   86  DA86       -0.2048
   1741  C4        32.4910  -24.9370   -2.0290 C.ar   86  DA86        0.1691
   1742  P         28.3380  -21.3060   -5.2680 P.3    87  DA87        0.2141
   1743  OP1       27.2250  -21.0720   -6.2270 O.2    87  DA87       -0.5172
   1744  OP2       28.6620  -20.2640   -4.2670 O.3    87  DA87       -0.4373
   1745  O5'       28.0820  -22.6540   -4.4530 O.3    87  DA87       -0.3114
   1746  C5'       27.5740  -23.8350   -5.1020 C.3    87  DA87        0.1811
   1747  C4'       27.2750  -24.9120   -4.0780 C.3    87  DA87        0.1744
   1748  O4'       28.5140  -25.3630   -3.4680 O.3    87  DA87       -0.3349
   1749  C3'       26.4260  -24.4740   -2.8970 C.3    87  DA87        0.1555
   1750  O3'       25.0380  -24.4700   -3.1930 O.3    87  DA87       -0.3139
   1751  C2'       26.7900  -25.4980   -1.8330 C.3    87  DA87        0.0835
   1752  C1'       28.2830  -25.6850   -2.1050 C.3    87  DA87        0.1974
   1753  N9        29.1180  -24.8220   -1.2750 N.pl3  87  DA87       -0.2458
   1754  C8        29.5480  -23.5500   -1.5470 C.2    87  DA87        0.1669
   1755  N7        30.2480  -23.0090   -0.5770 N.2    87  DA87       -0.2209
   1756  C5        30.2800  -23.9940    0.3980 C.2    87  DA87        0.1902
   1757  C6        30.8680  -24.0430    1.6740 C.2    87  DA87        0.4251
   1758  N6        31.5660  -23.0360    2.2050 N.pl3  87  DA87        0.2155
   1759  N1        30.7110  -25.1750    2.3930 N.pl3  87  DA87        0.0229
   1760  C2        30.0120  -26.1830    1.8590 C.2    87  DA87        0.3241
   1761  N3        29.4140  -26.2560    0.6720 N.2    87  DA87       -0.2026
   1762  C4        29.5870  -25.1160   -0.0170 C.3    87  DA87        0.2332
   1763  P         24.0180  -23.4960   -2.3380 P.3    88  DG88        0.2141
   1764  OP1       22.6180  -23.6740   -2.8130 O.2    88  DG88       -0.5172
   1765  OP2       24.5500  -22.1250   -2.1040 O.3    88  DG88       -0.4373
   1766  O5'       24.1750  -24.3450   -1.0030 O.3    88  DG88       -0.3114
   1767  C5'       23.6170  -25.6470   -0.9220 C.3    88  DG88        0.1811
   1768  C4'       23.9310  -26.2650    0.4100 C.3    88  DG88        0.1746
   1769  O4'       25.3660  -26.4290    0.5330 O.3    88  DG88       -0.3327
   1770  C3'       23.5670  -25.4260    1.6170 C.3    88  DG88        0.1558
   1771  O3'       22.1890  -25.5460    1.9360 O.3    88  DG88       -0.3138
   1772  C2'       24.4670  -26.0300    2.6820 C.3    88  DG88        0.0865
   1773  C1'       25.7520  -26.2310    1.8840 C.3    88  DG88        0.2094
   1774  N9        26.6170  -25.0660    1.9600 N.ar   88  DG88       -0.2713
   1775  C8        26.9130  -24.1230    1.0050 C.ar   88  DG88        0.1816
   1776  N7        27.7560  -23.2180    1.4200 N.ar   88  DG88       -0.2173
   1777  C5        28.0370  -23.5820    2.7240 C.ar   88  DG88        0.1748
   1778  C6        28.8860  -22.9810    3.6880 C.ar   88  DG88        0.3023
   1779  O6        29.5840  -21.9660    3.5680 O.2    88  DG88       -0.2633
   1780  N1        28.8800  -23.6770    4.8940 N.ar   88  DG88       -0.1709
   1781  C2        28.1470  -24.8130    5.1400 C.ar   88  DG88        0.2606
   1782  N2        28.2720  -25.3430    6.3640 N.pl3  88  DG88       -0.0859
   1783  N3        27.3530  -25.3830    4.2550 N.ar   88  DG88       -0.1918
   1784  C4        27.3430  -24.7230    3.0770 C.ar   88  DG88        0.1722
   1785  P         21.4480  -24.3370    2.6870 P.3    89  DT89        0.2141
   1786  OP1       19.9730  -24.4850    2.6700 O.3    89  DT89       -0.4373
   1787  OP2       22.0810  -23.0910    2.1950 O.2    89  DT89       -0.5172
   1788  O5'       22.0120  -24.4880    4.1790 O.3    89  DT89       -0.3114
   1789  C5'       21.7410  -25.6270    4.9850 C.3    89  DT89        0.1811
   1790  C4'       22.5860  -25.6250    6.2350 C.3    89  DT89        0.1746
   1791  O4'       23.9820  -25.5360    5.8590 O.3    89  DT89       -0.3327
   1792  C3'       22.3740  -24.4590    7.1970 C.3    89  DT89        0.1558
   1793  O3'       21.3170  -24.6840    8.1110 O.3    89  DT89       -0.3138
   1794  C2'       23.7140  -24.3370    7.9060 C.3    89  DT89        0.0866
   1795  C1'       24.6930  -24.7810    6.8160 C.3    89  DT89        0.2106
   1796  N1        25.2380  -23.7070    6.1830 N.ar   89  DT89       -0.2559
   1797  C2        26.2830  -23.0200    6.7710 C.ar   89  DT89        0.3545
   1798  O2        26.8630  -23.4170    7.7650 O.2    89  DT89       -0.2443
   1799  N3        26.6250  -21.8420    6.1510 N.ar   89  DT89       -0.1533
   1800  C4        26.0410  -21.2960    5.0270 C.ar   89  DT89        0.2804
   1801  O4        26.4600  -20.2280    4.5860 O.2    89  DT89       -0.2654
   1802  C5        24.9630  -22.0680    4.4760 C.ar   89  DT89        0.0534
   1803  C6        24.6100  -23.2170    5.0590 C.ar   89  DT89        0.0824
   1804  C7        24.2620  -21.5570    3.2520 C.3    89  DT89        0.0377
   1805  P         20.1780  -23.5320    8.4360 P.3    90  DG90        0.2141
   1806  OP1       18.8620  -23.9330    8.9800 O.3    90  DG90       -0.4373
   1807  OP2       20.2720  -22.7160    7.2010 O.2    90  DG90       -0.5172
   1808  O5'       20.9620  -22.6550    9.5250 O.3    90  DG90       -0.3114
   1809  C5'       21.0850  -23.1650   10.8440 C.3    90  DG90        0.1811
   1810  C4'       22.3470  -22.7180   11.5400 C.3    90  DG90        0.1746
   1811  O4'       23.4750  -22.7300   10.6230 O.3    90  DG90       -0.3327
   1812  C3'       22.3710  -21.2960   12.0710 C.3    90  DG90        0.1558
   1813  O3'       21.5890  -21.0920   13.2310 O.3    90  DG90       -0.3138
   1814  C2'       23.8600  -21.1120   12.2910 C.3    90  DG90        0.0865
   1815  C1'       24.3810  -21.7060   10.9830 C.3    90  DG90        0.2094
   1816  N9        24.4640  -20.7000   10.0790 N.ar   90  DG90       -0.2713
   1817  C8        23.7920  -20.8950    8.8970 C.ar   90  DG90        0.1816
   1818  N7        24.1680  -20.0780    7.9500 N.ar   90  DG90       -0.2173
   1819  C5        25.1460  -19.2980    8.5380 C.ar   90  DG90        0.1748
   1820  C6        25.9220  -18.2350    8.0070 C.ar   90  DG90        0.3023
   1821  O6        25.8920  -17.7610    6.8650 O.2    90  DG90       -0.2633
   1822  N1        26.8030  -17.7130    8.9500 N.ar   90  DG90       -0.1709
   1823  C2        26.9220  -18.1600   10.2440 C.ar   90  DG90        0.2606
   1824  N2        27.8290  -17.5310   11.0050 N.pl3  90  DG90       -0.0859
   1825  N3        26.2080  -19.1450   10.7510 N.ar   90  DG90       -0.1918
   1826  C4        25.3440  -19.6660    9.8540 C.ar   90  DG90        0.1722
   1827  P         20.9210  -19.7900   13.2930 P.3    91  DC91        0.2141
   1828  OP1       20.1870  -19.6780   14.5810 O.3    91  DC91       -0.4373
   1829  OP2       20.2430  -19.3990   12.0210 O.2    91  DC91       -0.5172
   1830  O5'       22.2500  -18.9300   13.4150 O.3    91  DC91       -0.3114
   1831  C5'       23.1320  -19.1340   14.5060 C.3    91  DC91        0.1811
   1832  C4'       23.9630  -17.9090   14.7100 C.3    91  DC91        0.1746
   1833  O4'       25.0080  -17.8860   13.7060 O.3    91  DC91       -0.3327
   1834  C3'       23.1970  -16.6110   14.5170 C.3    91  DC91        0.1558
   1835  O3'       22.4550  -16.1870   15.6650 O.3    91  DC91       -0.3138
   1836  C2'       24.3040  -15.6500   14.1160 C.3    91  DC91        0.0866
   1837  C1'       25.2230  -16.5550   13.2810 C.3    91  DC91        0.2106
   1838  N1        24.9460  -16.5550   11.8650 N.ar   91  DC91       -0.2556
   1839  C2        25.4840  -15.4920   11.1310 C.ar   91  DC91        0.3531
   1840  O2        26.3490  -14.7760   11.6640 O.2    91  DC91       -0.2443
   1841  N3        25.0480  -15.2750    9.8680 N.ar   91  DC91       -0.1739
   1842  C4        24.1170  -16.0690    9.3380 C.ar   91  DC91        0.1759
   1843  N4        23.7180  -15.8160    8.0890 N.pl3  91  DC91       -0.1070
   1844  C5        23.5590  -17.1520   10.0650 C.ar   91  DC91        0.0566
   1845  C6        23.9930  -17.3630   11.3120 C.ar   91  DC91        0.0849
   1846  P         21.2060  -15.0850   15.5550 P.3    92  DA92        0.2141
   1847  OP1       20.6900  -15.1930   16.9420 O.3    92  DA92       -0.4373
   1848  OP2       20.3940  -15.4290   14.3670 O.2    92  DA92       -0.5172
   1849  O5'       21.7190  -13.5880   15.3740 O.3    92  DA92       -0.3114
   1850  C5'       22.7510  -13.1040   16.2030 C.3    92  DA92        0.1811
   1851  C4'       23.2710  -11.8100   15.6360 C.3    92  DA92        0.1746
   1852  O4'       24.0760  -12.0740   14.4560 O.3    92  DA92       -0.3327
   1853  C3'       22.1860  -10.8600   15.1530 C.3    92  DA92        0.1558
   1854  O3'       21.5820  -10.1820   16.2370 O.3    92  DA92       -0.3138
   1855  C2'       23.0230   -9.9830   14.2500 C.3    92  DA92        0.0865
   1856  C1'       23.8390  -11.0430   13.5140 C.3    92  DA92        0.2094
   1857  N9        23.1800  -11.5770   12.2940 N.ar   92  DA92       -0.2714
   1858  C8        22.3920  -12.6950   12.2150 C.ar   92  DA92        0.1815
   1859  N7        21.9630  -12.9550   11.0020 N.ar   92  DA92       -0.2193
   1860  C5        22.5050  -11.9370   10.2330 C.ar   92  DA92        0.1518
   1861  C6        22.4250  -11.6430    8.8610 C.ar   92  DA92        0.1919
   1862  N6        21.7380  -12.3810    7.9860 N.pl3  92  DA92       -0.1054
   1863  N1        23.0840  -10.5520    8.4150 N.ar   92  DA92       -0.2040
   1864  C2        23.7730   -9.8140    9.2920 C.ar   92  DA92        0.2016
   1865  N3        23.9230   -9.9890   10.6030 N.ar   92  DA92       -0.2048
   1866  C4        23.2560  -11.0800   11.0150 C.ar   92  DA92        0.1691
   1867  P         20.0230   -9.5960   16.1910 P.3    93  DA93        0.2141
   1868  OP1       19.5400   -8.6570   17.2300 O.3    93  DA93       -0.4373
   1869  OP2       19.2380  -10.7870   15.7950 O.2    93  DA93       -0.5172
   1870  O5'       20.2360   -8.7920   14.8300 O.3    93  DA93       -0.3114
   1871  C5'       20.7790   -7.4920   14.9920 C.3    93  DA93        0.1811
   1872  C4'       21.1200   -6.8930   13.6580 C.3    93  DA93        0.1746
   1873  O4'       21.9750   -7.8100   12.9290 O.3    93  DA93       -0.3327
   1874  C3'       19.9500   -6.6850   12.7150 C.3    93  DA93        0.1558
   1875  O3'       19.1720   -5.5430   13.0150 O.3    93  DA93       -0.3138
   1876  C2'       20.6560   -6.6190   11.3690 C.3    93  DA93        0.0865
   1877  C1'       21.6790   -7.7350   11.5530 C.3    93  DA93        0.2094
   1878  N9        21.0780   -8.8970   11.1030 N.ar   93  DA93       -0.2714
   1879  C8        20.6780   -9.9320   11.9070 C.ar   93  DA93        0.1815
   1880  N7        20.2030  -10.9620   11.2480 N.ar   93  DA93       -0.2193
   1881  C5        20.2950  -10.5760    9.9200 C.ar   93  DA93        0.1518
   1882  C6        19.9530  -11.2260    8.7200 C.ar   93  DA93        0.1919
   1883  N6        19.4280  -12.4520    8.6670 N.pl3  93  DA93       -0.1054
   1884  N1        20.1720  -10.5630    7.5650 N.ar   93  DA93       -0.2040
   1885  C2        20.7000   -9.3340    7.6190 C.ar   93  DA93        0.2016
   1886  N3        21.0630   -8.6220    8.6830 N.ar   93  DA93       -0.2048
   1887  C4        20.8310   -9.3070    9.8150 C.ar   93  DA93        0.1691
   1888  P         17.6870   -5.7410   12.9630 P.3    94  DT94        0.2141
   1889  OP1       17.1620   -4.5980   13.7530 O.3    94  DT94       -0.4373
   1890  OP2       17.3160   -7.1310   13.3430 O.2    94  DT94       -0.5172
   1891  O5'       17.3080   -5.5140   11.4350 O.3    94  DT94       -0.3114
   1892  C5'       17.6060   -4.2790   10.7990 C.3    94  DT94        0.1811
   1893  C4'       17.2160   -4.3310    9.3460 C.3    94  DT94        0.1746
   1894  O4'       18.0990   -5.2320    8.6270 O.3    94  DT94       -0.3327
   1895  C3'       15.8380   -4.8950    9.0640 C.3    94  DT94        0.1558
   1896  O3'       14.8230   -3.9300    9.2840 O.3    94  DT94       -0.3138
   1897  C2'       15.9610   -5.2850    7.6000 C.3    94  DT94        0.0866
   1898  C1'       17.3790   -5.8560    7.5740 C.3    94  DT94        0.2106
   1899  N1        17.3720   -7.3070    7.7960 N.ar   94  DT94       -0.2559
   1900  C2        17.2420   -8.1230    6.6890 C.ar   94  DT94        0.3545
   1901  O2        17.1950   -7.6940    5.5490 O.2    94  DT94       -0.2443
   1902  N3        17.1690   -9.4680    6.9630 N.ar   94  DT94       -0.1533
   1903  C4        17.2110  -10.0640    8.2060 C.ar   94  DT94        0.2804
   1904  O4        17.1340  -11.2870    8.2930 O.2    94  DT94       -0.2654
   1905  C5        17.3460   -9.1500    9.3050 C.ar   94  DT94        0.0534
   1906  C6        17.4190   -7.8380    9.0670 C.ar   94  DT94        0.0824
   1907  C7        17.4010   -9.7020   10.6990 C.3    94  DT94        0.0377
   1908  P         13.3150   -4.4110    9.2680 P.3    95  DC95        0.2141
   1909  OP1       12.2260   -3.5040    9.7000 O.2    95  DC95       -0.5172
   1910  OP2       13.8610   -5.4240   10.2000 O.3    95  DC95       -0.4373
   1911  O5'       12.9240   -5.2540    7.9600 O.3    95  DC95       -0.3114
   1912  C5'       12.5900   -4.5840    6.7510 C.3    95  DC95        0.1811
   1913  C4'       12.4810   -5.5110    5.5620 C.3    95  DC95        0.1767
   1914  O4'       13.6860   -6.2990    5.4070 O.3    95  DC95       -0.3327
   1915  C3'       11.3780   -6.5500    5.6060 C.3    95  DC95        0.2180
   1916  O3'       10.1300   -5.9920    5.2560 O.3    95  DC95       -0.1546
   1917  C2'       11.8640   -7.6030    4.6160 C.3    95  DC95        0.0586
   1918  C1'       13.3730   -7.5410    4.8130 C.3    95  DC95        0.2082
   1919  N1        13.7940   -8.5090    5.5820 N.ar   95  DC95       -0.2557
   1920  C2        13.8830   -9.7970    5.0430 C.ar   95  DC95        0.3531
   1921  O2        13.8560   -9.9310    3.8070 O.2    95  DC95       -0.2443
   1922  N3        13.9940  -10.8560    5.8790 N.ar   95  DC95       -0.1739
   1923  C4        14.0170  -10.6640    7.1990 C.ar   95  DC95        0.1759
   1924  N4        14.1270  -11.7380    7.9840 N.pl3  95  DC95       -0.1070
   1925  C5        13.9280   -9.3670    7.7650 C.ar   95  DC95        0.0566
   1926  C6        13.8190   -8.3240    6.9360 C.ar   95  DC95        0.0849
   1927  P          9.5610   -5.6360    4.8480 P.3    96  DT96        0.4146
   1928  OP1        8.2280   -5.1960    5.3400 O.2    96  DT96       -0.2668
   1929  OP2       10.5770   -6.1330    5.8170 O.3    96  DT96       -0.2112
   1930  O5'        9.3710   -6.7570    3.7300 O.3    96  DT96       -0.2176
   1931  C5'        8.6200   -7.9270    4.0150 C.3    96  DT96        0.2140
   1932  C4'        8.2060   -8.6250    2.7420 C.3    96  DT96        0.1777
   1933  O4'        9.3220   -9.4040    2.2250 O.3    96  DT96       -0.3509
   1934  C3'        7.1120   -9.6510    2.9860 C.3    96  DT96        0.1786
   1935  O3'        5.8290   -9.0440    2.9740 O.3    96  DT96       -0.2350
   1936  C2'        7.3430  -10.6700    1.8790 C.3    96  DT96        0.0670
   1937  C1'        8.8700  -10.6850    1.8070 C.3    96  DT96        0.1450
   1938  N1        10.0190  -11.2040    3.9030 N.2    96  DT96       -0.1608
   1939  C2        10.2830  -12.5610    3.8940 C.1    96  DT96        0.2395
   1940  O2        10.0740  -13.2710    2.9270 O.2    96  DT96       -0.2041
   1941  N3        10.8030  -13.0590    5.0640 N.am   96  DT96       -0.0881
   1942  C4        11.0790  -12.3540    6.2170 C.2    96  DT96        0.2768
   1943  O4        11.5460  -12.9420    7.1890 O.2    96  DT96       -0.2676
   1944  C5        10.7760  -10.9520    6.1480 C.2    96  DT96        0.0540
   1945  C6        10.2700  -10.4410    5.0220 C.2    96  DT96        0.1126
   1946  C7        11.0400  -10.0980    7.3530 C.3    96  DT96        0.0394
@<TRIPOS>BOND
     1   466   465    2
     2   807   806    2
     3   567   566    2
     4   791   792    1
     5   791   790    1
     6   792   793    1
     7   792   794    1
     8   444   443    2
     9   795   806    1
    10   795   794    1
    11   447   448    1
    12   447   446    1
    13   788   787    2
    14   451   465    1
    15   451   450    1
    16   809   806    1
    17   809   810    1
    18   448   450    1
    19   448   449    1
    20   586   585    2
    21   793   797    1
    22   806   808    1
    23   465   468    1
    24   465   467    1
    25   469   468    1
    26   469   470    1
    27   794   796    1
    28   553   566    1
    29   553   552    1
    30   810   811    1
    31   566   569    1
    32   566   568    1
    33   790   787    1
    34   773   787    1
    35   773   772    1
    36   787   789    1
    37   443   446    1
    38   443   432    1
    39   443   445    1
    40   450   452    1
    41   569   570    1
    42   796   797    1
    43   570   571    1
    44   797   798    1
    45   449   453    1
    46   485   484    2
    47   774   772    1
    48   774   775    1
    49   432   431    1
    50   470   471    1
    51   470   472    1
    52   811   812    1
    53   811   813    1
    54   571   573    1
    55   571   572    1
    56   585   574    1
    57   585   588    1
    58   585   587    1
    59   574   573    1
    60   452   453    1
    61   550   552    1
    62   550   549    1
    63   550   551    1
    64   772   770    1
    65   770   771    1
    66   770   769    1
    67   552   554    1
    68   222   221    2
    69   554   555    1
    70   827   826    2
    71   775   771    1
    72   775   776    1
    73   473   484    1
    74   473   472    1
    75   812   816    1
    76   433   431    1
    77   433   434    1
    78   784   783    1
    79   471   475    1
    80   453   454    1
    81   549   548    1
    82   814   813    1
    83   814   826    1
    84   486   484    1
    85   588   589    1
    86   484   487    1
    87   573   575    1
    88   572   576    1
    89   431   429    1
    90   785   783   ar
    91   785   786   ar
    92   472   474    1
    93   551   555    1
    94   813   815    1
    95   798   805   ar
    96   798   799   ar
    97   769   768    1
    98   546   545    2
    99   225   226    1
   100   225   224    1
   101   429   430    1
   102   429   428    1
   103   555   556    1
   104   826   828    1
   105   826   829    1
   106   783   782   ar
   107   589   590    1
   108   242   241    2
   109   805   804   ar
   110   434   430    1
   111   434   435    1
   112   800   799    2
   113   437   436    2
   114   575   576    1
   115   776   786   ar
   116   776   777   ar
   117   816   815    1
   118   816   817    1
   119   208   221    1
   120   208   207    1
   121   221   224    1
   122   221   223    1
   123   548   545    1
   124   474   475    1
   125   226   228    1
   126   226   227    1
   127   475   476    1
   128   786   779   ar
   129   229   241    1
   130   229   228    1
   131   576   577    1
   132   454   455   ar
   133   454   464   ar
   134   799   801   ar
   135   428   427    1
   136   830   829    1
   137   830   831    1
   138  1030  1029    2
   139   487   488    1
   140   545   533    1
   141   545   547    1
   142   605   604    2
   143   455   456   ar
   144   244   241    1
   145   244   245    1
   146   768   765    1
   147   241   243    1
   148   824   817   ar
   149   824   823   ar
   150   590   591    1
   151   590   592    1
   152   245   246    1
   153   483   476   ar
   154   483   482   ar
   155   228   230    1
   156   488   489    1
   157   205   204    1
   158   205   207    1
   159   205   206    1
   160   782   780   ar
   161   584   577   ar
   162   584   583   ar
   163   435   436   ar
   164   435   442   ar
   165   817   818   ar
   166   436   438   ar
   167   556   565   ar
   168   556   557   ar
   169   804   802   ar
   170   227   231    1
   171  1016  1029    1
   172  1016  1015    1
   173   204   203    1
   174   564   565   ar
   175   564   563   ar
   176   207   209    1
   177   762   763   ar
   178   762   761   ar
   179   777   778   ar
   180   577   578   ar
   181   591   595    1
   182   476   477   ar
   183   606   604    1
   184   464   463   ar
   185   464   457   ar
   186   763   764   ar
   187   463   461   ar
   188   604   593    1
   189   604   607    1
   190   779   780   ar
   191   779   778   ar
   192   766   765    2
   193   831   832    1
   194   831   833    1
   195   825   823    1
   196  1013  1012    1
   197  1013  1015    1
   198  1013  1014    1
   199  1029  1032    1
   200  1029  1031    1
   201   801   802   ar
   202  1012  1011    1
   203   209   210    1
   204   533   532    1
   205   427   424    1
   206   565   559   ar
   207   753   754    1
   208   753   751    1
   209   507   505    2
   210   823   821   ar
   211   482   480   ar
   212  1033  1032    1
   213  1033  1034    1
   214   765   752    1
   215   765   767    1
   216   230   231    1
   217   832   836    1
   218   206   210    1
   219   456   457   ar
   220   802   803    1
   221   557   558   ar
   222   780   781    2
   223   583   581   ar
   224   262   261    2
   225   593   592    1
   226   201   200    2
   227   563   562   ar
   228   592   594    1
   229   761   759   ar
   230  1015  1017    1
   231   442   441   ar
   232   603   602   ar
   233   603   596   ar
   234   231   232    1
   235   438   439   ar
   236   818   819    2
   237   818   820   ar
   238   246   247    1
   239   246   248    1
   240   417   416    2
   241   425   424    2
   242   752   751    1
   243  1014  1018    1
   244  1009  1008    1
   245   210   211    1
   246   203   200    1
   247   489   490    1
   248   489   491    1
   249   457   458   ar
   250   413   414    1
   251   413   411    1
   252   602   600   ar
   253   754   755    1
   254   754   750    1
   255   578   579    2
   256   578   580   ar
   257  1017  1018    1
   258   996  1011    1
   259   996   995    1
   260   506   505    1
   261   477   478    2
   262   477   479   ar
   263   505   492    1
   264   505   508    1
   265   461   462    1
   266   461   460   ar
   267   764   755   ar
   268   764   758   ar
   269   595   594    1
   270   595   596    1
   271   751   749    1
   272   188   200    1
   273   188   187    1
   274   424   412    1
   275   424   426    1
   276  1034  1035    1
   277  1034  1036    1
   278   263   261    1
   279   249   261    1
   280   249   248    1
   281   834   833    1
   282   834   846    1
   283   524   522    1
   284   833   835    1
   285   490   494    1
   286   412   411    1
   287   532   534    1
   288   532   530    1
   289   200   202    1
   290   189   187    1
   291   189   190    1
   292   607   608    1
   293   496   497   ar
   294   496   495   ar
   295   261   264    1
   296  1018  1019    1
   297   559   558   ar
   298   559   560   ar
   299   247   251    1
   300   414   410    1
   301   414   415    1
   302   821   820   ar
   303   821   822    2
   304   526   525    2
   305  1049  1048    2
   306   497   498   ar
   307   480   479   ar
   308   480   481    1
   309   596   597   ar
   310   997   995    1
   311   997   998    1
   312   248   250    1
   313  1037  1036    1
   314  1037  1048    1
   315   755   756   ar
   316   749   750    1
   317   749   748    1
   318  1001  1000    2
   319   491   492    1
   320   491   493    1
   321   845   843    1
   322   836   835    1
   323   836   837    1
   324   534   535    1
   325   581   580   ar
   326   581   582    1
   327   439   441   ar
   328   439   440    1
   329   844   843   ar
   330   844   837   ar
   331   562   560   ar
   332   232   239   ar
   333   232   233   ar
   334   759   758   ar
   335   759   760    1
   336   411   409    1
   337   239   238   ar
   338   416   415   ar
   339   416   418   ar
   340  1008  1010    2
   341   608   609    1
   342   187   185    1
   343   995   993    1
   344  1035  1039    1
   345   185   186    1
   346   185   184    1
   347   190   186    1
   348   190   191    1
   349   758   757   ar
   350   458   460   ar
   351   458   459    2
   352   409   410    1
   353   409   408    1
   354  1036  1038    1
   355   211   220   ar
   356   211   212   ar
   357   193   192    2
   358   846   848    2
   359   846   847    1
   360   846   849    1
   361   600   601    1
   362   600   599   ar
   363   560   561    1
   364   843   841   ar
   365  1048  1050    1
   366  1048  1051    1
   367   837   838   ar
   368   415   422   ar
   369   530   529    1
   370   530   531    1
   371   521   520    2
   372   495   494    1
   373   495   504   ar
   374   508   509    1
   375   623   621    1
   376   494   493    1
   377   993   994    1
   378   993   992    1
   379   998   994    1
   380   998   999    1
   381   219   220   ar
   382   219   218   ar
   383   522   520   ar
   384   522   523   ar
   385   529   528    1
   386   401   400   ar
   387   401   402   ar
   388   525   527    1
   389   525   528    1
   390   525   513    1
   391   418   419   ar
   392   251   250    1
   393   251   252    1
   394   626   624    2
   395  1000   999   ar
   396  1000  1002   ar
   397  1019  1020   ar
   398  1019  1028   ar
   399   264   265    1
   400   748   747    1
   401   597   599   ar
   402   597   598    2
   403   498   504   ar
   404   498   499   ar
   405   260   258    1
   406   756   757   ar
   407   240   238    1
   408   238   236   ar
   409   233   234    2
   410   233   235   ar
   411   400   398   ar
   412   220   214   ar
   413   212   213   ar
   414   259   258   ar
   415   259   252   ar
   416   184   183    1
   417   520   519   ar
   418   849   850    1
   419   535   531    1
   420   535   536    1
   421   192   191   ar
   422   192   194   ar
   423  1038  1039    1
   424   999  1006   ar
   425   850   851    1
   426   500   499    1
   427   191   198   ar
   428  1039  1040    1
   429   265   266    1
   430   738   737    1
   431   523   516   ar
   432   402   403   ar
   433   609   610    1
   434   609   611    1
   435   408   407    1
   436  1020  1021   ar
   437   504   503   ar
   438   992   991    1
   439   509   510    1
   440   838   840   ar
   441   838   839    2
   442   841   840   ar
   443   841   842    2
   444  1027  1028   ar
   445  1027  1026   ar
   446   218   217   ar
   447   258   256   ar
   448   643   641    1
   449   252   253   ar
   450   422   421   ar
   451   499   501   ar
   452   538   537    2
   453   625   624    1
   454  1002  1003   ar
   455  1028  1022   ar
   456   621   622   ar
   457   621   619   ar
   458  1051  1052    1
   459   747   744    1
   460   622   615   ar
   461   610   614    1
   462   536   537   ar
   463   536   543   ar
   464   624   612    1
   465   624   627    1
   466  1047  1040   ar
   467  1047  1046   ar
   468   612   611    1
   469   611   613    1
   470   537   539   ar
   471  1052  1053    1
   472   419   421   ar
   473   419   420    2
   474   235   236   ar
   475   236   237    2
   476   398   399    1
   477   398   397   ar
   478   213   214   ar
   479   214   215   ar
   480   513   512    1
   481  1040  1041   ar
   482   512   510    1
   483   512   514    1
   484   543   542   ar
   485   739   737    1
   486   739   740    2
   487   737   736    1
   488   737   719    1
   489   183   180    1
   490   194   195   ar
   491   519   517   ar
   492   407   404    1
   493   660   659    1
   494   198   197   ar
   495   421   423    1
   496  1006  1005   ar
   497   981   980    2
   498   851   852    1
   499   851   853    1
   500   403   397   ar
   501   403   394   ar
   502   539   540   ar
   503   510   511    1
   504   516   517   ar
   505   516   515    1
   506  1026  1025   ar
   507   503   502   ar
   508  1021  1022   ar
   509   734   735    1
   510   734   732    1
   511   542   540   ar
   512   542   544    1
   513   991   988    1
   514   852   856    1
   515  1046  1044   ar
   516   266   267    1
   517   266   268    1
   518   217   215   ar
   519   392   393    1
   520   392   390    1
   521  1022  1023   ar
   522   640   639    2
   523   619   620    2
   524   619   618   ar
   525   501   502   ar
   526   615   614    1
   527   615   616   ar
   528   253   255   ar
   529   253   254    2
   530   540   541    2
   531   256   255   ar
   532   256   257    2
   533   614   613    1
   534   397   396   ar
   535  1003  1005   ar
   536  1003  1004    2
   537   181   180    2
   538   641   639   ar
   539   641   642   ar
   540   379   380   ar
   541   379   377   ar
   542   702   703   ar
   543   702   700   ar
   544   627   628    1
   545   215   216    1
   546   517   518    2
   547   173   172    2
   548   735   736    1
   549   735   731    1
   550   741   740    1
   551   267   271    1
   552   511   515    1
   553   740   742    1
   554   858   859   ar
   555   858   857   ar
   556   278   279   ar
   557   278   276   ar
   558   744   745    2
   559   744   733    1
   560   744   746    1
   561   279   272   ar
   562   514   515    1
   563   701   700    1
   564   736   743    1
   565  1005  1007    1
   566  1053  1054    1
   567  1053  1055    1
   568   380   381   ar
   569   977   978    1
   570   977   975    1
   571  1041  1042    2
   572  1041  1043   ar
   573   393   394    1
   574   393   389    1
   575   180   168    1
   576   180   182    1
   577   195   197   ar
   578   195   196    2
   579   197   199    1
   580   719   718    1
   581   268   269    1
   582   268   270    1
   583   378   377    1
   584   659   661   ar
   585   659   658   ar
   586   639   638   ar
   587   394   395   ar
   588   859   860   ar
   589   989   988    2
   590   703   704   ar
   591   980   982   ar
   592   980   979   ar
   593   681   680    2
   594   853   854    1
   595   853   855    1
   596   269   280    1
   597   391   404    1
   598   391   390    1
   599   282   280    2
   600   169   170    1
   601   169   167    1
   602   405   404    2
   603   404   406    1
   604   700   699   ar
   605  1054  1058    1
   606   642   635   ar
   607  1025  1023   ar
   608   661   662   ar
   609   733   732    1
   610   854   867    1
   611   988   976    1
   612   988   990    1
   613   377   376   ar
   614   168   167    1
   615   281   280    1
   616   390   388    1
   617   732   730    1
   618  1023  1024    1
   619  1071  1070    2
   620   978   979    1
   621   978   974    1
   622   618   616   ar
   623   869   867    2
   624   856   857    1
   625   856   855    1
   626  1044  1043   ar
   627  1044  1045    1
   628   857   866   ar
   629  1743  1742    2
   630   628   629    1
   631   616   617    2
   632   720   718    2
   633   720   721    1
   634   982   983   ar
   635   976   975    1
   636   280   283    1
   637   172   174   ar
   638   172   171   ar
   639   396   395   ar
   640   742   743    2
   641  1055  1056    1
   642  1055  1057    1
   643  1060  1061   ar
   644  1060  1059   ar
   645   965   964   ar
   646   965   966   ar
   647   718   717    1
   648   272   271    1
   649   272   273   ar
   650   657   658   ar
   651   657   656   ar
   652   731   730    1
   653   276   277    1
   654   276   275   ar
   655   658   664   ar
   656  1056  1070    1
   657   271   270    1
   658  1725  1726    1
   659  1725  1724    1
   660  1729  1742    1
   661  1729  1728    1
   662   979   986   ar
   663   170   171    1
   664   170   166    1
   665   964   962   ar
   666   381   382   ar
   667  1726  1728    1
   668  1726  1727    1
   669   975   973    1
   670   167   165    1
   671   867   868    1
   672   867   870    1
   673   680   679   ar
   674   680   682   ar
   675   389   388    1
   676   860   866   ar
   677   860   861   ar
   678   730   729    1
   679   174   175   ar
   680   722   721    1
   681  1061  1062   ar
   682   704   705   ar
   683   886   884    1
   684   638   636   ar
   685   388   387    1
   686   679   677   ar
   687  1742  1745    1
   688  1742  1744    1
   689  1070  1072    1
   690  1070  1073    1
   691   974   973    1
   692   662   663   ar
   693   171   178   ar
   694   866   865   ar
   695   721   723    2
   696   699   705   ar
   697   699   698   ar
   698  1058  1059    1
   699  1058  1057    1
   700  1746  1745    1
   701  1746  1747    1
   702   376   382   ar
   703   376   375   ar
   704   973   972    1
   705   635   636   ar
   706   635   634    1
   707   630   629    1
   708   630   634    1
   709   966   967   ar
   710  1059  1069   ar
   711   646   644    2
   712  1728  1730    1
   713  1727  1731    1
   714   629   631    1
   715   862   861    1
   716   382   373   ar
   717   165   166    1
   718   165   164    1
   719   983   984    2
   720   983   985   ar
   721  1723  1721    2
   722   656   655   ar
   723   705   696   ar
   724   275   273   ar
   725   684   682    1
   726   273   274    2
   727   861   863   ar
   728   664   663   ar
   729   664   655   ar
   730  1724  1721    1
   731   717   716    1
   732   717   724    1
   733   962   963    1
   734   962   961   ar
   735   636   637    2
   736   682   683   ar
   737  1730  1731    1
   738   283   284    1
   739   986   985   ar
   740   715   716    1
   741   715   713    1
   742   870   871    1
   743  1731  1732    1
   744   175   176    2
   745   175   177   ar
   746   634   633    1
   747   631   632    1
   748   631   633    1
   749   716   712    1
   750  1062  1069   ar
   751  1062  1063   ar
   752  1722  1721    1
   753   865   864   ar
   754   677   678    2
   755   677   676   ar
   756   698   697   ar
   757  1747  1748    1
   758  1747  1749    1
   759  1721  1709    1
   760   729   728    1
   761   884   882   ar
   762   884   885   ar
   763   178   177   ar
   764   375   374   ar
   765   154   153    2
   766   985   987    1
   767   655   654    1
   768   883   882    2
   769  1089  1087    1
   770   387   386    1
   771   358   357    2
   772   723   724    1
   773  1069  1068   ar
   774  1073  1074    1
   775   967   961   ar
   776   967   958   ar
   777   728   714    1
   778   386   383    1
   779   943   944   ar
   780   943   941   ar
   781   284   285    1
   782   293   292   ar
   783   293   294   ar
   784   972   971    1
   785   644   632    1
   786   644   647    1
   787   644   645    1
   788   863   864   ar
   789   373   374   ar
   790   373   372    1
   791   177   179    1
   792   871   872    1
   793   961   960   ar
   794  1748  1752    1
   795   164   163    1
   796   317   316    1
   797   882   881   ar
   798   942   941    1
   799   338   337    2
   800   696   697   ar
   801   696   695    1
   802   885   878   ar
   803   683   676   ar
   804   155   153   ar
   805   155   156   ar
   806  1064  1063    2
   807   292   291   ar
   808   296   295    1
   809  1750  1749    1
   810  1750  1763    1
   811  1063  1065   ar
   812   944   945   ar
   813   138   137    1
   814   676   675    1
   815   153   152   ar
   816   371   372    1
   817   371   369    1
   818   647   648    1
   819  1709  1708    1
   820  1732  1733   ar
   821  1732  1741   ar
   822  1074  1075    1
   823   713   711    1
   824  1639  1638    2
   825   303   301    2
   826  1749  1751    1
   827   136   137   ar
   828   136   134   ar
   829   941   940   ar
   830   712   711    1
   831   372   368    1
   832   357   356   ar
   833   357   359   ar
   834  1764  1763    2
   835   971   968    1
   836   135   134    2
   837   956   957    1
   838   956   954    1
   839   714   725    1
   840   356   354   ar
   841   163   160    1
   842   157   156    1
   843   903   902    2
   844  1068  1066   ar
   845   958   957    1
   846   958   959   ar
   847  1087  1088   ar
   848  1087  1085   ar
   849   385   383    1
   850   654   650    1
   851   654   653    1
   852   294   295   ar
   853   294   300   ar
   854   906   904    1
   855   695   694    1
   856   695   691    1
   857  1733  1734   ar
   858   957   953    1
   859   156   158   ar
   860   383   384    1
   861  1763  1765    1
   862  1763  1766    1
   863  1091  1090    2
   864   137   139   ar
   865   923   922    1
   866   725   727    2
   867   725   726    2
   868   873   872    1
   869   873   877    1
   870   295   297   ar
   871    20    19    2
   872   650   649    1
   873   285   286    1
   874   285   287    1
   875  1708  1710    1
   876  1708  1706    1
   877   134   133   ar
   878   337   336   ar
   879   337   339   ar
   880   711   710    1
   881  1710  1711    1
   882  1740  1741   ar
   883  1740  1739   ar
   884   881   879   ar
   885   314   315   ar
   886   314   313   ar
   887   316   315   ar
   888   316   318   ar
   889   960   959   ar
   890   872   874    1
   891  1086  1085    2
   892  1752  1751    1
   893  1752  1753    1
   894   878   879   ar
   895   878   877    1
   896  1088  1081   ar
   897  1741  1735   ar
   898   286   290    1
   899  1714  1713    2
   900   150   151    1
   901   150   148    1
   902  1065  1066   ar
   903  1715  1713   ar
   904  1715  1716   ar
   905   945   946   ar
   906   291   300   ar
   907   291   290    1
   908  1659  1658    2
   909  1717  1716    2
   910   675   671    1
   911   675   674    1
   912  1625  1638    1
   913  1625  1624    1
   914   694   692    1
   915   369   370    1
   916   369   367    1
   917  1085  1084   ar
   918  1638  1641    1
   919  1638  1640    1
   920   361   359    1
   921   152   151    1
   922   152   159   ar
   923  1713  1712   ar
   924  1066  1067    1
   925   648   649    1
   926   359   360   ar
   927   287   288    1
   928   287   289    1
   929   336   334   ar
   930   301   302    1
   931   301   288    1
   932   301   304    1
   933  1110  1109    2
   934  1716  1718   ar
   935   341   339    1
   936   653   651    1
   937   354   355    2
   938   354   353   ar
   939   315   321   ar
   940  1075  1076    1
   941  1075  1077    1
   942   902   904   ar
   943   902   901   ar
   944  1754  1753    1
   945  1754  1755    2
   946  1642  1641    1
   947  1642  1643    1
   948   940   946   ar
   949   940   939   ar
   950   954   955    1
   951   954   952    1
   952   151   147    1
   953   691   690    1
   954   889   887    2
   955   879   880    2
   956   368   367    1
   957   667   665    2
   958   955   968    1
   959   370   384    1
   960   300   299   ar
   961   874   875    1
   962   874   876    1
   963   651   649    1
   964   651   652    1
   965   904   905   ar
   966  1712  1719   ar
   967  1712  1711    1
   968  1076  1080    1
   969   877   876    1
   970  1753  1762    1
   971   318   319   ar
   972   968   969    2
   973   968   970    1
   974    40    39    2
   975  1718  1719   ar
   976  1718  1720    1
   977   339   340   ar
   978  1621  1622    1
   979  1621  1620    1
   980  1734  1735   ar
   981  1077  1078    1
   982  1077  1079    1
   983   290   289    1
   984   313   312   ar
   985   946   937   ar
   986   160   161    2
   987   160   149    1
   988   160   162    1
   989   671   670    1
   990   674   672    1
   991   139   140   ar
   992     6    19    1
   993     6     5    1
   994  1111  1109    1
   995  1739  1738   ar
   996  1766  1767    1
   997   158   159   ar
   998  1622  1624    1
   999  1622  1623    1
  1000   953   952    1
  1001   297   298   ar
  1002   922   921   ar
  1003   922   924   ar
  1004    19    22    1
  1005    19    21    1
  1006  1711  1707    1
  1007  1767  1768    1
  1008  1090  1078    1
  1009  1090  1093    1
  1010  1090  1092    1
  1011  1735  1736   ar
  1012  1081  1080    1
  1013  1081  1082   ar
  1014   133   140   ar
  1015   133   132   ar
  1016  1273  1272    2
  1017  1109  1098    1
  1018  1109  1112    1
  1019  1618  1617    2
  1020     2     3    1
  1021     2     1    1
  1022   367   366    1
  1023  1706  1705    1
  1024  1706  1707    1
  1025   710   709    1
  1026  1646  1658    1
  1027  1646  1645    1
  1028   149   148    1
  1029   875   887    1
  1030   148   146    1
  1031  1094  1093    1
  1032  1094  1095    1
  1033  1624  1626    1
  1034  1643  1645    1
  1035  1643  1644    1
  1036   360   353   ar
  1037   709   706    1
  1038    23    22    1
  1039    23    24    1
  1040  1755  1756    1
  1041  1084  1082   ar
  1042  1704  1705    1
  1043  1704  1701    1
  1044   353   352    1
  1045   921   919   ar
  1046   304   305    1
  1047  1658  1660    1
  1048  1658  1661    1
  1049  1098  1097    1
  1050    39    41    1
  1051    39    27    1
  1052    39    42    1
  1053   952   951    1
  1054  1703  1701    2
  1055   692   690    1
  1056   692   693    1
  1057    61    60    2
  1058   901   899   ar
  1059   939   938   ar
  1060  1680  1679    2
  1061   334   335    2
  1062   334   333   ar
  1063   140   130   ar
  1064     3     5    1
  1065     3     4    1
  1066   114   113    1
  1067  1080  1079    1
  1068   887   888    1
  1069   887   890    1
  1070  1097  1095    1
  1071  1097  1099    1
  1072   321   312   ar
  1073   321   320   ar
  1074   690   689    1
  1075   672   670    1
  1076   672   673    1
  1077   299   298   ar
  1078   652   665    1
  1079  1095  1096    1
  1080  1626  1627    1
  1081   665   668    1
  1082   665   666    1
  1083  1681  1679    1
  1084  1603  1617    1
  1085  1603  1602    1
  1086   924   925   ar
  1087   905   898   ar
  1088   147   146    1
  1089  1082  1083    2
  1090  1620  1617    1
  1091  1762  1756    1
  1092  1762  1761    1
  1093   365   366    1
  1094   365   362    1
  1095   319   320   ar
  1096  1702  1701    1
  1097    27    26    1
  1098     5     7    1
  1099   340   333   ar
  1100  1645  1647    1
  1101    62    60    1
  1102  1701  1687    1
  1103   312   311    1
  1104   364   362    2
  1105  1623  1627    1
  1106  1738  1736   ar
  1107  1617  1619    1
  1108   132   131   ar
  1109   670   669    1
  1110   688   689    1
  1111   688   685    1
  1112  1736  1737    1
  1113   937   938   ar
  1114   937   936    1
  1115   668   669    1
  1116  1756  1757    2
  1117   146   145    1
  1118  1768  1769    1
  1119  1768  1770    1
  1120  1661  1662    1
  1121  1276  1275    1
  1122  1276  1277    1
  1123   687   685    2
  1124  1644  1648    1
  1125  1679  1682    1
  1126  1679  1666    1
  1127   333   332    1
  1128  1292  1291    2
  1129  1769  1773    1
  1130    24    26    1
  1131    24    25    1
  1132    60    63    1
  1133    60    47    1
  1134   708   706    2
  1135   693   706    1
  1136  1259  1272    1
  1137  1259  1258    1
  1138  1272  1275    1
  1139  1272  1274    1
  1140   706   707    1
  1141  1761  1760    2
  1142  1112  1113    1
  1143  1627  1628    1
  1144  1604  1602    1
  1145  1604  1605    1
  1146   113   115   ar
  1147   113   112   ar
  1148  1600  1602    1
  1149  1600  1599    1
  1150  1600  1601    1
  1151  1695  1694    2
  1152   890   891    1
  1153   351   352    1
  1154   351   349    1
  1155   919   920    2
  1156   919   918   ar
  1157   115   116   ar
  1158     4     8    1
  1159   352   348    1
  1160   305   306    1
  1161   899   898   ar
  1162   899   900    2
  1163   324   322    2
  1164    26    28    1
  1165  1113  1114    1
  1166  1687  1686    1
  1167   951   950    1
  1168   130   131   ar
  1169   130   129    1
  1170   344   342    2
  1171  1775  1776   ar
  1172  1775  1774   ar
  1173   898   897    1
  1174   362   350    1
  1175   362   363    1
  1176    42    43    1
  1177   673   685    1
  1178   685   686    1
  1179  1280  1291    1
  1180  1280  1279    1
  1181   936   935    1
  1182   936   932    1
  1183  1099  1100    1
  1184  1682  1683    1
  1185  1130  1129    2
  1186   950   947    1
  1187   349   350    1
  1188   349   347    1
  1189  1692  1693   ar
  1190  1692  1691   ar
  1191   925   918   ar
  1192   935   933    1
  1193  1096  1100    1
  1194  1647  1648    1
  1195  1647  1128    1
  1196     7     8    1
  1197  1686  1688    1
  1198  1686  1684    1
  1199    43    44    1
  1200   307   311    1
  1201   307   306    1
  1202  1694  1693   ar
  1203  1694  1696   ar
  1204  1277  1279    1
  1205  1277  1278    1
  1206  1599  1598    1
  1207    81    79    2
  1208  1776  1777   ar
  1209  1260  1258    1
  1210  1260  1261    1
  1211  1601  1605    1
  1212   311   310    1
  1213  1131  1129    1
  1214  1291  1293    1
  1215  1291  1294    1
  1216  1605  1606    1
  1217    63    64    1
  1218  1256  1258    1
  1219  1256  1257    1
  1220  1256  1255    1
  1221  1666  1665    1
  1222  1693  1700   ar
  1223  1770  1771    1
  1224  1770  1772    1
  1225   144   145    1
  1226   144   141    1
  1227  1648  1649    1
  1228  1757  1758    1
  1229  1757  1759    1
  1230   112   111   ar
  1231   112   118   ar
  1232  1691  1690   ar
  1233   308   306    1
  1234   308   310    1
  1235   308   309    1
  1236   918   917    1
  1237   348   347    1
  1238  1662  1663    1
  1239    47    46    1
  1240     8     9    1
  1241    25    29    1
  1242  1937  1936    1
  1243  1937  1933    1
  1244   116   117   ar
  1245   129   128    1
  1246   129   125    1
  1247  1760  1759    1
  1248   111   110   ar
  1249  1683  1684    1
  1250   128   126    1
  1251  1696  1697   ar
  1252  1936  1934    1
  1253  1773  1774    1
  1254  1773  1772    1
  1255   332   331    1
  1256   332   328    1
  1257  1771  1785    1
  1258  1774  1784   ar
  1259  1128  1126    1
  1260   909   907    2
  1261  1279  1281    1
  1262  1129  1117    1
  1263  1129  1132    1
  1264  1688  1689    1
  1265  1100  1101    1
  1266   891   892    1
  1267  1628  1629   ar
  1268  1628  1637   ar
  1269  1257  1261    1
  1270   331   329    1
  1271  1254  1255    1
  1272  1254  1251    1
  1273  1787  1785    2
  1274   347   346    1
  1275  1665  1663    1
  1276  1665  1667    1
  1277  1933  1932    1
  1278  1700  1690   ar
  1279  1700  1699   ar
  1280  1671  1670    2
  1281  1671  1672    1
  1282   346   345    1
  1283   322   325    1
  1284   322   309    1
  1285   322   323    1
  1286   893   897    1
  1287   893   892    1
  1288  1656  1649   ar
  1289  1656  1655   ar
  1290  1690  1689    1
  1291   325   326    1
  1292  1117  1116    1
  1293  1114  1116    1
  1294  1114  1115    1
  1295    28    29    1
  1296    95  1935    1
  1297    95    94    1
  1298   949   947    2
  1299  1684  1685    1
  1300   897   896    1
  1301  1759  1227    1
  1302   933   934    1
  1303   933   931    1
  1304   143   141    2
  1305    77    78   ar
  1306    77    75   ar
  1307   932   931    1
  1308   342   343    1
  1309   342   345    1
  1310   342   330    1
  1311  1278  1282    1
  1312  1670  1669    1
  1313    46    44    1
  1314    46    48    1
  1315   947   934    1
  1316   947   948    1
  1317  1697  1699   ar
  1318  1697  1698    1
  1319    76    75    1
  1320   329   330    1
  1321   329   327    1
  1322  1615  1613   ar
  1323  1615  1616   ar
  1324    64    65    1
  1325    44    45    1
  1326  1649  1650   ar
  1327  1614  1613    1
  1328   118   117   ar
  1329   118   109   ar
  1330  1786  1785    1
  1331  1785  1788    1
  1332  1244  1243    2
  1333   328   327    1
  1334  1777  1784   ar
  1335  1777  1778   ar
  1336  1116  1118    1
  1337  1629  1630   ar
  1338  1932  1934    1
  1339  1932  1931    1
  1340    79    80    1
  1341    79    68    1
  1342    79    82    1
  1343  1663  1664    1
  1344  1657  1655    1
  1345  1598  1595    1
  1346   100    98    1
  1347   894   892    1
  1348   894   896    1
  1349   894   895    1
  1350  1253  1251    2
  1351  1108  1101   ar
  1352  1108  1107   ar
  1353  1674  1673    1
  1354    29    30    1
  1355  1606  1616   ar
  1356  1606  1607   ar
  1357  1596  1595    2
  1358  1636  1637   ar
  1359  1636  1635   ar
  1360  1940  1939    2
  1361   110   109   ar
  1362  1689  1685    1
  1363  1294  1295    1
  1364   141   127    1
  1365   141   142    1
  1366     9    10    1
  1367     9    18    1
  1368  1935  1934    1
  1369   126   127    1
  1370   126   124    1
  1371    78    71   ar
  1372  1295  1296    1
  1373  1637  1631   ar
  1374  1784  1783   ar
  1375    75    74   ar
  1376    10  1592    1
  1377    10    11    1
  1378   125   124    1
  1379  1101  1102   ar
  1380  1115  1119    1
  1381  1655  1653   ar
  1382    37    30   ar
  1383    37    36   ar
  1384  1127  1126   ar
  1385  1127  1120   ar
  1386  1126  1124   ar
  1387  1804  1802    1
  1388  1613  1612   ar
  1389   917   916    1
  1390   917   913    1
  1391  1281  1282    1
  1392    96    94   ar
  1393    96    97   ar
  1394  1245  1243   ar
  1395  1245  1246   ar
  1396  1672  1673    2
  1397  1672  1678    1
  1398    94    93   ar
  1399  1616  1609   ar
  1400   931   930    1
  1401  1251  1252    1
  1402  1251  1239    1
  1403    38    36    1
  1404   327   326    1
  1405    51    52   ar
  1406    51    50   ar
  1407  1132  1133    1
  1408  1227  1228    1
  1409  1227  1225    1
  1410   109   108    1
  1411  1243  1242   ar
  1412   907   895    1
  1413   907   910    1
  1414   907   908    1
  1415  1667  1668    1
  1416  1667  1142    1
  1417  1582  1595    1
  1418  1582  1581    1
  1419    68    67    1
  1420    67    65    1
  1421    67    69    1
  1422  1779  1778    2
  1423  1226  1225    1
  1424  1673  1675    1
  1425  1669  1678    1
  1426  1669  1668    1
  1427  1282  1283    1
  1428    52    53   ar
  1429  1778  1780   ar
  1430  1595  1597    1
  1431    82    83    1
  1432    45    49    1
  1433  1930  1931    1
  1434    30    31   ar
  1435  1664  1668    1
  1436  1592  1593    1
  1437  1592  1591    1
  1438  1107  1105   ar
  1439   910   911    1
  1440    65    66    1
  1441  1247  1246    2
  1442  1593  1594    2
  1443  1921  1920    2
  1444   929   930    1
  1445   929   926    1
  1446   916   914    1
  1447  1583  1581    1
  1448  1583  1584    1
  1449  1939  1938    2
  1450  1939  1941   am
  1451  1938  1945    1
  1452   913   912    1
  1453   928   926    2
  1454  1650  1651    1
  1455  1650  1652   ar
  1456    36    34   ar
  1457    48    49    1
  1458   124   123    1
  1459  1607  1608   ar
  1460  1630  1631   ar
  1461  1635  1634   ar
  1462   121   119    2
  1463  1246  1248   ar
  1464  1228  1229    2
  1465  1262  1271   ar
  1466  1262  1263   ar
  1467  1678  1677    1
  1468  1290  1283   ar
  1469  1290  1289   ar
  1470  1788  1789    1
  1471    18    17    2
  1472    18    12    1
  1473  1225  1224    2
  1474    97    90   ar
  1475  1631  1632   ar
  1476   122   123    1
  1477   122   119    1
  1478    74    72   ar
  1479    71    72   ar
  1480    71    70    1
  1481  1118  1119    1
  1482  1240  1238    1
  1483  1240  1241    1
  1484    93    91   ar
  1485  1783  1781   ar
  1486    98   101    1
  1487    98    99    1
  1488   914   912    1
  1489   914   915    1
  1490  1651  1125    1
  1491  1133  1134    1
  1492  1119  1120    1
  1493    66    70    1
  1494  1120  1121   ar
  1495    11  1591    1
  1496    11    12    1
  1497  1102  1103    2
  1498  1102  1104   ar
  1499    50    49    1
  1500    50    59   ar
  1501  1124  1125    1
  1502  1124  1123   ar
  1503  1802  1800   ar
  1504  1802  1803   ar
  1505  1581  1579    1
  1506  1296  1297    1
  1507  1296  1298    1
  1508    17    16    1
  1509   101   102    1
  1510  1270  1271   ar
  1511  1270  1269   ar
  1512  1801  1800    2
  1513  1283  1284   ar
  1514  1653  1652   ar
  1515  1653  1654    2
  1516  1917  1918    1
  1517  1612  1610   ar
  1518   107   108    1
  1519   107   105    1
  1520  1242  1241    1
  1521  1242  1249   ar
  1522  1312  1310    2
  1523  1239  1238    1
  1524  1609  1608   ar
  1525  1609  1610   ar
  1526  1675  1676    2
  1527    69    70    1
  1528  1591  1589    1
  1529   926   915    1
  1530   926   927    1
  1531  1311  1310    1
  1532  1918  1914    1
  1533  1918  1919    1
  1534    72    73    2
  1535   912   911    1
  1536   108   104    1
  1537  1927  1916    1
  1538  1927  1928    2
  1539  1584  1585    1
  1540  1584  1580    1
  1541  1780  1781   ar
  1542   105   106    1
  1543   105   103    1
  1544  1271  1265   ar
  1545  1263  1264   ar
  1546    53    59   ar
  1547    53    54   ar
  1548  1579  1580    1
  1549  1579  1578    1
  1550    83    84    1
  1551  1289  1287   ar
  1552  1789  1790    1
  1553  1238  1236    1
  1554  1142  1141    1
  1555  1142  1143    1
  1556  1105  1104   ar
  1557  1105  1106    1
  1558  1945  1944    2
  1559   119   106    1
  1560   119   120    1
  1561  1800  1799   ar
  1562  1153  1151    2
  1563  1920  1919   ar
  1564  1920  1922   ar
  1565  1594  1585   ar
  1566  1594  1588   ar
  1567  1803  1796   ar
  1568  1941  1942   am
  1569  1297  1301    1
  1570    12    13    1
  1571    31    32    2
  1572    31    33   ar
  1573  1241  1237    1
  1574  1781  1782    1
  1575    99    87    1
  1576    90    91   ar
  1577    90    89    1
  1578  1310  1299    1
  1579  1310  1313    1
  1580  1141  1140    1
  1581    91    92    2
  1582  1677  1676    1
  1583  1677  1145    1
  1584    86    87    1
  1585    86    84    1
  1586    86    88    1
  1587  1634  1632   ar
  1588  1916  1929    1
  1589  1248  1249   ar
  1590  1248  1250    1
  1591  1632  1633    1
  1592  1299  1298    1
  1593  1229  1230    1
  1594  1914  1913    1
  1595    34    33   ar
  1596    34    35    2
  1597    59    58   ar
  1598    55    54    1
  1599  1610  1611    2
  1600  1298  1300    1
  1601   104   103    1
  1602  1585  1586   ar
  1603  1901  1900    2
  1604  1123  1121   ar
  1605  1913  1912    1
  1606  1121  1122    2
  1607  1919  1926   ar
  1608  1269  1268   ar
  1609  1167  1166    1
  1610  1224  1230    1
  1611  1224  1223    1
  1612  1915  1929    1
  1613  1309  1308   ar
  1614  1309  1302   ar
  1615  1134  1136    1
  1616  1134  1135    1
  1617    54    56   ar
  1618  1578  1577    1
  1619    84    85    1
  1620    16    15    2
  1621   102   103    1
  1622  1791  1790    1
  1623  1791  1795    1
  1624  1922  1923   ar
  1625  1207  1206    1
  1626  1308  1306   ar
  1627  1284  1285    2
  1628  1284  1286   ar
  1629  1186  1185    1
  1630  1145  1144    1
  1631  1589  1588    2
  1632  1589  1590    1
  1633    85    89    1
  1634  1136  1137    1
  1635  1136  1138    1
  1636  1135  1139    1
  1637  1230  1221    1
  1638    88    89    1
  1639  1944  1942    1
  1640  1944  1946    1
  1641  1799  1797   ar
  1642  1264  1265   ar
  1643  1265  1266   ar
  1644  1796  1797   ar
  1645  1796  1795    1
  1646  1588  1587   ar
  1647  1137  1151    1
  1648  1942  1943    2
  1649  1790  1792    1
  1650  1143  1144    1
  1651  1143  1150    1
  1652  1151  1152    1
  1653  1151  1154    1
  1654  1287  1286   ar
  1655  1287  1288    1
  1656  1237  1236    1
  1657  1301  1302    1
  1658  1301  1300    1
  1659  1236  1235    1
  1660    13    15    1
  1661    13    14    2
  1662  1168  1166   ar
  1663  1168  1169   ar
  1664  1140  1139    1
  1665  1140  1150    1
  1666  1223  1222    2
  1667    58    57   ar
  1668  1577  1574    1
  1669  1166  1165   ar
  1670  1900  1902   ar
  1671  1900  1899   ar
  1672  1144  1146    2
  1673  1912  1911    1
  1674  1302  1303   ar
  1675  1797  1798    2
  1676  1430  1431    2
  1677  1430  1429    1
  1678  1795  1794    1
  1679  1586  1587   ar
  1680  1313  1314    1
  1681  1268  1266   ar
  1682  1821  1820    2
  1683  1926  1925   ar
  1684  1902  1903   ar
  1685    56    57   ar
  1686  1439  1443    1
  1687  1439  1438    1
  1688  1139  1138    1
  1689  1206  1205   ar
  1690  1206  1208   ar
  1691  1266  1267    1
  1692  1792  1794    1
  1693  1792  1793    1
  1694  1923  1925   ar
  1695  1923  1924    1
  1696  1807  1805    2
  1697  1150  1149    2
  1698  1431  1432    1
  1699  1306  1307    1
  1700  1306  1305   ar
  1701  1443  1442    1
  1702  1443  1444    1
  1703  1185  1187   ar
  1704  1185  1184   ar
  1705  1946  1421    1
  1706  1429    14    1
  1707  1429  1427    1
  1708  1438  1437    1
  1709  1438  1440    1
  1710  1154  1155    1
  1711  1221  1222    1
  1712  1221  1220    1
  1713  1169  1162   ar
  1714  1884  1885   ar
  1715  1884  1882   ar
  1716  1442  1440    1
  1717  1235  1234    1
  1718  1205  1203   ar
  1719  1898  1897    1
  1720  1898  1899    1
  1721  1898  1894    1
  1722  1314  1315    1
  1723  1897  1895    1
  1724  1885  1886   ar
  1725  1234  1231    1
  1726  1187  1188   ar
  1727  1446  1445    2
  1728  1899  1906   ar
  1729  1165  1163   ar
  1730  1818  1819   ar
  1731  1818  1817   ar
  1732  1911  1908    1
  1733  1862  1861    1
  1734  1820  1819   ar
  1735  1820  1822   ar
  1736  1183  1184   ar
  1737  1183  1182   ar
  1738  1437  1436    1
  1739  1489  1488    1
  1740  1303  1305   ar
  1741  1303  1304    2
  1742  1563  1564    1
  1743  1563  1561    1
  1744  1146  1147    2
  1745  1843  1842    1
  1746  1208  1209   ar
  1747  1793  1805    1
  1748  1562  1574    1
  1749  1562  1561    1
  1750  1184  1190   ar
  1751  1903  1904    2
  1752  1903  1905   ar
  1753  1441  1440    1
  1754  1441  1453    1
  1755  1574  1576    2
  1756  1574  1575    1
  1757  1567  1566    2
  1758  1219  1220    1
  1759  1219  1217    1
  1760  1220  1216    1
  1761  1863  1861   ar
  1762  1863  1864   ar
  1763  1805  1806    1
  1764  1805  1808    1
  1765  1432  1426    1
  1766  1432  1423    1
  1767  1819  1826   ar
  1768  1172  1170    2
  1769  1149  1147    1
  1770  1233  1231    2
  1771  1894  1893    1
  1772  1323  1322   ar
  1773  1323  1324   ar
  1774  1444  1445   ar
  1775  1444  1451   ar
  1776  1427  1428    1
  1777  1427  1426    2
  1778  1322  1321   ar
  1779  1883  1882    1
  1780  1445  1447   ar
  1781  1886  1887   ar
  1782  1508  1507    1
  1783  1882  1881   ar
  1784  1155  1156    1
  1785  1162  1163   ar
  1786  1162  1161    1
  1787  1564  1560    1
  1788  1564  1565    1
  1789  1530  1531   ar
  1790  1530  1528   ar
  1791  1861  1860   ar
  1792  1203  1204    2
  1793  1203  1202   ar
  1794  1347  1346    2
  1795  1817  1816   ar
  1796  1561  1559    1
  1797  1316  1315    1
  1798  1316  1320    1
  1799  1421  1422    1
  1800  1421  1419    1
  1801  1163  1164    2
  1802  1822  1823   ar
  1803  1147  1148    1
  1804  1315  1317    1
  1805  1547  1546    2
  1806  1405  1404    2
  1807  1231  1218    1
  1808  1231  1232    1
  1809  1188  1189   ar
  1810  1459  1458    1
  1811  1459  1463    1
  1812  1458  1457    1
  1813  1458  1460    1
  1814  1333  1331    2
  1815  1454  1453    2
  1816  1895  1896    1
  1817  1895  1893    1
  1818  1457  1456    1
  1819  1906  1905   ar
  1820  1422  1423    1
  1821  1422  1418    1
  1822  1531  1532   ar
  1823  1559  1560    1
  1824  1559  1558    1
  1825  1182  1181   ar
  1826  1488  1490   ar
  1827  1488  1487   ar
  1828  1908  1896    1
  1829  1908  1909    2
  1830  1908  1910    1
  1831  1426  1425    1
  1832  1864  1865   ar
  1833  1905  1907    1
  1834  1423  1424    1
  1835  1842  1841   ar
  1836  1842  1844   ar
  1837  1893  1892    1
  1838  1369  1368    1
  1839  1209  1202   ar
  1840  1566  1565   ar
  1841  1566  1568   ar
  1842  1406  1404   ar
  1843  1406  1407   ar
  1844  1509  1507   ar
  1845  1509  1510   ar
  1846  1436  1433    1
  1847  1190  1189   ar
  1848  1190  1181   ar
  1849  1217  1218    1
  1850  1217  1215    1
  1851  1808  1809    1
  1852  1529  1528    1
  1853  1490  1491   ar
  1854  1157  1156    1
  1855  1157  1161    1
  1856  1507  1506   ar
  1857  1451  1450   ar
  1858  1463  1462    1
  1859  1463  1464    1
  1860  1216  1215    1
  1861  1565  1572   ar
  1862  1453  1456    1
  1863  1453  1455    1
  1864  1408  1407    2
  1865  1202  1201    1
  1866  1447  1448   ar
  1867  1156  1158    1
  1868  1158  1159    1
  1869  1158  1160    1
  1870  1528  1527   ar
  1871  1887  1881   ar
  1872  1887  1878   ar
  1873  1404  1403   ar
  1874  1826  1816   ar
  1875  1826  1825   ar
  1876  1841  1839   ar
  1877  1321  1320    1
  1878  1321  1330   ar
  1879  1881  1880   ar
  1880  1161  1160    1
  1881  1344  1345   ar
  1882  1344  1343   ar
  1883  1324  1325   ar
  1884  1324  1330   ar
  1885  1326  1325    1
  1886  1170  1159    1
  1887  1170  1173    1
  1888  1170  1171    1
  1889  1317  1318    1
  1890  1317  1319    1
  1891  1487  1485   ar
  1892  1346  1345   ar
  1893  1346  1348   ar
  1894  1844  1845   ar
  1895  1816  1815    1
  1896  1462  1460    1
  1897  1320  1319    1
  1898  1434  1433    2
  1899  1418  1417    1
  1900  1181  1180    1
  1901  1331  1318    1
  1902  1331  1332    1
  1903  1331  1334    1
  1904  1420  1419    1
  1905  1420  1433    1
  1906  1546  1548   ar
  1907  1546  1545   ar
  1908  1543  1544    1
  1909  1543  1541    1
  1910  1460  1461    1
  1911  1860  1859   ar
  1912  1860  1866   ar
  1913  1532  1533   ar
  1914  1823  1825   ar
  1915  1823  1824    1
  1916  1461  1473    1
  1917  1407  1409   ar
  1918  1419  1417    1
  1919  1558  1557    1
  1920  1388  1387    2
  1921  1510  1511   ar
  1922  1433  1435    1
  1923  1568  1569   ar
  1924  1544  1545    1
  1925  1544  1540    1
  1926  1215  1214    1
  1927  1424  1425    2
  1928  1417  1416    1
  1929  1345  1352   ar
  1930  1865  1866   ar
  1931  1325  1327   ar
  1932  1193  1191    2
  1933  1811  1815    1
  1934  1811  1810    1
  1935  1173  1174    1
  1936  1368  1370   ar
  1937  1368  1367   ar
  1938  1491  1484   ar
  1939  1212  1210    2
  1940  1330  1329   ar
  1941  1450  1448   ar
  1942  1450  1452    1
  1943  1548  1549   ar
  1944  1892  1891    1
  1945  1474  1473    2
  1946  1464  1471   ar
  1947  1464  1465   ar
  1948  1386  1387   ar
  1949  1386  1384   ar
  1950  1809  1810    1
  1951  1448  1449    2
  1952  1506  1505   ar
  1953  1506  1512   ar
  1954  1343  1342   ar
  1955  1815  1814    1
  1956  1213  1214    1
  1957  1213  1210    1
  1958  1859  1858   ar
  1959  1866  1857   ar
  1960  1545  1552   ar
  1961  1348  1349   ar
  1962  1572  1571   ar
  1963  1527  1533   ar
  1964  1527  1526   ar
  1965  1878  1877    1
  1966  1878  1879   ar
  1967  1466  1465    2
  1968  1839  1840    2
  1969  1839  1838   ar
  1970  1387  1389   ar
  1971  1403  1402    1
  1972  1403  1410   ar
  1973  1533  1524   ar
  1974  1471  1470   ar
  1975  1485  1484   ar
  1976  1485  1486    2
  1977  1880  1879   ar
  1978  1385  1384    2
  1979  1201  1200    1
  1980  1201  1197    1
  1981  1370  1371   ar
  1982  1845  1838   ar
  1983  1367  1365   ar
  1984  1876  1877    1
  1985  1876  1874    1
  1986  1540  1539    1
  1987  1334  1335    1
  1988  1891  1888    1
  1989  1505  1504   ar
  1990  1465  1467   ar
  1991  1200  1198    1
  1992  1557  1554    1
  1993  1810  1812    1
  1994  1180  1176    1
  1995  1180  1179    1
  1996  1877  1873    1
  1997  1484  1483    1
  1998  1541  1542    1
  1999  1541  1539    1
  2000  1542  1554    1
  2001  1511  1512   ar
  2002  1384  1383   ar
  2003  1409  1410   ar
  2004  1409  1411    1
  2005  1473  1476    1
  2006  1473  1475    1
  2007  1176  1175    1
  2008  1402  1401    1
  2009  1402  1398    1
  2010  1569  1571   ar
  2011  1569  1570    2
  2012  1401  1399    1
  2013  1194  1191    1
  2014  1194  1195    1
  2015  1210  1199    1
  2016  1210  1211    1
  2017  1198  1199    1
  2018  1198  1196    1
  2019  1512  1503   ar
  2020  1838  1837    1
  2021  1539  1538    1
  2022  1174  1175    1
  2023  1177  1179    1
  2024  1177  1175    1
  2025  1177  1178    1
  2026  1327  1328   ar
  2027  1352  1342   ar
  2028  1352  1351   ar
  2029  1191  1178    1
  2030  1191  1192    1
  2031  1416  1415    1
  2032  1829  1827    2
  2033  1571  1573    1
  2034  1197  1196    1
  2035  1812  1814    1
  2036  1812  1813    1
  2037  1329  1328   ar
  2038  1549  1550    2
  2039  1549  1551   ar
  2040  1342  1341    1
  2041  1858  1857   ar
  2042  1470  1472    1
  2043  1470  1468   ar
  2044  1526  1525   ar
  2045  1857  1856    1
  2046  1552  1551   ar
  2047  1349  1351   ar
  2048  1349  1350    1
  2049  1554  1555    2
  2050  1554  1556    1
  2051  1467  1468   ar
  2052  1524  1525   ar
  2053  1524  1523    1
  2054  1476  1477    1
  2055  1389  1391    1
  2056  1389  1390   ar
  2057  1371  1364   ar
  2058  1415  1412    1
  2059  1504  1503   ar
  2060  1365  1364   ar
  2061  1365  1366    2
  2062  1874  1875    1
  2063  1874  1872    1
  2064  1196  1195    1
  2065  1335  1336    1
  2066  1468  1469    2
  2067  1873  1872    1
  2068  1383  1390   ar
  2069  1383  1382    1
  2070  1503  1502    1
  2071  1551  1553    1
  2072  1483  1479    1
  2073  1483  1482    1
  2074  1888  1875    1
  2075  1888  1890    2
  2076  1888  1889    1
  2077  1479  1478    1
  2078  1398  1397    1
  2079  1337  1341    1
  2080  1337  1336    1
  2081  1399  1400    1
  2082  1399  1397    1
  2083  1813  1827    1
  2084  1837  1833    1
  2085  1837  1836    1
  2086  1827  1830    1
  2087  1827  1828    1
  2088  1538  1537    1
  2089  1364  1363    1
  2090  1341  1340    1
  2091  1523  1519    1
  2092  1523  1522    1
  2093  1830  1831    1
  2094  1856  1855    1
  2095  1856  1852    1
  2096  1477  1478    1
  2097  1400  1412    1
  2098  1872  1871    1
  2099  1355  1353    1
  2100  1833  1832    1
  2101  1336  1338    1
  2102  1382  1381    1
  2103  1382  1378    1
  2104  1397  1396    1
  2105  1478  1480    1
  2106  1482  1480    1
  2107  1519  1518    1
  2108  1836  1834    1
  2109  1412  1413    2
  2110  1412  1414    1
  2111  1537  1534    1
  2112  1502  1498    1
  2113  1502  1501    1
  2114  1338  1340    1
  2115  1338  1339    1
  2116  1855  1853    1
  2117  1480  1481    1
  2118  1848  1846    2
  2119  1553  1522    1
  2120  1381  1379    1
  2121  1852  1851    1
  2122  1522  1520    1
  2123  1831  1832    1
  2124  1834  1832    1
  2125  1834  1835    1
  2126  1363  1359    1
  2127  1363  1362    1
  2128  1353  1354    2
  2129  1870  1871    1
  2130  1870  1867    1
  2131  1494  1492    2
  2132  1498  1497    1
  2133  1378  1377    1
  2134  1501  1499    1
  2135  1359  1358    1
  2136  1853  1851    1
  2137  1853  1854    1
  2138  1339  1356    1
  2139  1395  1396    1
  2140  1395  1392    1
  2141  1849  1846    1
  2142  1849  1850    1
  2143  1518  1520    1
  2144  1518  1517    1
  2145  1521  1520    1
  2146  1521  1534    1
  2147  1846  1835    1
  2148  1846  1847    1
  2149  1481  1492    1
  2150  1362  1360    1
  2151  1379  1377    1
  2152  1379  1380    1
  2153  1851  1850    1
  2154  1534  1535    2
  2155  1534  1536    1
  2156  1869  1867    2
  2157  1356  1357    1
  2158  1499  1497    1
  2159  1499  1500    1
  2160  1492  1495    1
  2161  1492  1493    1
  2162  1377  1376    1
  2163  1867  1854    1
  2164  1867  1868    1
  2165  1357  1358    1
  2166  1516  1517    1
  2167  1516  1513    1
  2168  1360  1358    1
  2169  1360  1361    1
  2170  1497  1496    1
  2171  1495  1496    1
  2172  1394  1392    2
  2173  1375  1376    1
  2174  1375  1372    1
  2175  1380  1392    1
  2176  1374  1372    2
  2177  1392  1393    1
  2178  1515  1513    2
  2179  1500  1513    1
  2180  1513  1514    1
  2181  1372  1361    1
  2182  1372  1373    1
