@<TRIPOS>MOLECULE
dna.pdb
 1642 1848 0 0 0
SMALL
GASTEIGER

@<TRIPOS>ATOM
      1  O5'        1.3360   -0.5190   17.1360 O.3     1  DA1        -0.2176
      2  C5'        2.5570   -0.8850   16.4780 C.3     1  DA1         0.2140
      3  C4'        2.8440   -2.3830   16.5800 C.3     1  DA1         0.1774
      4  O4'        2.5310   -2.8880   17.9190 O.3     1  DA1        -0.3348
      5  C3'        2.0910   -3.3340   15.6550 C.3     1  DA1         0.1556
      6  O3'        2.5830   -3.3810   14.3130 O.3     1  DA1        -0.3139
      7  C2'        2.2370   -4.6720   16.3810 C.3     1  DA1         0.0835
      8  C1'        2.0960   -4.2460   17.8350 C.3     1  DA1         0.1974
      9  N9         0.7000   -4.3280   18.2320 N.pl3   1  DA1        -0.2458
     10  C8        -0.1650   -3.2820   18.4220 C.2     1  DA1         0.1669
     11  N7        -1.3660   -3.6510   18.8020 N.2     1  DA1        -0.2210
     12  C5        -1.2840   -5.0330   18.8640 C.2     1  DA1         0.1864
     13  C6        -2.2240   -6.0210   19.2060 C.2     1  DA1         0.3873
     14  N6        -3.4810   -5.7530   19.5650 N.pl3   1  DA1         0.2116
     15  N1        -1.8200   -7.3090   19.1660 N.pl3   1  DA1        -0.1431
     16  C2        -0.5590   -7.5760   18.8080 C.2     1  DA1         0.2795
     17  N3         0.4140   -6.7350   18.4660 N.2     1  DA1        -0.2058
     18  C4        -0.0190   -5.4640   18.5150 C.3     1  DA1         0.2329
     19  P          1.6590   -3.5460   13.2790 P.3     2  DG2         0.2141
     20  OP1        2.3970   -3.4870   12.0050 O.2     2  DG2        -0.5172
     21  OP2        0.3040   -2.9570   13.3420 O.3     2  DG2        -0.4373
     22  O5'        1.5960   -5.0560   13.7550 O.3     2  DG2        -0.3114
     23  C5'        2.1940   -6.0740   13.0480 C.3     2  DG2         0.1811
     24  C4'        1.2320   -7.2130   13.0780 C.3     2  DG2         0.1746
     25  O4'        0.6450   -7.3360   14.3880 O.3     2  DG2        -0.3327
     26  C3'        0.0160   -6.9990   12.2300 C.3     2  DG2         0.1558
     27  O3'        0.3430   -7.1230   10.8520 O.3     2  DG2        -0.3138
     28  C2'       -0.8960   -8.0920   12.7770 C.3     2  DG2         0.0865
     29  C1'       -0.6190   -7.9620   14.2590 C.3     2  DG2         0.2094
     30  N9        -1.5050   -7.3020   15.0260 N.ar    2  DG2        -0.2713
     31  C8        -1.4270   -5.9580   15.3030 C.ar    2  DG2         0.1816
     32  N7        -2.4870   -5.4940   15.9080 N.ar    2  DG2        -0.2173
     33  C5        -3.3140   -6.5930   16.0410 C.ar    2  DG2         0.1748
     34  C6        -4.6060   -6.7120   16.6160 C.ar    2  DG2         0.3023
     35  O6        -5.2940   -5.8290   17.1430 O.2     2  DG2        -0.2633
     36  N1        -5.0910   -8.0150   16.5410 N.ar    2  DG2        -0.1709
     37  C2        -4.4160   -9.0720   15.9800 C.ar    2  DG2         0.2606
     38  N2        -5.0470  -10.2540   16.0010 N.pl3   2  DG2        -0.0859
     39  N3        -3.2170   -8.9770   15.4400 N.ar    2  DG2        -0.1918
     40  C4        -2.7260   -7.7210   15.5020 C.ar    2  DG2         0.1722
     41  P         -0.7320   -6.5200    9.6640 P.3     3  DC3         0.2141
     42  OP1       -0.0410   -6.5000    8.3580 O.2     3  DC3        -0.5172
     43  OP2       -1.1360   -5.2130   10.2410 O.3     3  DC3        -0.4373
     44  O5'       -2.0450   -7.4500    9.5850 O.3     3  DC3        -0.3114
     45  C5'       -2.0420   -8.7950    9.0830 C.3     3  DC3         0.1811
     46  C4'       -3.2670   -9.5890    9.5290 C.3     3  DC3         0.1746
     47  O4'       -3.4020   -9.6310   10.9800 O.3     3  DC3        -0.3327
     48  C3'       -4.6190   -9.0560    9.0860 C.3     3  DC3         0.1558
     49  O3'       -4.9410   -9.4240    7.7390 O.3     3  DC3        -0.3138
     50  C2'       -5.5460   -9.7600   10.0820 C.3     3  DC3         0.0866
     51  C1'       -4.7490   -9.6950   11.3870 C.3     3  DC3         0.2106
     52  N1        -5.0750   -8.4640   12.1590 N.ar    3  DC3        -0.2556
     53  C2        -6.2280   -8.4820   12.9510 C.ar    3  DC3         0.3531
     54  O2        -6.9710   -9.4780   12.9030 O.2     3  DC3        -0.2443
     55  N3        -6.5010   -7.4180   13.7430 N.ar    3  DC3        -0.1739
     56  C4        -5.6760   -6.3700   13.7610 C.ar    3  DC3         0.1759
     57  N4        -5.9870   -5.3440   14.5570 N.pl3   3  DC3        -0.1070
     58  C5        -4.5020   -6.3320   12.9660 C.ar    3  DC3         0.0566
     59  C6        -4.2360   -7.3850   12.1850 C.ar    3  DC3         0.0849
     60  P         -5.6960   -8.4280    6.8600 P.3     4  DA4         0.2141
     61  OP1       -5.7360   -8.4940    5.3790 O.2     4  DA4        -0.5172
     62  OP2       -5.1310   -7.2470    7.5520 O.3     4  DA4        -0.4373
     63  O5'       -7.1690   -8.7180    7.4080 O.3     4  DA4        -0.3114
     64  C5'       -7.7870   -9.9760    7.1630 C.3     4  DA4         0.1811
     65  C4'       -9.2510   -9.8770    7.5320 C.3     4  DA4         0.1746
     66  O4'       -9.3870  -10.0450    8.9640 O.3     4  DA4        -0.3327
     67  C3'       -9.8640   -8.5210    7.2150 C.3     4  DA4         0.1558
     68  O3'      -10.3960   -8.5600    5.8890 O.3     4  DA4        -0.3138
     69  C2'      -10.9270   -8.3800    8.3080 C.3     4  DA4         0.0865
     70  C1'      -10.2450   -9.0510    9.4950 C.3     4  DA4         0.2094
     71  N9        -9.4890   -8.0880   10.3190 N.ar    4  DA4        -0.2714
     72  C8        -8.1940   -7.6430   10.2600 C.ar    4  DA4         0.1815
     73  N7        -7.9560   -6.6030   11.0230 N.ar    4  DA4        -0.2193
     74  C5        -9.1780   -6.3470   11.6240 C.ar    4  DA4         0.1518
     75  C6        -9.5920   -5.3700   12.5470 C.ar    4  DA4         0.1919
     76  N6        -8.7820   -4.4330   13.0450 N.pl3   4  DA4        -0.1054
     77  N1       -10.8820   -5.3910   12.9450 N.ar    4  DA4        -0.2040
     78  C2       -11.6930   -6.3310   12.4460 C.ar    4  DA4         0.2016
     79  N3       -11.4210   -7.3000   11.5750 N.ar    4  DA4        -0.2048
     80  C4       -10.1320   -7.2520   11.1990 C.ar    4  DA4         0.1691
     81  P        -11.0470   -7.3970    5.1940 P.3     5  DG5         0.2141
     82  OP1      -11.4900   -7.6450    3.8000 O.2     5  DG5        -0.5172
     83  OP2       -9.8210   -6.5960    5.3970 O.3     5  DG5        -0.4373
     84  O5'      -12.1970   -6.6910    6.0510 O.3     5  DG5        -0.3114
     85  C5'      -13.5340   -6.6880    5.6110 C.3     5  DG5         0.1811
     86  C4'      -14.4140   -5.7660    6.4420 C.3     5  DG5         0.1746
     87  O4'      -14.1470   -5.9610    7.8510 O.3     5  DG5        -0.3327
     88  C3'      -14.2190   -4.2680    6.2720 C.3     5  DG5         0.1558
     89  O3'      -14.8150   -3.7770    5.0790 O.3     5  DG5        -0.3138
     90  C2'      -14.9050   -3.7640    7.5250 C.3     5  DG5         0.0865
     91  C1'      -14.3510   -4.7480    8.5440 C.3     5  DG5         0.2094
     92  N9       -13.1070   -4.3420    9.2020 N.ar    5  DG5        -0.2713
     93  C8       -11.9200   -5.0320    9.1850 C.ar    5  DG5         0.1816
     94  N7       -10.9650   -4.4310    9.8420 N.ar    5  DG5        -0.2173
     95  C5       -11.5540   -3.2770   10.3230 C.ar    5  DG5         0.1748
     96  C6       -11.0160   -2.2240   11.1070 C.ar    5  DG5         0.3023
     97  O6        -9.8640   -2.1060   11.5440 O.2     5  DG5        -0.2633
     98  N1       -11.9620   -1.2380   11.3740 N.ar    5  DG5        -0.1709
     99  C2       -13.2660   -1.2650   10.9410 C.ar    5  DG5         0.2606
    100  N2       -14.0290   -0.2240   11.3010 N.pl3   5  DG5        -0.0859
    101  N3       -13.7800   -2.2360   10.2120 N.ar    5  DG5        -0.1918
    102  C4       -12.8790   -3.2030    9.9390 C.ar    5  DG5         0.1722
    103  P        -13.7760   -3.4280    3.8280 P.3     6  DC6         0.2141
    104  OP1      -14.5190   -3.4330    2.5320 O.2     6  DC6        -0.5172
    105  OP2      -12.2960   -3.5730    3.8300 O.3     6  DC6        -0.4373
    106  O5'      -14.1050   -2.0890    4.6350 O.3     6  DC6        -0.3114
    107  C5'      -15.4510   -1.6430    4.7730 C.3     6  DC6         0.1811
    108  C4'      -15.5170   -0.3420    5.5400 C.3     6  DC6         0.1746
    109  O4'      -15.1180   -0.5510    6.9190 O.3     6  DC6        -0.3327
    110  C3'      -14.6280    0.7910    5.0750 C.3     6  DC6         0.1558
    111  O3'      -15.1800    1.5040    3.9870 O.3     6  DC6        -0.3138
    112  C2'      -14.5580    1.6670    6.3190 C.3     6  DC6         0.0866
    113  C1'      -14.5060    0.6220    7.4270 C.3     6  DC6         0.2106
    114  N1       -13.1420    0.2860    7.7770 N.ar    6  DC6        -0.2556
    115  C2       -12.3400    1.1990    8.4710 C.ar    6  DC6         0.3531
    116  O2       -12.8110    2.3140    8.7560 O.2     6  DC6        -0.2443
    117  N3       -11.0780    0.8430    8.8110 N.ar    6  DC6        -0.1739
    118  C4       -10.6140   -0.3630    8.4830 C.ar    6  DC6         0.1759
    119  N4        -9.3640   -0.6700    8.8390 N.pl3   6  DC6        -0.1070
    120  C5       -11.4110   -1.3030    7.7800 C.ar    6  DC6         0.0566
    121  C6       -12.6560   -0.9470    7.4470 C.ar    6  DC6         0.0849
    122  P        -14.1950    2.6890    3.1030 P.3     7  DA7         0.2141
    123  OP1      -14.9200    3.2030    1.9260 O.2     7  DA7        -0.5172
    124  OP2      -12.9590    1.8790    2.9180 O.3     7  DA7        -0.4373
    125  O5'      -13.7560    3.9060    4.0380 O.3     7  DA7        -0.3114
    126  C5'      -14.5860    5.0570    4.2240 C.3     7  DA7         0.1811
    127  C4'      -13.7930    6.1500    4.8930 C.3     7  DA7         0.1746
    128  O4'      -13.2920    5.6390    6.1510 O.3     7  DA7        -0.3327
    129  C3'      -12.5710    6.5350    4.0680 C.3     7  DA7         0.1558
    130  O3'      -12.9390    7.6510    3.2510 O.3     7  DA7        -0.3138
    131  C2'      -11.5100    6.8450    5.1220 C.3     7  DA7         0.0865
    132  C1'      -11.9160    5.9090    6.2640 C.3     7  DA7         0.2094
    133  N9       -11.1240    4.6220    6.4100 N.ar    7  DA7        -0.2714
    134  C8       -11.3590    3.3620    5.9240 C.ar    7  DA7         0.1815
    135  N7       -10.3380    2.5470    6.0500 N.ar    7  DA7        -0.2193
    136  C5        -9.3670    3.3260    6.6600 C.ar    7  DA7         0.1518
    137  C6        -8.0500    3.0470    7.0670 C.ar    7  DA7         0.1919
    138  N6        -7.4640    1.8570    6.9130 N.pl3   7  DA7        -0.1054
    139  N1        -7.3480    4.0460    7.6440 N.ar    7  DA7        -0.2040
    140  C2        -7.9360    5.2380    7.7980 C.ar    7  DA7         0.2016
    141  N3        -9.1650    5.6200    7.4580 N.ar    7  DA7        -0.2048
    142  C4        -9.8360    4.6050    6.8870 C.ar    7  DA7         0.1691
    143  P        -11.9160    8.2400    2.0800 P.3     8  DC8         0.2141
    144  OP1      -12.6150    9.3330    1.3670 O.2     8  DC8        -0.5172
    145  OP2      -11.6790    6.9450    1.4050 O.3     8  DC8        -0.4373
    146  O5'      -10.5230    8.8330    2.6010 O.3     8  DC8        -0.3114
    147  C5'      -10.4890   10.2020    2.9800 C.3     8  DC8         0.1811
    148  C4'       -9.2720   10.5510    3.8160 C.3     8  DC8         0.1746
    149  O4'       -9.1140    9.5620    4.8650 O.3     8  DC8        -0.3327
    150  C3'       -7.9400   10.5910    3.0770 C.3     8  DC8         0.1558
    151  O3'       -7.7100   11.9050    2.5810 O.3     8  DC8        -0.3138
    152  C2'       -6.9600   10.2630    4.1980 C.3     8  DC8         0.0866
    153  C1'       -7.7420    9.2730    5.0530 C.3     8  DC8         0.2106
    154  N1        -7.5350    7.8140    4.6470 N.ar    8  DC8        -0.2556
    155  C2        -6.3650    7.2080    5.1180 C.ar    8  DC8         0.3531
    156  O2        -5.6190    7.8550    5.8740 O.2     8  DC8        -0.2443
    157  N3        -6.0790    5.9410    4.7370 N.ar    8  DC8        -0.1739
    158  C4        -6.9080    5.2860    3.9230 C.ar    8  DC8         0.1759
    159  N4        -6.5850    4.0380    3.5740 N.pl3   8  DC8        -0.1070
    160  C5        -8.0990    5.8820    3.4350 C.ar    8  DC8         0.0566
    161  C6        -8.3770    7.1340    3.8140 C.ar    8  DC8         0.0849
    162  P         -6.5230   12.2130    1.4470 P.3     9  DA9         0.2141
    163  OP1       -6.4320   13.6720    1.1740 O.3     9  DA9        -0.4373
    164  OP2       -7.3090   11.3370    0.5450 O.2     9  DA9        -0.5172
    165  O5'       -5.0510   11.6040    1.5850 O.3     9  DA9        -0.3114
    166  C5'       -4.0160   12.3940    2.1470 C.3     9  DA9         0.1811
    167  C4'       -2.8930   11.5370    2.6860 C.3     9  DA9         0.1746
    168  O4'       -3.4190   10.3540    3.3470 O.3     9  DA9        -0.3327
    169  C3'       -1.8990   10.9120    1.7240 C.3     9  DA9         0.1558
    170  O3'       -0.9340   11.8440    1.2400 O.3     9  DA9        -0.3138
    171  C2'       -1.2000    9.9140    2.6420 C.3     9  DA9         0.0865
    172  C1'       -2.3540    9.4300    3.5150 C.3     9  DA9         0.2094
    173  N9        -2.7790    8.1250    3.1690 N.ar    9  DA9        -0.2714
    174  C8        -3.9870    7.8150    2.6020 C.ar    9  DA9         0.1815
    175  N7        -4.1570    6.5320    2.3850 N.ar    9  DA9        -0.2193
    176  C5        -2.9780    5.9610    2.8390 C.ar    9  DA9         0.1518
    177  C6        -2.5300    4.6290    2.8870 C.ar    9  DA9         0.1919
    178  N6        -3.2510    3.5910    2.4570 N.pl3   9  DA9        -0.1054
    179  N1        -1.3030    4.3990    3.4000 N.ar    9  DA9        -0.2040
    180  C2        -0.5820    5.4410    3.8320 C.ar    9  DA9         0.2016
    181  N3        -0.8950    6.7340    3.8390 N.ar    9  DA9        -0.2048
    182  C4        -2.1200    6.9290    3.3230 C.ar    9  DA9         0.1691
    183  P          0.1450   11.3710    0.0450 P.3    10  DG10        0.2141
    184  OP1        0.2770   12.7480   -0.4850 O.3    10  DG10       -0.4373
    185  OP2       -0.1480   10.2440   -0.8700 O.2    10  DG10       -0.5172
    186  O5'        1.4850   10.9340    0.8020 O.3    10  DG10       -0.3114
    187  C5'        2.4620   10.2550    0.0390 C.3    10  DG10        0.1811
    188  C4'        3.1030    9.1210    0.7930 C.3    10  DG10        0.1746
    189  O4'        2.1350    8.4190    1.6140 O.3    10  DG10       -0.3327
    190  C3'        3.6400    8.0120   -0.0900 C.3    10  DG10        0.1558
    191  O3'        4.8130    8.3550   -0.7990 O.3    10  DG10       -0.3138
    192  C2'        3.7750    6.8690    0.9000 C.3    10  DG10        0.0865
    193  C1'        2.4400    7.0360    1.6200 C.3    10  DG10        0.2094
    194  N9         1.4570    6.1970    0.6200 N.ar   10  DG10       -0.2713
    195  C8         0.2820    6.8100    0.2590 C.ar   10  DG10        0.1816
    196  N7        -0.6190    5.9770   -0.1860 N.ar   10  DG10       -0.2173
    197  C5        -0.0060    4.7400   -0.1150 C.ar   10  DG10        0.1748
    198  C6        -0.4860    3.4510   -0.4630 C.ar   10  DG10        0.3023
    199  O6        -1.5940    3.1440   -0.9200 O.2    10  DG10       -0.2633
    200  N1         0.4660    2.4620   -0.2330 N.ar   10  DG10       -0.1709
    201  C2         1.7250    2.6860    0.2700 C.ar   10  DG10        0.2606
    202  N2         2.5020    1.6050    0.4230 N.pl3  10  DG10       -0.0859
    203  N3         2.1850    3.8780    0.5970 N.ar   10  DG10       -0.1918
    204  C4         1.2780    4.8540    0.3810 C.ar   10  DG10        0.1722
    205  P          4.3900    8.7710   -2.0010 P.3    11  DA11        0.2141
    206  OP1        5.5780    9.6420   -2.1750 O.3    11  DA11       -0.4373
    207  OP2        3.0930    9.1800   -2.5970 O.2    11  DA11       -0.5172
    208  O5'        4.7620    7.2870   -2.4740 O.3    11  DA11       -0.3114
    209  C5'        6.1150    6.8490   -2.4370 C.3    11  DA11        0.1811
    210  C4'        6.1980    5.3860   -2.8050 C.3    11  DA11        0.1746
    211  O4'        5.0620    4.6860   -2.2460 O.3    11  DA11       -0.3327
    212  C3'        6.0610    5.1050   -4.2830 C.3    11  DA11        0.1558
    213  O3'        7.2720    5.3340   -4.9590 O.3    11  DA11       -0.3138
    214  C2'        5.7010    3.6250   -4.2560 C.3    11  DA11        0.0865
    215  C1'        4.7760    3.5580   -3.0500 C.3    11  DA11        0.2094
    216  N9         3.4620    3.6230   -3.4630 N.ar   11  DA11       -0.2714
    217  C8         2.6500    4.7280   -3.4700 C.ar   11  DA11        0.1815
    218  N7         1.4710    4.5140   -4.0030 N.ar   11  DA11       -0.2193
    219  C5         1.5110    3.1790   -4.3730 C.ar   11  DA11        0.1518
    220  C6         0.5670    2.3410   -4.9920 C.ar   11  DA11        0.1919
    221  N6        -0.6510    2.7440   -5.3600 N.pl3  11  DA11       -0.1054
    222  N1         0.9230    1.0590   -5.2210 N.ar   11  DA11       -0.2040
    223  C2         2.1440    0.6550   -4.8500 C.ar   11  DA11        0.2016
    224  N3         3.1160    1.3480   -4.2610 N.ar   11  DA11       -0.2048
    225  C4         2.7310    2.6180   -4.0480 C.ar   11  DA11        0.1691
    226  P          7.3260    5.0750   -6.4640 P.3    12  DG12        0.2141
    227  OP1        8.7810    5.2860   -6.6360 O.3    12  DG12       -0.4373
    228  OP2        6.3610    6.0350   -7.0440 O.2    12  DG12       -0.5172
    229  O5'        6.9130    3.6610   -7.0930 O.3    12  DG12       -0.3114
    230  C5'        7.7070    2.5270   -6.7770 C.3    12  DG12        0.1811
    231  C4'        6.9670    1.2150   -6.9200 C.3    12  DG12        0.1748
    232  O4'        5.7270    1.2280   -6.1660 O.3    12  DG12       -0.3327
    233  C3'        6.5440    0.8150   -8.3260 C.3    12  DG12        0.1602
    234  O3'        7.6270    0.2980   -9.0870 O.3    12  DG12       -0.2710
    235  C2'        5.4370   -0.1960   -8.0520 C.3    12  DG12        0.0867
    236  C1'        4.7850    0.3770   -6.7900 C.3    12  DG12        0.2094
    237  N9         3.5830    1.2370   -7.0060 N.ar   12  DG12       -0.2713
    238  C8         3.4220    2.6010   -7.0140 C.ar   12  DG12        0.1816
    239  N7         2.2190    2.9760   -7.3540 N.ar   12  DG12       -0.2173
    240  C5         1.5430    1.7910   -7.5820 C.ar   12  DG12        0.1748
    241  C6         0.2020    1.5560   -7.9800 C.ar   12  DG12        0.3023
    242  O6        -0.6840    2.3870   -8.2170 O.2    12  DG12       -0.2633
    243  N1        -0.0750    0.1970   -8.0980 N.ar   12  DG12       -0.1709
    244  C2         0.8280   -0.8110   -7.8610 C.ar   12  DG12        0.2606
    245  N2         0.3760   -2.0620   -8.0260 N.pl3  12  DG12       -0.0859
    246  N3         2.0770   -0.6080   -7.4920 N.ar   12  DG12       -0.1918
    247  C4         2.3690    0.7050   -7.3720 C.ar   12  DG12        0.1722
    248  P          7.4110   -0.3720  -10.5880 P.3    13  DG13        0.5146
    249  OP1        8.6580   -0.9400  -11.1450 O.3    13  DG13       -0.0720
    250  OP2        6.7360    0.7610  -11.2600 O.2    13  DG13       -0.2240
    251  O5'        6.2830   -1.5030  -10.5250 O.3    13  DG13       -0.2685
    252  C5'        6.5750   -2.8100  -10.0610 C.3    13  DG13        0.1856
    253  C4'        5.3510   -3.6780  -10.1600 C.3    13  DG13        0.1748
    254  O4'        4.3190   -3.1340   -9.2950 O.3    13  DG13       -0.3327
    255  C3'        4.6880   -3.7220  -11.5310 C.3    13  DG13        0.1558
    256  O3'        5.3180   -4.6070  -12.4480 O.3    13  DG13       -0.3138
    257  C2'        3.2500   -4.0950  -11.1880 C.3    13  DG13        0.0865
    258  C1'        3.0460   -3.3180   -9.8830 C.3    13  DG13        0.2094
    259  N9         2.3530   -1.9250  -10.1040 N.ar   13  DG13       -0.2713
    260  C8         2.9180   -0.6760  -10.0230 C.ar   13  DG13        0.1816
    261  N7         2.0580    0.2910  -10.1970 N.ar   13  DG13       -0.2173
    262  C5         0.8530   -0.3550  -10.4030 C.ar   13  DG13        0.1748
    263  C6        -0.4430    0.1660  -10.6490 C.ar   13  DG13        0.3023
    264  O6        -0.7880    1.3510  -10.7350 O.2    13  DG13       -0.2633
    265  N1        -1.3890   -0.8430  -10.8030 N.ar   13  DG13       -0.1709
    266  C2        -1.1200   -2.1890  -10.7280 C.ar   13  DG13        0.2606
    267  N2        -2.1640   -3.0110  -10.9010 N.pl3  13  DG13       -0.0859
    268  N3         0.0790   -2.6880  -10.5000 N.ar   13  DG13       -0.1918
    269  C4         1.0140   -1.7260  -10.3490 C.ar   13  DG13        0.1722
    270  P          5.6710   -4.1350  -13.9340 P.3    14  DT14        0.2141
    271  OP1        6.4920   -5.1750  -14.5960 O.2    14  DT14       -0.5172
    272  OP2        6.0700   -2.7130  -14.0220 O.3    14  DT14       -0.4373
    273  O5'        4.1630   -4.2550  -14.4540 O.3    14  DT14       -0.3114
    274  C5'        3.5150   -5.5220  -14.4710 C.3    14  DT14        0.1811
    275  C4'        2.2670   -5.4790  -15.3340 C.3    14  DT14        0.1746
    276  O4'        1.1590   -4.9630  -14.5530 O.3    14  DT14       -0.3327
    277  C3'        2.3620   -4.5730  -16.5540 C.3    14  DT14        0.1558
    278  O3'        2.8500   -5.3090  -17.6690 O.3    14  DT14       -0.3138
    279  C2'        0.9120   -4.1500  -16.7560 C.3    14  DT14        0.0866
    280  C1'        0.4230   -4.0250  -15.3150 C.3    14  DT14        0.2106
    281  N1         0.5910   -2.6330  -14.5670 N.ar   14  DT14       -0.2559
    282  C2        -0.5340   -1.8310  -14.5940 C.ar   14  DT14        0.3545
    283  O2        -1.5930   -2.1890  -15.0790 O.2    14  DT14       -0.2443
    284  N3        -0.3750   -0.5880  -14.0320 N.ar   14  DT14       -0.1533
    285  C4         0.7700   -0.0770  -13.4580 C.ar   14  DT14        0.2804
    286  O4         0.7580    1.0600  -12.9930 O.2    14  DT14       -0.2654
    287  C5         1.8950   -0.9690  -13.4690 C.ar   14  DT14        0.0534
    288  C6         1.7680   -2.1840  -14.0090 C.ar   14  DT14        0.0824
    289  C7         3.1880   -0.5050  -12.8680 C.3    14  DT14        0.0377
    290  P          4.0490   -4.9210  -18.2970 P.3    15  DC15        0.2141
    291  OP1        4.3220   -6.3480  -18.5830 O.2    15  DC15       -0.5172
    292  OP2        4.8770   -4.1940  -17.3050 O.3    15  DC15       -0.4373
    293  O5'        4.0890   -4.1250  -19.6850 O.3    15  DC15       -0.3114
    294  C5'        2.8820   -3.7000  -20.3090 C.3    15  DC15        0.1811
    295  C4'        2.8710   -2.1980  -20.5340 C.3    15  DC15        0.1746
    296  O4'        2.2820   -1.5150  -19.3950 O.3    15  DC15       -0.3327
    297  C3'        4.2220   -1.5090  -20.6320 C.3    15  DC15        0.1558
    298  O3'        4.9000   -1.7940  -21.8510 O.3    15  DC15       -0.3138
    299  C2'        3.7310   -0.0700  -20.5480 C.3    15  DC15        0.0866
    300  C1'        2.7930   -0.1930  -19.3490 C.3    15  DC15        0.2106
    301  N1         3.4350    0.1160  -18.1220 N.ar   15  DC15       -0.2556
    302  C2         3.5710    1.4450  -17.7040 C.ar   15  DC15        0.3531
    303  O2         3.1750    2.3510  -18.4560 O.2    15  DC15       -0.2443
    304  N3         4.1290    1.7030  -16.4970 N.ar   15  DC15       -0.1739
    305  C4         4.5410    0.6970  -15.7230 C.ar   15  DC15        0.1759
    306  N4         5.0840    1.0000  -14.5420 N.pl3  15  DC15       -0.1070
    307  C5         4.4120   -0.6560  -16.1280 C.ar   15  DC15        0.0566
    308  C6         3.8600   -0.9070  -17.3210 C.ar   15  DC15        0.0849
    309  P          6.1450   -1.6600  -21.6920 P.3    16  DA16        0.2141
    310  OP1        6.6300   -1.9640  -23.0520 O.2    16  DA16       -0.5172
    311  OP2        6.6790   -2.4220  -20.5330 O.3    16  DA16       -0.4373
    312  O5'        6.3460   -0.1080  -21.4220 O.3    16  DA16       -0.3114
    313  C5'        5.9630    0.8430  -22.3990 C.3    16  DA16        0.1811
    314  C4'        6.5220    2.1870  -22.0420 C.3    16  DA16        0.1746
    315  O4'        5.7780    2.7420  -20.9240 O.3    16  DA16       -0.3327
    316  C3'        7.9450    2.1240  -21.5320 C.3    16  DA16        0.1558
    317  O3'        8.9000    2.0330  -22.5800 O.3    16  DA16       -0.3138
    318  C2'        8.0400    3.4050  -20.7200 C.3    16  DA16        0.0865
    319  C1'        6.6690    3.4110  -20.0440 C.3    16  DA16        0.2094
    320  N9         6.7010    2.6570  -18.6490 N.ar   16  DA16       -0.2714
    321  C8         6.5310    1.3210  -18.3920 C.ar   16  DA16        0.1815
    322  N7         6.7570    0.9900  -17.1420 N.ar   16  DA16       -0.2193
    323  C5         7.1000    2.1900  -16.5390 C.ar   16  DA16        0.1518
    324  C6         7.4550    2.5160  -15.2180 C.ar   16  DA16        0.1919
    325  N6         7.5250    1.6230  -14.2290 N.pl3  16  DA16       -0.1054
    326  N1         7.7400    3.8080  -14.9470 N.ar   16  DA16       -0.2040
    327  C2         7.6690    4.7030  -15.9390 C.ar   16  DA16        0.2016
    328  N3         7.3470    4.5180  -17.2170 N.ar   16  DA16       -0.2048
    329  C4         7.0710    3.2250  -17.4540 C.ar   16  DA16        0.1691
    330  P         10.4730    1.3090  -22.2630 P.3    17  DG17        0.2141
    331  OP1       10.4070    1.7340  -23.6880 O.2    17  DG17       -0.5172
    332  OP2       10.5650   -0.1090  -21.8300 O.3    17  DG17       -0.4373
    333  O5'       11.7050    2.0090  -21.5190 O.3    17  DG17       -0.3114
    334  C5'       11.9670    3.3800  -21.7140 C.3    17  DG17        0.1811
    335  C4'       12.3390    4.0120  -20.3880 C.3    17  DG17        0.1746
    336  O4'       11.2870    3.7740  -19.4210 O.3    17  DG17       -0.3327
    337  C3'       13.5500    3.4400  -19.6750 C.3    17  DG17        0.1558
    338  O3'       14.7520    3.8620  -20.3010 O.3    17  DG17       -0.3138
    339  C2'       13.3460    4.1710  -18.3590 C.3    17  DG17        0.0865
    340  C1'       11.8540    3.9610  -18.1380 C.3    17  DG17        0.2093
    341  N9        11.5700    2.8030  -17.2620 N.ar   17  DG17       -0.2728
    342  C8        10.6950    1.8030  -17.6100 C.ar   17  DG17        0.1814
    343  N7        10.4640    0.9600  -16.6400 N.ar   17  DG17       -0.2177
    344  C5        11.2280    1.4290  -15.5880 C.ar   17  DG17        0.1711
    345  C6        11.3900    0.9300  -14.2700 C.2    17  DG17        0.2985
    346  O6        10.8650   -0.0670  -13.7590 O.2    17  DG17       -0.2655
    347  N1        12.2640    1.7130  -13.5210 N.am   17  DG17       -0.1042
    348  C2        12.9030    2.8380  -13.9840 C.1    17  DG17        0.1460
    349  N2        13.7080    3.4610  -13.1130 N.2    17  DG17       -0.0033
    350  N3        12.7630    3.3130  -15.2060 N.pl3  17  DG17       -0.1259
    351  C4        11.9190    2.5690  -15.9520 C.ar   17  DG17        0.1688
    352  P         16.1920    2.9640  -20.2320 P.3    18  DA18        0.2141
    353  OP1       17.1400    3.7780  -21.0310 O.2    18  DA18       -0.5172
    354  OP2       16.2640    1.4820  -20.2270 O.3    18  DA18       -0.4373
    355  O5'       16.2220    3.3800  -18.6850 O.3    18  DA18       -0.3114
    356  C5'       17.4020    3.4410  -17.9070 C.3    18  DA18        0.1811
    357  C4'       17.0620    3.3550  -16.4470 C.3    18  DA18        0.1746
    358  O4'       15.6880    2.9260  -16.2850 O.3    18  DA18       -0.3327
    359  C3'       17.8430    2.2950  -15.7040 C.3    18  DA18        0.1558
    360  O3'       19.1440    2.7120  -15.3610 O.3    18  DA18       -0.3138
    361  C2'       16.9560    1.9730  -14.5160 C.3    18  DA18        0.0865
    362  C1'       15.5830    2.0570  -15.1730 C.3    18  DA18        0.2094
    363  N9        15.2830    0.6990  -15.5340 N.ar   18  DA18       -0.2714
    364  C8        14.9960    0.4020  -16.8410 C.ar   18  DA18        0.1815
    365  N7        14.4570   -0.7820  -17.0080 N.ar   18  DA18       -0.2193
    366  C5        14.3870   -1.2990  -15.7240 C.ar   18  DA18        0.1518
    367  C6        13.9110   -2.5230  -15.2220 C.ar   18  DA18        0.1919
    368  N6        13.3950   -3.4860  -15.9890 N.pl3  18  DA18       -0.1054
    369  N1        13.9860   -2.7250  -13.8890 N.ar   18  DA18       -0.2040
    370  C2        14.5020   -1.7580  -13.1210 C.ar   18  DA18        0.2016
    371  N3        14.9800   -0.5680  -13.4760 N.ar   18  DA18       -0.2048
    372  C4        14.8920   -0.3990  -14.8060 C.ar   18  DA18        0.1691
    373  P         20.1060    1.7000  -15.8440 P.3    19  DT19        0.2141
    374  OP1       21.1730    2.7250  -15.7830 O.3    19  DT19       -0.4373
    375  OP2       19.9720    0.8280  -17.0330 O.2    19  DT19       -0.5172
    376  O5'       20.2710    0.6810  -14.6240 O.3    19  DT19       -0.3114
    377  C5'       19.8350    1.1050  -13.3390 C.3    19  DT19        0.1811
    378  C4'       19.6410   -0.0590  -12.4020 C.3    19  DT19        0.1746
    379  O4'       18.3390   -0.6560  -12.6110 O.3    19  DT19       -0.3327
    380  C3'       20.6300   -1.1960  -12.5760 C.3    19  DT19        0.1558
    381  O3'       21.8320   -0.9320  -11.8750 O.3    19  DT19       -0.3138
    382  C2'       19.8530   -2.4200  -12.0950 C.3    19  DT19        0.0866
    383  C1'       18.4180   -2.0560  -12.4760 C.3    19  DT19        0.2106
    384  N1        18.0200   -2.6650  -13.6290 N.ar   19  DT19       -0.2559
    385  C2        17.5030   -3.9400  -13.5050 C.ar   19  DT19        0.3545
    386  O2        17.1970   -4.4320  -12.4330 O.2    19  DT19       -0.2443
    387  N3        17.3570   -4.6260  -14.6870 N.ar   19  DT19       -0.1533
    388  C4        17.6700   -4.1730  -15.9520 C.ar   19  DT19        0.2804
    389  O4        17.4810   -4.9060  -16.9200 O.2    19  DT19       -0.2654
    390  C5        18.2020   -2.8410  -15.9980 C.ar   19  DT19        0.0534
    391  C6        18.3540   -2.1520  -14.8630 C.ar   19  DT19        0.0824
    392  C7        18.5740   -2.2590  -17.3300 C.3    19  DT19        0.0377
    393  P         23.1280   -2.0240  -11.7830 P.3    20  DG20        0.2141
    394  OP1       24.2380   -1.3690  -11.0460 O.3    20  DG20       -0.4373
    395  OP2       23.2680   -2.2310  -13.2400 O.2    20  DG20       -0.5172
    396  O5'       22.7120   -3.4140  -11.0790 O.3    20  DG20       -0.3114
    397  C5'       21.5300   -3.3850  -10.2500 C.3    20  DG20        0.1811
    398  C4'       21.1410   -4.7570   -9.7560 C.3    20  DG20        0.1746
    399  O4'       19.8220   -5.0550  -10.2500 O.3    20  DG20       -0.3327
    400  C3'       22.0600   -5.9010  -10.1980 C.3    20  DG20        0.1558
    401  O3'       23.2190   -6.0040   -9.3620 O.3    20  DG20       -0.3138
    402  C2'       21.0950   -7.0760  -10.1540 C.3    20  DG20        0.0865
    403  C1'       19.7810   -6.4300  -10.4740 C.3    20  DG20        0.2094
    404  N9        19.8700   -6.5120  -11.9160 N.ar   20  DG20       -0.2713
    405  C8        20.2040   -5.4750  -12.7530 C.ar   20  DG20        0.1816
    406  N7        20.2180   -5.8140  -14.0130 N.ar   20  DG20       -0.2173
    407  C5        19.8710   -7.1520  -14.0120 C.ar   20  DG20        0.1748
    408  C6        19.7220   -8.0680  -15.0850 C.ar   20  DG20        0.3023
    409  O6        19.8740   -7.8620  -16.2960 O.2    20  DG20       -0.2633
    410  N1        19.3580   -9.3360  -14.6400 N.ar   20  DG20       -0.1709
    411  C2        19.1620   -9.6800  -13.3240 C.ar   20  DG20        0.2606
    412  N2        18.8140  -10.9520  -13.0900 N.pl3  20  DG20       -0.0859
    413  N3        19.2980   -8.8400  -12.3160 N.ar   20  DG20       -0.1918
    414  C4        19.6510   -7.6030  -12.7250 C.ar   20  DG20        0.1722
    415  P         23.9810   -7.4240   -9.1530 P.3    21  DC21        0.2141
    416  OP1       25.0650   -7.6770   -8.1760 O.3    21  DC21       -0.4373
    417  OP2       24.2710   -6.7870  -10.4560 O.2    21  DC21       -0.5172
    418  O5'       23.2930   -8.8070   -9.5830 O.3    21  DC21       -0.3114
    419  C5'       22.7860   -9.7360   -8.6370 C.3    21  DC21        0.1811
    420  C4'       22.6990  -11.1170   -9.2300 C.3    21  DC21        0.1746
    421  O4'       21.5910  -11.1740  -10.1640 O.3    21  DC21       -0.3327
    422  C3'       23.9060  -11.5340  -10.0590 C.3    21  DC21        0.1558
    423  O3'       25.0330  -11.9710   -9.3090 O.3    21  DC21       -0.3138
    424  C2'       23.3200  -12.5850  -10.9910 C.3    21  DC21        0.0866
    425  C1'       21.9560  -11.9600  -11.2770 C.3    21  DC21        0.2106
    426  N1        21.9310  -10.8130  -12.5190 N.ar   21  DC21       -0.2556
    427  C2        21.8830  -11.3430  -13.8140 C.ar   21  DC21        0.3531
    428  O2        21.7850  -12.5750  -13.9520 O.2    21  DC21       -0.2443
    429  N3        21.9460  -10.5020  -14.8740 N.ar   21  DC21       -0.1739
    430  C4        22.0520   -9.1880  -14.6770 C.ar   21  DC21        0.1759
    431  N4        22.1110   -8.3980  -15.7510 N.pl3  21  DC21       -0.1070
    432  C5        22.1020   -8.6310  -13.3730 C.ar   21  DC21        0.0566
    433  C6        22.0400   -9.4650  -12.3290 C.ar   21  DC21        0.0849
    434  P         26.3810  -11.3930   -9.7370 P.3    22  DG22        0.2141
    435  OP1       27.1420  -11.9390   -8.6610 O.3    22  DG22       -0.4373
    436  OP2       26.3760   -9.9740   -9.9980 O.2    22  DG22       -0.5172
    437  O5'       26.7500  -12.0150  -11.1380 O.3    22  DG22       -0.3114
    438  C5'       26.8700  -13.4400  -11.2850 C.3    22  DG22        0.1811
    439  C4'       27.0540  -13.7830  -12.7240 C.3    22  DG22        0.1746
    440  O4'       25.8760  -13.4290  -13.4670 O.3    22  DG22       -0.3327
    441  C3'       28.1700  -13.0300  -13.4500 C.3    22  DG22        0.1558
    442  O3'       29.3730  -13.7340  -13.1930 O.3    22  DG22       -0.3138
    443  C2'       27.7710  -13.2330  -14.9070 C.3    22  DG22        0.0865
    444  C1'       26.2360  -13.1470  -14.8290 C.3    22  DG22        0.2094
    445  N9        25.7700  -11.8340  -15.1830 N.ar   22  DG22       -0.2713
    446  C8        25.3690  -10.8270  -14.3390 C.ar   22  DG22        0.1816
    447  N7        25.1490   -9.6970  -14.9550 N.ar   22  DG22       -0.2173
    448  C5        25.4180   -9.9710  -16.2830 C.ar   22  DG22        0.1748
    449  C6        25.3590   -9.1370  -17.4280 C.ar   22  DG22        0.3023
    450  O6        25.0420   -7.9420  -17.4900 O.2    22  DG22       -0.2633
    451  N1        25.7160   -9.8180  -18.5880 N.ar   22  DG22       -0.1709
    452  C2        26.0840  -11.1410  -18.6380 C.ar   22  DG22        0.2606
    453  N2        26.3930  -11.6230  -19.8500 N.pl3  22  DG22       -0.0859
    454  N3        26.1450  -11.9290  -17.5830 N.ar   22  DG22       -0.1918
    455  C4        25.8040  -11.2880  -16.4450 C.ar   22  DG22        0.1722
    456  P         30.8670  -12.9090  -13.1590 P.3    23  DA23        0.2141
    457  OP1       31.7050  -13.2440  -11.9850 O.3    23  DA23       -0.4373
    458  OP2       30.6600  -11.4900  -13.5280 O.2    23  DA23       -0.5172
    459  O5'       31.4220  -13.5990  -14.5010 O.3    23  DA23       -0.3114
    460  C5'       32.5410  -13.1000  -15.2310 C.3    23  DA23        0.1811
    461  C4'       32.3430  -13.2120  -16.7270 C.3    23  DA23        0.1746
    462  O4'       30.9740  -12.8460  -17.0530 O.3    23  DA23       -0.3327
    463  C3'       33.1980  -12.2910  -17.5950 C.3    23  DA23        0.1558
    464  O3'       34.5030  -12.7790  -17.8720 O.3    23  DA23       -0.3138
    465  C2'       32.3510  -12.0990  -18.8480 C.3    23  DA23        0.0865
    466  C1'       30.9310  -12.1350  -18.2730 C.3    23  DA23        0.2094
    467  N9        30.4630  -10.7240  -17.9380 N.ar   23  DA23       -0.2714
    468  C8        30.3670  -10.1710  -16.6880 C.ar   23  DA23        0.1815
    469  N7        29.5320   -9.1610  -16.6180 N.ar   23  DA23       -0.2193
    470  C5        29.0470   -9.0420  -17.9110 C.ar   23  DA23        0.1518
    471  C6        28.1230   -8.1590  -18.4980 C.ar   23  DA23        0.1919
    472  N6        27.4990   -7.1890  -17.8260 N.pl3  23  DA23       -0.1054
    473  N1        27.8610   -8.3100  -19.8140 N.ar   23  DA23       -0.2040
    474  C2        28.4870   -9.2830  -20.4860 C.ar   23  DA23        0.2016
    475  N3        29.3730  -10.1740  -20.0450 N.ar   23  DA23       -0.2048
    476  C4        29.6120   -9.9970  -18.7350 C.ar   23  DA23        0.1691
    477  P         35.6100  -11.7980  -18.1100 P.3    24  DT24        0.2141
    478  OP1       36.9570  -12.1650  -18.5800 O.2    24  DT24       -0.5172
    479  OP2       35.4500  -10.5680  -17.3030 O.3    24  DT24       -0.4373
    480  O5'       34.6410  -11.7320  -19.3620 O.3    24  DT24       -0.3114
    481  C5'       35.0680  -12.0220  -20.6370 C.3    24  DT24        0.1811
    482  C4'       34.4310  -11.0070  -21.5240 C.3    24  DT24        0.1746
    483  O4'       33.0620  -10.7880  -21.1300 O.3    24  DT24       -0.3327
    484  C3'       35.0030   -9.6310  -21.3750 C.3    24  DT24        0.1558
    485  O3'       36.2900   -9.5600  -21.9760 O.3    24  DT24       -0.3138
    486  C2'       33.9230   -8.8080  -22.0670 C.3    24  DT24        0.0866
    487  C1'       32.6790   -9.4860  -21.5340 C.3    24  DT24        0.2106
    488  N1        32.0810   -8.7760  -20.5580 N.ar   24  DT24       -0.2559
    489  C2        31.2300   -7.7230  -20.8350 C.ar   24  DT24        0.3545
    490  O2        30.8910   -7.4230  -21.9660 O.2    24  DT24       -0.2443
    491  N3        30.7890   -7.0280  -19.7350 N.ar   24  DT24       -0.1533
    492  C4        31.1060   -7.2760  -18.4160 C.ar   24  DT24        0.2804
    493  O4        30.6290   -6.5640  -17.5350 O.2    24  DT24       -0.2654
    494  C5        31.9950   -8.3840  -18.2100 C.ar   24  DT24        0.0534
    495  C6        32.4390   -9.0770  -19.2620 C.ar   24  DT24        0.0824
    496  C7        32.4000   -8.7330  -16.8090 C.3    24  DT24        0.0377
    497  P         37.3480   -8.2770  -21.6150 P.3    25  DC25        0.2141
    498  OP1       38.7850   -8.7120  -21.7290 O.2    25  DC25       -0.5172
    499  OP2       36.8540   -7.9740  -20.2200 O.3    25  DC25       -0.4373
    500  O5'       36.9560   -6.9800  -22.5060 O.3    25  DC25       -0.3114
    501  C5'       36.9540   -7.3770  -23.9210 C.3    25  DC25        0.1811
    502  C4'       35.8640   -6.5470  -24.5690 C.3    25  DC25        0.1746
    503  O4'       34.6030   -6.8080  -23.9850 O.3    25  DC25       -0.3327
    504  C3'       36.0500   -5.0460  -24.4000 C.3    25  DC25        0.1558
    505  O3'       37.0740   -4.5360  -25.2370 O.3    25  DC25       -0.3138
    506  C2'       34.6530   -4.5460  -24.7170 C.3    25  DC25        0.0866
    507  C1'       33.8030   -5.6390  -24.0750 C.3    25  DC25        0.2106
    508  N1        33.4530   -5.1850  -22.7020 N.ar   25  DC25       -0.2556
    509  C2        32.4430   -4.2500  -22.4470 C.ar   25  DC25        0.3531
    510  O2        31.8880   -3.6910  -23.4090 O.2    25  DC25       -0.2443
    511  N3        32.1010   -3.9810  -21.1640 N.ar   25  DC25       -0.1739
    512  C4        32.7240   -4.6040  -20.1640 C.ar   25  DC25        0.1759
    513  N4        32.3540   -4.3080  -18.9160 N.pl3  25  DC25       -0.1070
    514  C5        33.7500   -5.5550  -20.4010 C.ar   25  DC25        0.0566
    515  C6        34.0850   -5.8170  -21.6690 C.ar   25  DC25        0.0849
    516  P         37.8350   -3.1130  -24.9040 P.3    26  DT26        0.2141
    517  OP1       38.9100   -2.4250  -25.6620 O.2    26  DT26       -0.5172
    518  OP2       37.9960   -3.3460  -23.4440 O.3    26  DT26       -0.4373
    519  O5'       36.4760   -2.3020  -25.1290 O.3    26  DT26       -0.3114
    520  C5'       36.0270   -1.9320  -26.4520 C.3    26  DT26        0.1811
    521  C4'       34.5530   -1.5580  -26.4360 C.3    26  DT26        0.1746
    522  O4'       33.8430   -2.4350  -25.5140 O.3    26  DT26       -0.3327
    523  C3'       34.1690   -0.1600  -25.9660 C.3    26  DT26        0.1558
    524  O3'       34.2490    0.8060  -27.0120 O.3    26  DT26       -0.3138
    525  C2'       32.7180   -0.3430  -25.5360 C.3    26  DT26        0.0866
    526  C1'       32.7400   -1.7460  -24.9440 C.3    26  DT26        0.2106
    527  N1        32.8940   -1.6480  -23.5210 N.ar   26  DT26       -0.2559
    528  C2        31.8320   -1.1340  -22.8020 C.ar   26  DT26        0.3545
    529  O2        30.8160   -0.7130  -23.3270 O.2    26  DT26       -0.2443
    530  N3        32.0010   -1.1270  -21.4390 N.ar   26  DT26       -0.1533
    531  C4        33.1020   -1.5740  -20.7380 C.ar   26  DT26        0.2804
    532  O4        33.1080   -1.5040  -19.5110 O.2    26  DT26       -0.2654
    533  C5        34.1630   -2.0930  -21.5550 C.ar   26  DT26        0.0534
    534  C6        34.0240   -2.1110  -22.8830 C.ar   26  DT26        0.0824
    535  C7        35.4040   -2.6040  -20.8860 C.3    26  DT26        0.0377
    536  P         34.1110    2.5210  -26.6750 P.3    27  DG27        0.2141
    537  OP1       34.0240    3.4810  -27.8110 O.2    27  DG27       -0.5172
    538  OP2       35.2980    2.5530  -25.7890 O.3    27  DG27       -0.4373
    539  O5'       32.8180    2.7070  -25.7710 O.3    27  DG27       -0.3114
    540  C5'       31.4920    2.5450  -26.3230 C.3    27  DG27        0.1812
    541  C4'       30.4740    3.3270  -25.5030 C.3    27  DG27        0.1795
    542  O4'       30.2000    2.6570  -24.2390 O.3    27  DG27       -0.3153
    543  C3'       30.9040    4.7370  -25.1450 C.3    27  DG27        0.1883
    544  O3'       29.8420    5.6850  -25.3840 O.3    27  DG27       -0.2202
    545  C2'       31.5270    4.5840  -23.7460 C.3    27  DG27        0.1155
    546  C1'       30.8430    3.3280  -23.1710 C.3    27  DG27        0.2913
    547  N9        31.0350    2.4590  -22.3190 N.pl3  27  DG27       -0.1297
    548  C8        32.3890    2.6850  -22.3750 C.2    27  DG27        0.2799
    549  N7        32.9240    2.8990  -21.2040 N.2    27  DG27       -0.2109
    550  C5        31.8650    2.8090  -20.3210 C.3    27  DG27        0.2908
    551  C6        31.8240    2.9510  -18.9100 C.2    27  DG27        0.2908
    552  O6        32.7600    3.1940  -18.1370 O.2    27  DG27       -0.2695
    553  N1        30.5370    2.7830  -18.4060 N.am   27  DG27       -0.0862
    554  C2        29.4260    2.5110  -19.1680 C.1    27  DG27        0.2356
    555  N2        28.2710    2.3810  -18.5030 N.2    27  DG27       -0.1204
    556  N3        29.4480    2.3760  -20.4800 N.2    27  DG27        0.0311
    557  C4        30.6870    2.5370  -20.9910 C.2    27  DG27        0.3507
    558  P         27.7460    5.1620  -24.1340 P.3    28  DG28        0.5411
    559  OP1       26.3750    4.9020  -24.6550 O.2    28  DG28       -0.2272
    560  OP2       28.2300    6.5640  -24.0010 O.2    28  DG28       -0.2272
    561  O5'       27.8780    4.4520  -22.7160 O.3    28  DG28       -0.2722
    562  C5'       26.7190    3.9710  -22.0260 C.3    28  DG28        0.1852
    563  C4'       26.1870    2.7400  -22.7150 C.3    28  DG28        0.1807
    564  O4'       27.2690    1.8080  -22.9700 O.3    28  DG28       -0.3149
    565  C3'       25.1480    1.9570  -21.9360 C.3    28  DG28        0.1974
    566  O3'       24.2460    1.3070  -22.8140 O.3    28  DG28       -0.3097
    567  C2'       25.9970    0.9730  -21.1360 C.3    28  DG28        0.2333
    568  C1'       27.2060    0.7370  -22.0460 C.3    28  DG28        0.2978
    569  N9        27.4990    0.5210  -20.2510 N.pl3  28  DG28       -0.2322
    570  C8        27.7170    0.9880  -18.9780 C.3    28  DG28        0.3630
    571  N7        28.6670    0.3500  -18.3500 N.2    28  DG28       -0.1958
    572  C5        29.1060   -0.5930  -19.2600 C.2    28  DG28        0.2335
    573  C6        30.1200   -1.5800  -19.1510 C.2    28  DG28        0.3672
    574  O6        30.8570   -1.8170  -18.1860 O.2    28  DG28       -0.2463
    575  N1        30.2400   -2.3340  -20.3150 N.am   28  DG28        0.0170
    576  C2        29.4770   -2.1590  -21.4450 C.2    28  DG28        0.5248
    577  N2        29.7400   -2.9830  -22.4680 N.pl3  28  DG28        0.1572
    578  N3        28.5310   -1.2480  -21.5610 N.2    28  DG28        0.0290
    579  C4        28.3960   -0.5040  -20.4420 C.2    28  DG28        0.3276
    580  P         23.0040    0.4990  -22.0840 P.3    29  DA29        0.2142
    581  OP1       22.0010    1.5430  -22.3960 O.2    29  DA29       -0.5172
    582  OP2       23.0570   -0.0940  -20.7270 O.3    29  DA29       -0.4373
    583  O5'       22.8650   -0.6630  -23.1590 O.3    29  DA29       -0.3114
    584  C5'       23.3320   -0.4250  -24.4970 C.3    29  DA29        0.1811
    585  C4'       24.5310   -1.2910  -24.8280 C.3    29  DA29        0.1746
    586  O4'       25.5890   -1.1740  -23.8370 O.3    29  DA29       -0.3327
    587  C3'       24.2860   -2.7810  -24.8620 C.3    29  DA29        0.1558
    588  O3'       23.5700   -3.1330  -26.0270 O.3    29  DA29       -0.3138
    589  C2'       25.7120   -3.3220  -24.8490 C.3    29  DA29        0.0865
    590  C1'       26.3750   -2.3650  -23.8560 C.3    29  DA29        0.2094
    591  N9        26.5220   -2.8610  -22.6370 N.ar   29  DA29       -0.2714
    592  C8        25.7990   -2.4100  -21.5640 C.ar   29  DA29        0.1815
    593  N7        26.1610   -2.9440  -20.4210 N.ar   29  DA29       -0.2193
    594  C5        27.1900   -3.8040  -20.7680 C.ar   29  DA29        0.1518
    595  C6        27.9980   -4.6680  -20.0080 C.ar   29  DA29        0.1919
    596  N6        27.8890   -4.8090  -18.6850 N.pl3  29  DA29       -0.1054
    597  N1        28.9340   -5.3890  -20.6620 N.ar   29  DA29       -0.2040
    598  C2        29.0430   -5.2460  -21.9880 C.ar   29  DA29        0.2016
    599  N3        28.3440   -4.4680  -22.8100 N.ar   29  DA29       -0.2048
    600  C4        27.4230   -3.7650  -22.1300 C.ar   29  DA29        0.1691
    601  P         22.2060   -4.5460  -26.1150 P.3    30  DT30        0.2141
    602  OP1       21.6270   -4.6890  -27.4850 O.2    30  DT30       -0.5172
    603  OP2       21.5100   -5.1310  -24.9390 O.3    30  DT30       -0.4373
    604  O5'       23.6750   -5.1370  -26.1120 O.3    30  DT30       -0.3114
    605  C5'       24.0560   -6.1200  -27.0320 C.3    30  DT30        0.1811
    606  C4'       25.0420   -7.0400  -26.3930 C.3    30  DT30        0.1746
    607  O4'       25.6330   -6.3720  -25.2570 O.3    30  DT30       -0.3327
    608  C3'       24.4680   -8.2530  -25.7250 C.3    30  DT30        0.1558
    609  O3'       24.0990   -9.1840  -26.6750 O.3    30  DT30       -0.3138
    610  C2'       25.5910   -8.6760  -24.8110 C.3    30  DT30        0.0866
    611  C1'       26.0080   -7.3240  -24.2760 C.3    30  DT30        0.2106
    612  N1        25.2920   -6.9780  -22.9700 N.ar   30  DT30       -0.2559
    613  C2        25.7330   -7.5670  -21.8000 C.ar   30  DT30        0.3545
    614  O2        26.5070   -8.5070  -21.7790 O.2    30  DT30       -0.2443
    615  N3        25.2320   -7.0120  -20.6460 N.ar   30  DT30       -0.1533
    616  C4        24.3550   -5.9530  -20.5480 C.ar   30  DT30        0.2804
    617  O4        23.9950   -5.5660  -19.4390 O.2    30  DT30       -0.2654
    618  C5        23.9430   -5.3970  -21.8060 C.ar   30  DT30        0.0534
    619  C6        24.4150   -5.9170  -22.9430 C.ar   30  DT30        0.0824
    620  C7        22.9880   -4.2400  -21.8050 C.3    30  DT30        0.0377
    621  P         22.6570   -9.5860  -26.5870 P.3    31  DA31        0.2141
    622  OP1       22.4150  -10.1770  -27.8770 O.2    31  DA31       -0.5172
    623  OP2       21.5740   -8.9240  -25.8520 O.3    31  DA31       -0.4373
    624  O5'       23.0980  -10.7590  -25.5770 O.3    31  DA31       -0.3114
    625  C5'       24.2220  -11.6070  -25.8200 C.3    31  DA31        0.1811
    626  C4'       24.5390  -12.4470  -24.6150 C.3    31  DA31        0.1746
    627  O4'       25.0850  -11.5850  -23.6020 O.3    31  DA31       -0.3327
    628  C3'       23.3710  -13.1590  -23.8910 C.3    31  DA31        0.1558
    629  O3'       22.9250  -14.3770  -24.4770 O.3    31  DA31       -0.3138
    630  C2'       24.0000  -13.4060  -22.5580 C.3    31  DA31        0.0865
    631  C1'       24.7080  -12.0730  -22.3060 C.3    31  DA31        0.2094
    632  N9        23.7760  -11.1410  -21.5910 N.ar   31  DA31       -0.2714
    633  C8        23.0950  -10.0520  -22.0700 C.ar   31  DA31        0.1815
    634  N7        22.3890   -9.4260  -21.1570 N.ar   31  DA31       -0.2193
    635  C5        22.6220  -10.1540  -20.0010 C.ar   31  DA31        0.1518
    636  C6        22.1620  -10.0050  -18.6810 C.ar   31  DA31        0.1919
    637  N6        21.3380   -9.0300  -18.2910 N.pl3  31  DA31       -0.1054
    638  N1        22.5830  -10.9040  -17.7660 N.ar   31  DA31       -0.2040
    639  C2        23.4100  -11.8800  -18.1570 C.ar   31  DA31        0.2016
    640  N3        23.9110  -12.1230  -19.3660 N.ar   31  DA31       -0.2048
    641  C4        23.4730  -11.2140  -20.2530 C.ar   31  DA31        0.1691
    642  P         21.3230  -14.9800  -24.2860 P.3    32  DT32        0.2141
    643  OP1       21.1990  -16.3040  -24.9470 O.2    32  DT32       -0.5172
    644  OP2       20.4630  -13.8530  -24.7320 O.3    32  DT32       -0.4373
    645  O5'       21.1060  -15.1760  -22.7150 O.3    32  DT32       -0.3114
    646  C5'       21.7180  -16.2590  -22.0170 C.3    32  DT32        0.1811
    647  C4'       21.2320  -16.3100  -20.5820 C.3    32  DT32        0.1746
    648  O4'       21.7470  -15.1670  -19.8490 O.3    32  DT32       -0.3327
    649  C3'       19.7260  -16.2120  -20.4000 C.3    32  DT32        0.1558
    650  O3'       19.0920  -17.4720  -20.5400 O.3    32  DT32       -0.3138
    651  C2'       19.5970  -15.6920  -18.9740 C.3    32  DT32        0.0866
    652  C1'       20.7820  -14.7330  -18.8970 C.3    32  DT32        0.2106
    653  N1        20.4390  -13.3470  -19.1970 N.ar   32  DT32       -0.2559
    654  C2        19.9700  -12.5320  -18.1840 C.ar   32  DT32        0.3545
    655  O2        19.8590  -12.9030  -17.0290 O.2    32  DT32       -0.2443
    656  N3        19.6310  -11.2580  -18.5740 N.ar   32  DT32       -0.1533
    657  C4        19.7130  -10.7300  -19.8450 C.ar   32  DT32        0.2804
    658  O4        19.3710   -9.5660  -20.0400 O.2    32  DT32       -0.2654
    659  C5        20.2080  -11.6390  -20.8410 C.ar   32  DT32        0.0534
    660  C6        20.5450  -12.8820  -20.4890 C.ar   32  DT32        0.0824
    661  C7        20.3330  -11.1590  -22.2570 C.3    32  DT32        0.0377
    662  P         17.3640  -17.5520  -20.8530 P.3    33  DT33        0.2141
    663  OP1       16.9430  -19.0220  -20.9550 O.3    33  DT33       -0.4373
    664  OP2       16.9310  -16.5750  -21.8920 O.2    33  DT33       -0.5172
    665  O5'       16.6970  -17.0340  -19.4860 O.3    33  DT33       -0.3114
    666  C5'       16.7640  -17.8270  -18.3150 C.3    33  DT33        0.1811
    667  C4'       16.3250  -17.0500  -17.0810 C.3    33  DT33        0.1746
    668  O4'       17.2430  -15.9000  -16.8480 O.3    33  DT33       -0.3327
    669  C3'       14.9090  -16.4840  -17.0840 C.3    33  DT33        0.1558
    670  O3'       14.5370  -16.4630  -15.7150 O.3    33  DT33       -0.3138
    671  C2'       15.1910  -15.0290  -17.5480 C.3    33  DT33        0.0866
    672  C1'       16.4640  -14.7310  -16.7490 C.3    33  DT33        0.2106
    673  N1        17.0300  -13.6280  -17.1530 N.ar   33  DT33       -0.2559
    674  C2        17.3080  -12.4970  -16.4080 C.ar   33  DT33        0.3545
    675  O2        17.4530  -12.5170  -15.1990 O.2    33  DT33       -0.2443
    676  N3        17.4080  -11.3340  -17.1330 N.ar   33  DT33       -0.1533
    677  C4        17.2620  -11.1910  -18.4970 C.ar   33  DT33        0.2804
    678  O4        17.3820  -10.0790  -19.0060 O.2    33  DT33       -0.2654
    679  C5        16.9740  -12.4100  -19.2000 C.ar   33  DT33        0.0534
    680  C6        16.8710  -13.5550  -18.5200 C.ar   33  DT33        0.0824
    681  C7        16.7970  -12.3590  -20.6890 C.3    33  DT33        0.0377
    682  P         13.3170  -16.8510  -15.2080 P.3    34  DA34        0.2141
    683  OP1       12.4210  -18.0080  -14.9390 O.3    34  DA34       -0.4373
    684  OP2       13.1290  -16.0570  -16.4420 O.2    34  DA34       -0.5172
    685  O5'       13.2530  -15.8720  -13.9540 O.3    34  DA34       -0.3114
    686  C5'       13.9730  -14.6560  -13.9670 C.3    34  DA34        0.1811
    687  C4'       14.0050  -14.0380  -12.5980 C.3    34  DA34        0.1746
    688  O4'       15.3080  -13.4070  -12.4380 O.3    34  DA34       -0.3327
    689  C3'       12.9720  -12.9300  -12.4040 C.3    34  DA34        0.1558
    690  O3'       11.8780  -13.3940  -11.6240 O.3    34  DA34       -0.3138
    691  C2'       13.7630  -11.8340  -11.6930 C.3    34  DA34        0.0865
    692  C1'       15.1470  -12.0080  -12.3180 C.3    34  DA34        0.2094
    693  N9        15.6320  -11.3540  -13.6790 N.ar   34  DA34       -0.2714
    694  C8        15.4600  -11.7060  -14.9930 C.ar   34  DA34        0.1815
    695  N7        15.6450  -10.7160  -15.8340 N.ar   34  DA34       -0.2193
    696  C5        15.9570   -9.6410  -15.0180 C.ar   34  DA34        0.1518
    697  C6        16.2640   -8.2970  -15.2990 C.ar   34  DA34        0.1919
    698  N6        16.3070   -7.7920  -16.5330 N.pl3  34  DA34       -0.1054
    699  N1        16.5280   -7.4830  -14.2540 N.ar   34  DA34       -0.2040
    700  C2        16.4850   -7.9910  -13.0170 C.ar   34  DA34        0.2016
    701  N3        16.2100   -9.2340  -12.6280 N.ar   34  DA34       -0.2048
    702  C4        15.9520  -10.0180  -13.6880 C.ar   34  DA34        0.1691
    703  P         10.5010  -12.6650  -11.7190 P.3    35  DT35        0.2141
    704  OP1        9.6420  -13.4310  -10.7840 O.3    35  DT35       -0.4373
    705  OP2        9.9370  -12.0990  -12.9660 O.2    35  DT35       -0.5172
    706  O5'       11.2070  -11.4840  -10.8980 O.3    35  DT35       -0.3114
    707  C5'       11.2200  -11.4900   -9.4810 C.3    35  DT35        0.1811
    708  C4'       12.3070  -10.5650   -8.9860 C.3    35  DT35        0.1746
    709  O4'       13.3000  -10.3500  -10.0150 O.3    35  DT35       -0.3327
    710  C3'       11.8040   -9.1740   -8.6710 C.3    35  DT35        0.1558
    711  O3'       11.2660   -9.1820   -7.3600 O.3    35  DT35       -0.3138
    712  C2'       13.0600   -8.3170   -8.8050 C.3    35  DT35        0.0866
    713  C1'       13.8080   -9.0300   -9.9230 C.3    35  DT35        0.2106
    714  N1        13.4820   -8.2890  -11.1600 N.ar   35  DT35       -0.2559
    715  C2        14.0940   -7.0780  -11.4170 C.ar   35  DT35        0.3545
    716  O2        14.8720   -6.5490  -10.6420 O.2    35  DT35       -0.2443
    717  N3        13.7630   -6.5020  -12.6200 N.ar   35  DT35       -0.1533
    718  C4        12.8990   -7.0060  -13.5710 C.ar   35  DT35        0.2804
    719  O4        12.7020   -6.3730  -14.6050 O.2    35  DT35       -0.2654
    720  C5        12.3030   -8.2660  -13.2300 C.ar   35  DT35        0.0534
    721  C6        12.6070   -8.8480  -12.0670 C.ar   35  DT35        0.0824
    722  C7        11.3480   -8.8960  -14.2000 C.3    35  DT35        0.0377
    723  P         10.3430   -8.4210   -7.1990 P.3    36  DT36        0.2141
    724  OP1        9.8240   -8.6870   -5.8390 O.3    36  DT36       -0.4373
    725  OP2        9.4130   -8.2840   -8.3420 O.2    36  DT36       -0.5172
    726  O5'       11.1870   -7.0560   -7.1880 O.3    36  DT36       -0.3114
    727  C5'       12.1440   -6.8520   -6.1530 C.3    36  DT36        0.1811
    728  C4'       13.0720   -5.6860   -6.4110 C.3    36  DT36        0.1746
    729  O4'       13.7210   -5.8340   -7.6990 O.3    36  DT36       -0.3327
    730  C3'       12.4380   -4.3010   -6.4370 C.3    36  DT36        0.1558
    731  O3'       12.3570   -3.7470   -5.1350 O.3    36  DT36       -0.3138
    732  C2'       13.3480   -3.4990   -7.3590 C.3    36  DT36        0.0866
    733  C1'       13.9300   -4.5690   -8.2900 C.3    36  DT36        0.2106
    734  N1        13.3950   -4.5870   -9.6600 N.ar   36  DT36       -0.2559
    735  C2        13.8630   -3.7330  -10.6400 C.ar   36  DT36        0.3545
    736  O2        14.7260   -2.8970  -10.4360 O.2    36  DT36       -0.2443
    737  N3        13.2810   -3.8900  -11.8740 N.ar   36  DT36       -0.1533
    738  C4        12.3000   -4.7970  -12.2190 C.ar   36  DT36        0.2804
    739  O4        11.8760   -4.8190  -13.3720 O.2    36  DT36       -0.2654
    740  C5        11.8660   -5.6480  -11.1470 C.ar   36  DT36        0.0534
    741  C6        12.4150   -5.5160   -9.9370 C.ar   36  DT36        0.0824
    742  C7        10.8010   -6.6680  -11.4220 C.3    36  DT36        0.0377
    743  P         11.6120   -2.6460   -4.8980 P.3    37  DT37        0.2141
    744  OP1       11.5840   -2.2640   -3.4630 O.3    37  DT37       -0.4373
    745  OP2       10.3360   -2.8630   -5.6220 O.2    37  DT37       -0.5172
    746  O5'       12.4600   -1.5550   -5.6960 O.3    37  DT37       -0.3114
    747  C5'       13.7890   -1.2020   -5.2800 C.3    37  DT37        0.1811
    748  C4'       14.3970   -0.2050   -6.2450 C.3    37  DT37        0.1746
    749  O4'       14.5740   -0.8240   -7.5500 O.3    37  DT37       -0.3327
    750  C3'       13.5760    1.0460   -6.5270 C.3    37  DT37        0.1558
    751  O3'       13.7440    2.0370   -5.5130 O.3    37  DT37       -0.3138
    752  C2'       14.1350    1.4870   -7.8730 C.3    37  DT37        0.0866
    753  C1'       14.3450    0.1380   -8.5670 C.3    37  DT37        0.2106
    754  N1        13.1660   -0.3070   -9.4100 N.ar   37  DT37       -0.2559
    755  C2        13.1470    0.1560  -10.7120 C.ar   37  DT37        0.3545
    756  O2        14.0320    0.8490  -11.1830 O.2    37  DT37       -0.2443
    757  N3        12.0500   -0.2220  -11.4480 N.ar   37  DT37       -0.1542
    758  C4        10.9930   -0.9990  -11.0220 C.ar   37  DT37        0.2678
    759  O4        10.0780   -1.2550  -11.8010 O.3    37  DT37       -0.3048
    760  C5        11.0850   -1.4400   -9.6580 C.ar   37  DT37        0.0523
    761  C6        12.1410   -1.0870   -8.9210 C.ar   37  DT37        0.0824
    762  C7         9.9830   -2.2910   -9.1000 C.3    37  DT37        0.0376
    763  P         12.7010    3.1810   -5.3960 P.3    38  DT38        0.2141
    764  OP1       12.9780    4.3170   -4.4910 O.3    38  DT38       -0.4373
    765  OP2       11.3250    2.6110   -5.4600 O.2    38  DT38       -0.5172
    766  O5'       13.1910    3.6140   -6.8520 O.3    38  DT38       -0.3114
    767  C5'       14.4460    4.2910   -7.0460 C.3    38  DT38        0.1811
    768  C4'       14.4060    5.1180   -8.3150 C.3    38  DT38        0.1744
    769  O4'       14.4490    4.2410   -9.4670 O.3    38  DT38       -0.3345
    770  C3'       13.1270    5.9090   -8.4930 C.3    38  DT38        0.1555
    771  O3'       13.1510    7.1570   -7.8250 O.3    38  DT38       -0.3139
    772  C2'       13.0170    6.0420  -10.0000 C.3    38  DT38        0.0839
    773  C1'       13.5360    4.6850  -10.4560 C.3    38  DT38        0.2027
    774  N1        12.3730    3.7400  -10.6540 N.pl3  38  DT38       -0.2064
    775  C2        11.8040    3.7460  -11.9140 C.2    38  DT38        0.3790
    776  O2        12.2220    4.4340  -12.8280 O.2    38  DT38       -0.2960
    777  N3        10.7210    2.9140  -12.0660 N.2    38  DT38       -0.3134
    778  C4        10.1630    2.0950  -11.1070 C.2    38  DT38        0.3289
    779  O4         9.1890    1.4030  -11.3940 O.2    38  DT38       -0.2522
    780  C5        10.8090    2.1460   -9.8250 C.2    38  DT38        0.0636
    781  C6        11.8640    2.9460   -9.6500 C.2    38  DT38        0.0740
    782  C7        10.2750    1.2910   -8.7140 C.3    38  DT38        0.0386
    783  P         11.7230    7.7920   -7.1650 P.3    39  DT39        0.2141
    784  OP1       11.7940    8.8790   -6.1650 O.3    39  DT39       -0.4373
    785  OP2       11.2150    6.4550   -6.7830 O.2    39  DT39       -0.5172
    786  O5'       10.7890    8.2540   -8.3860 O.3    39  DT39       -0.3114
    787  C5'       10.9890    9.5470   -8.9490 C.3    39  DT39        0.1811
    788  C4'       10.2660    9.7510  -10.2620 C.3    39  DT39        0.1746
    789  O4'       10.6270    8.7110  -11.2040 O.3    39  DT39       -0.3327
    790  C3'        8.7440    9.7370  -10.2120 C.3    39  DT39        0.1558
    791  O3'        8.2270   11.0210   -9.9070 O.3    39  DT39       -0.3138
    792  C2'        8.3370    9.2580  -11.6000 C.3    39  DT39        0.0866
    793  C1'        9.5300    8.3990  -12.0350 C.3    39  DT39        0.2106
    794  N1         9.3400    6.8580  -11.9280 N.ar   39  DT39       -0.2559
    795  C2         8.8260    6.2590  -13.0620 C.ar   39  DT39        0.3545
    796  O2         8.6160    6.8670  -14.0970 O.2    39  DT39       -0.2443
    797  N3         8.5640    4.9160  -12.9420 N.ar   39  DT39       -0.1533
    798  C4         8.7600    4.1290  -11.8260 C.ar   39  DT39        0.2805
    799  O4         8.4760    2.9340  -11.8710 O.3    39  DT39       -0.2643
    800  C5         9.2950    4.8240  -10.6890 C.ar   39  DT39        0.0534
    801  C6         9.5590    6.1300  -10.7790 C.ar   39  DT39        0.0824
    802  C7         9.5430    4.0550   -9.4250 C.3    39  DT39        0.0377
    803  P          6.7230   11.2650   -9.3140 P.3    40  DG40        0.2141
    804  OP1        6.5080   12.4130   -8.4060 O.3    40  DG40       -0.4373
    805  OP2        6.6330    9.8750   -8.8130 O.2    40  DG40       -0.5172
    806  O5'        5.6730   11.3280  -10.5200 O.3    40  DG40       -0.3114
    807  C5'        5.8480   12.2980  -11.5430 C.3    40  DG40        0.1811
    808  C4'        5.3010   11.8110  -12.8580 C.3    40  DG40        0.1746
    809  O4'        6.0300   10.6280  -13.2790 O.3    40  DG40       -0.3327
    810  C3'        3.8550   11.3410  -12.8390 C.3    40  DG40        0.1558
    811  O3'        2.9090   12.3950  -12.8500 O.3    40  DG40       -0.3138
    812  C2'        3.7970   10.4440  -14.0680 C.3    40  DG40        0.0865
    813  C1'        5.1630    9.7630  -13.9900 C.3    40  DG40        0.2094
    814  N9         5.0720    8.4160  -13.3540 N.ar   40  DG40       -0.2713
    815  C8         5.4150    8.0730  -12.0690 C.ar   40  DG40        0.1816
    816  N7         5.2700    6.8010  -11.8190 N.ar   40  DG40       -0.2173
    817  C5         4.8060    6.2680  -13.0070 C.ar   40  DG40        0.1748
    818  C6         4.4640    4.9350  -13.3500 C.ar   40  DG40        0.3023
    819  O6         4.5090    3.9250  -12.6360 O.2    40  DG40       -0.2633
    820  N1         4.0330    4.8310  -14.6700 N.ar   40  DG40       -0.1709
    821  C2         3.9440    5.8820  -15.5510 C.ar   40  DG40        0.2606
    822  N2         3.5080    5.5850  -16.7820 N.pl3  40  DG40       -0.0859
    823  N3         4.2570    7.1260  -15.2460 N.ar   40  DG40       -0.1918
    824  C4         4.6770    7.2510  -13.9690 C.ar   40  DG40        0.1722
    825  P          1.3930   12.2470  -11.9890 P.3    41  DA41        0.2141
    826  OP1        0.7430   13.5130  -11.5940 O.2    41  DA41       -0.5172
    827  OP2        1.7030   11.2270  -10.9520 O.3    41  DA41       -0.4373
    828  O5'        0.5160   11.5210  -13.1050 O.3    41  DA41       -0.3114
    829  C5'        0.1310   12.1850  -14.3300 C.3    41  DA41        0.1811
    830  C4'       -0.4950   11.1820  -15.2750 C.3    41  DA41        0.1746
    831  O4'        0.4770   10.1480  -15.5580 O.3    41  DA41       -0.3327
    832  C3'       -1.7110   10.4510  -14.7200 C.3    41  DA41        0.1558
    833  O3'       -2.9000   11.1530  -15.0720 O.3    41  DA41       -0.3138
    834  C2'       -1.6680    9.1010  -15.4210 C.3    41  DA41        0.0865
    835  C1'       -0.1670    8.8900  -15.6100 C.3    41  DA41        0.2094
    836  N9         0.4990    8.0650  -14.4980 N.ar   41  DA41       -0.2714
    837  C8         1.3050    8.4920  -13.4760 C.ar   41  DA41        0.1815
    838  N7         1.8150    7.5170  -12.7610 N.ar   41  DA41       -0.2193
    839  C5         1.3090    6.3720  -13.3540 C.ar   41  DA41        0.1518
    840  C6         1.4740    5.0050  -13.0660 C.ar   41  DA41        0.1919
    841  N6         2.2280    4.5470  -12.0640 N.pl3  41  DA41       -0.1054
    842  N1         0.8280    4.1170  -13.8510 N.ar   41  DA41       -0.2040
    843  C2         0.0730    4.5770  -14.8550 C.ar   41  DA41        0.2016
    844  N3        -0.1580    5.8350  -15.2250 N.ar   41  DA41       -0.2048
    845  C4         0.4960    6.6930  -14.4240 C.ar   41  DA41        0.1691
    846  P         -4.3300   11.0520  -14.0710 P.3    42  DT42        0.2141
    847  OP1       -5.5980   11.6880  -14.5100 O.2    42  DT42       -0.5172
    848  OP2       -3.6200   11.5810  -12.8770 O.3    42  DT42       -0.4373
    849  O5'       -4.6130    9.5060  -13.8280 O.3    42  DT42       -0.3114
    850  C5'       -5.2180    8.7020  -14.8540 C.3    42  DT42        0.1812
    851  C4'       -5.2350    7.2540  -14.4370 C.3    42  DT42        0.1778
    852  O4'       -3.8720    6.7740  -14.3010 O.3    42  DT42       -0.3213
    853  C3'       -5.8840    6.9690  -13.0920 C.3    42  DT42        0.1741
    854  O3'       -7.3060    6.8600  -13.2230 O.3    42  DT42       -0.3121
    855  C2'       -5.2170    5.6600  -12.6750 C.3    42  DT42        0.1575
    856  C1'       -3.8090    5.8140  -13.2600 C.3    42  DT42        0.2413
    857  N1        -2.6760    6.2610  -12.3940 N.ar   42  DT42       -0.2438
    858  C2        -1.8650    5.3130  -11.7990 C.ar   42  DT42        0.3556
    859  O2        -1.9920    4.1170  -11.9880 O.2    42  DT42       -0.2442
    860  N3        -0.8930    5.8190  -10.9690 N.ar   42  DT42       -0.1533
    861  C4        -0.6570    7.1470  -10.6820 C.ar   42  DT42        0.2804
    862  O4         0.2560    7.4470   -9.9160 O.2    42  DT42       -0.2654
    863  C5        -1.5420    8.0690  -11.3370 C.ar   42  DT42        0.0535
    864  C6        -2.4950    7.6040  -12.1490 C.ar   42  DT42        0.0839
    865  C7        -1.3660    9.5380  -11.0880 C.3    42  DT42        0.0377
    866  P         -8.2840    7.5020  -11.8740 P.3    43  DA43        0.2141
    867  OP1       -9.1500    8.4660  -12.5960 O.2    43  DA43       -0.5172
    868  OP2       -8.1700    7.5780  -10.4000 O.3    43  DA43       -0.4373
    869  O5'       -8.7110    5.9990  -12.2270 O.3    43  DA43       -0.3114
    870  C5'       -9.8610    5.7120  -13.0220 C.3    43  DA43        0.1811
    871  C4'       -9.8160    4.2880  -13.5470 C.3    43  DA43        0.1744
    872  O4'       -8.7850    4.1670  -14.5590 O.3    43  DA43       -0.3349
    873  C3'       -9.4620    3.2330  -12.5070 C.3    43  DA43        0.1555
    874  O3'      -10.6160    2.8100  -11.7980 O.3    43  DA43       -0.3139
    875  C2'       -8.8570    2.1220  -13.3610 C.3    43  DA43        0.0835
    876  C1'       -8.1220    2.9210  -14.4380 C.3    43  DA43        0.1970
    877  N9        -6.7360    3.1990  -14.1860 N.pl3  43  DA43       -0.2535
    878  C8        -6.1630    4.3540  -13.7210 C.3    43  DA43        0.1795
    879  N7        -4.8700    4.2600  -13.5240 N.pl3  43  DA43       -0.2950
    880  C5        -4.5730    2.9550  -13.8820 C.ar   43  DA43        0.1058
    881  C6        -3.3690    2.2290  -13.9000 C.ar   43  DA43        0.1862
    882  N6        -2.1920    2.7420  -13.5340 N.pl3  43  DA43       -0.1058
    883  N1        -3.4180    0.9440  -14.3120 N.ar   43  DA43       -0.2044
    884  C2        -4.5980    0.4320  -14.6790 C.ar   43  DA43        0.2014
    885  N3        -5.7950    1.0140  -14.7070 N.ar   43  DA43       -0.2076
    886  C4        -5.7130    2.2890  -14.2910 C.ar   43  DA43        0.1514
    887  P        -10.5070    2.3710  -10.1280 P.3    44  DC44        0.2141
    888  OP1      -11.8130    2.0700   -9.5050 O.2    44  DC44       -0.5172
    889  OP2       -9.5210    3.2360   -9.4390 O.3    44  DC44       -0.4373
    890  O5'       -9.7950    0.9870  -10.4520 O.3    44  DC44       -0.3114
    891  C5'      -10.5890   -0.1350  -10.7730 C.3    44  DC44        0.1811
    892  C4'       -9.7240   -1.1600  -11.4650 C.3    44  DC44        0.1746
    893  O4'       -8.7100   -0.4860  -12.2520 O.3    44  DC44       -0.3327
    894  C3'       -8.8780   -1.9960  -10.5320 C.3    44  DC44        0.1558
    895  O3'       -9.6560   -2.9780   -9.9000 O.3    44  DC44       -0.3138
    896  C2'       -7.8890   -2.5760  -11.5300 C.3    44  DC44        0.0866
    897  C1'       -7.5500   -1.3070  -12.3090 C.3    44  DC44        0.2106
    898  N1        -6.3840   -0.7100  -11.7450 N.ar   44  DC44       -0.2556
    899  C2        -5.0780   -1.2010  -11.8650 C.ar   44  DC44        0.3531
    900  O2        -4.9100   -2.3520  -12.3010 O.2    44  DC44       -0.2443
    901  N3        -4.0410   -0.4100  -11.5010 N.ar   44  DC44       -0.1739
    902  C4        -4.2690    0.8180  -11.0360 C.ar   44  DC44        0.1759
    903  N4        -3.2150    1.5610  -10.6900 N.pl3  44  DC44       -0.1070
    904  C5        -5.5840    1.3340  -10.9070 C.ar   44  DC44        0.0566
    905  C6        -6.6060    0.5500  -11.2680 C.ar   44  DC44        0.0849
    906  P         -9.2490   -3.2850   -8.3980 P.3    45  DC45        0.2141
    907  OP1      -10.3180   -4.1250   -7.8230 O.2    45  DC45       -0.5172
    908  OP2       -9.0160   -1.9410   -7.8050 O.3    45  DC45       -0.4373
    909  O5'       -7.8780   -4.1190   -8.3590 O.3    45  DC45       -0.3114
    910  C5'       -7.6960   -5.3180   -9.1210 C.3    45  DC45        0.1811
    911  C4'       -6.2280   -5.7430   -9.1710 C.3    45  DC45        0.1746
    912  O4'       -5.4800   -4.8800  -10.0740 O.3    45  DC45       -0.3327
    913  C3'       -5.4260   -5.6700   -7.8730 C.3    45  DC45        0.1558
    914  O3'       -5.5960   -6.8370   -7.0640 O.3    45  DC45       -0.3138
    915  C2'       -4.0000   -5.6140   -8.4100 C.3    45  DC45        0.0866
    916  C1'       -4.1760   -4.6330   -9.5640 C.3    45  DC45        0.2106
    917  N1        -4.0840   -3.1310   -9.1830 N.ar   45  DC45       -0.2556
    918  C2        -2.7960   -2.6410   -8.9360 C.ar   45  DC45        0.3531
    919  O2        -1.8360   -3.4290   -8.9900 O.2    45  DC45       -0.2443
    920  N3        -2.6340   -1.3280   -8.6470 N.ar   45  DC45       -0.1739
    921  C4        -3.6940   -0.5200   -8.5990 C.ar   45  DC45        0.1759
    922  N4        -3.4860    0.7670   -8.3100 N.pl3  45  DC45       -0.1070
    923  C5        -5.0070   -0.9970   -8.8460 C.ar   45  DC45        0.0566
    924  C6        -5.1620   -2.2940   -9.1310 C.ar   45  DC45        0.0849
    925  P         -5.4470   -6.8440   -5.2760 P.3    46  DC46        0.2141
    926  OP1       -5.6800   -8.2260   -4.7990 O.2    46  DC46       -0.5172
    927  OP2       -6.0490   -5.6870   -4.5760 O.3    46  DC46       -0.4373
    928  O5'       -3.8790   -6.5350   -5.2480 O.3    46  DC46       -0.3114
    929  C5'       -2.9630   -7.4400   -5.8440 C.3    46  DC46        0.1811
    930  C4'       -1.5360   -7.0030   -5.6230 C.3    46  DC46        0.1746
    931  O4'       -1.2390   -5.8580   -6.4650 O.3    46  DC46       -0.3327
    932  C3'       -1.1990   -6.4950   -4.2270 C.3    46  DC46        0.1558
    933  O3'       -1.0570   -7.5060   -3.2440 O.3    46  DC46       -0.3138
    934  C2'        0.0620   -5.6840   -4.4950 C.3    46  DC46        0.0866
    935  C1'       -0.3530   -4.9900   -5.7880 C.3    46  DC46        0.2106
    936  N1        -0.9750   -3.6920   -5.4500 N.ar   46  DC46       -0.2556
    937  C2        -0.1940   -2.5640   -5.1710 C.ar   46  DC46        0.3531
    938  O2         1.0430   -2.6760   -5.1810 O.2    46  DC46       -0.2443
    939  N3        -0.8090   -1.3880   -4.8970 N.ar   46  DC46       -0.1739
    940  C4        -2.1400   -1.3150   -4.8960 C.ar   46  DC46        0.1759
    941  N4        -2.7010   -0.1360   -4.6200 N.pl3  46  DC46       -0.1070
    942  C5        -2.9490   -2.4470   -5.1760 C.ar   46  DC46        0.0566
    943  C6        -2.3380   -3.6060   -5.4460 C.ar   46  DC46        0.0849
    944  P         -1.7690   -7.2760   -1.8560 P.3    47  DC47        0.2141
    945  OP1       -1.8150   -8.5560   -1.0910 O.3    47  DC47       -0.4373
    946  OP2       -2.9110   -6.3360   -1.7620 O.2    47  DC47       -0.5172
    947  O5'       -0.4970   -6.4230   -1.4190 O.3    47  DC47       -0.3114
    948  C5'        0.8130   -6.9990   -1.3390 C.3    47  DC47        0.1811
    949  C4'        1.7840   -5.9710   -0.8190 C.3    47  DC47        0.1746
    950  O4'        1.7180   -4.8000   -1.6750 O.3    47  DC47       -0.3327
    951  C3'        1.4690   -5.4320    0.5670 C.3    47  DC47        0.1558
    952  O3'        2.0340   -6.2640    1.5690 O.3    47  DC47       -0.3138
    953  C2'        2.1380   -4.0720    0.5450 C.3    47  DC47        0.0866
    954  C1'        1.8640   -3.6270   -0.8920 C.3    47  DC47        0.2106
    955  N1         0.6690   -2.8090   -1.1090 N.ar   47  DC47       -0.2556
    956  C2         0.7750   -1.4320   -0.8820 C.ar   47  DC47        0.3531
    957  O2         1.8860   -0.9580   -0.5900 O.2    47  DC47       -0.2443
    958  N3        -0.3320   -0.6590   -0.9860 N.ar   47  DC47       -0.1739
    959  C4        -1.5040   -1.2120   -1.3010 C.ar   47  DC47        0.1759
    960  N4        -2.5690   -0.4110   -1.3920 N.pl3  47  DC47       -0.1070
    961  C5        -1.6330   -2.6050   -1.5350 C.ar   47  DC47        0.0566
    962  C6        -0.5360   -3.3650   -1.4310 C.ar   47  DC47        0.0849
    963  P          1.4730   -6.2350    3.1820 P.3    48  DT48        0.2141
    964  OP1        2.2400   -7.0490    4.1710 O.3    48  DT48       -0.4373
    965  OP2       -0.0260   -6.2500    3.1990 O.2    48  DT48       -0.5172
    966  O5'        1.9200   -4.7020    3.2930 O.3    48  DT48       -0.3114
    967  C5'        3.2800   -4.3460    3.5630 C.3    48  DT48        0.1811
    968  C4'        3.3980   -2.9120    4.0730 C.3    48  DT48        0.1746
    969  O4'        3.0840   -1.9620    3.0200 O.3    48  DT48       -0.3327
    970  C3'        2.5120   -2.4630    5.2320 C.3    48  DT48        0.1558
    971  O3'        3.0080   -2.8010    6.5040 O.3    48  DT48       -0.3138
    972  C2'        2.5230   -0.9450    5.1040 C.3    48  DT48        0.0866
    973  C1'        2.5590   -0.7720    3.5970 C.3    48  DT48        0.2106
    974  N1         1.1960   -0.5280    3.0680 N.ar   48  DT48       -0.2559
    975  C2         0.8290    0.8030    3.0290 C.ar   48  DT48        0.3545
    976  O2         1.6040    1.7130    3.2650 O.2    48  DT48       -0.2443
    977  N3        -0.4860    1.0340    2.7040 N.ar   48  DT48       -0.1533
    978  C4        -1.4490    0.0880    2.4210 C.ar   48  DT48        0.2804
    979  O4        -2.5900    0.4500    2.1440 O.2    48  DT48       -0.2654
    980  C5        -0.9900   -1.2710    2.4830 C.ar   48  DT48        0.0534
    981  C6         0.2830   -1.5240    2.7960 C.ar   48  DT48        0.0824
    982  C7        -1.9640   -2.3740    2.1910 C.3    48  DT48        0.0377
    983  P          2.0010   -2.5750    7.8830 P.3    49  DT49        0.2141
    984  OP1        2.3120   -3.4980    9.0010 O.3    49  DT49       -0.4373
    985  OP2        0.9540   -2.9350    6.9110 O.2    49  DT49       -0.5172
    986  O5'        1.6100   -1.1310    8.4380 O.3    49  DT49       -0.3114
    987  C5'        2.4120   -0.4750    9.4240 C.3    49  DT49        0.1811
    988  C4'        2.2720    1.0320    9.3100 C.3    49  DT49        0.1746
    989  O4'        2.0410    1.4090    7.9280 O.3    49  DT49       -0.3327
    990  C3'        1.1370    1.7110   10.0570 C.3    49  DT49        0.1558
    991  O3'        1.4650    1.9280   11.4190 O.3    49  DT49       -0.3138
    992  C2'        1.0090    3.0340    9.3090 C.3    49  DT49        0.0866
    993  C1'        1.2670    2.5950    7.8770 C.3    49  DT49        0.2106
    994  N1         0.0330    2.3900    7.1840 N.ar   49  DT49       -0.2559
    995  C2        -0.6500    3.4440    6.6080 C.ar   49  DT49        0.3545
    996  O2        -0.3160    4.6080    6.7470 O.2    49  DT49       -0.2443
    997  N3        -1.7460    3.0870    5.8600 N.ar   49  DT49       -0.1533
    998  C4        -2.2160    1.8100    5.6350 C.ar   49  DT49        0.2804
    999  O4        -3.2150    1.6470    4.9380 O.2    49  DT49       -0.2654
   1000  C5        -1.4530    0.7700    6.2670 C.ar   49  DT49        0.0534
   1001  C6        -0.3840    1.0900    7.0000 C.ar   49  DT49        0.0824
   1002  C7        -1.8850   -0.6550    6.0820 C.3    49  DT49        0.0377
   1003  P          0.2580    2.0900   12.5870 P.3    50  DT50        0.2141
   1004  OP1        0.7120    2.6050   13.8960 O.3    50  DT50       -0.4373
   1005  OP2       -1.0260    1.3420   12.5170 O.2    50  DT50       -0.5172
   1006  O5'        0.1320    3.3190   11.5760 O.3    50  DT50       -0.3114
   1007  C5'        0.7820    4.5580   11.8420 C.3    50  DT50        0.1811
   1008  C4'       -0.2120    5.6820   11.7800 C.3    50  DT50        0.1746
   1009  O4'       -0.6570    5.9070   10.4180 O.3    50  DT50       -0.3327
   1010  C3'       -1.4820    5.3790   12.5540 C.3    50  DT50        0.1558
   1011  O3'       -1.2520    5.6900   13.9150 O.3    50  DT50       -0.3138
   1012  C2'       -2.5230    6.2430   11.8510 C.3    50  DT50        0.0866
   1013  C1'       -2.0470    6.1920   10.4020 C.3    50  DT50        0.2106
   1014  N1        -2.6970    4.9310    9.7840 N.ar   50  DT50       -0.2559
   1015  C2        -3.9030    5.2080    9.1690 C.ar   50  DT50        0.3545
   1016  O2        -4.3130    6.3410    8.9920 O.2    50  DT50       -0.2443
   1017  N3        -4.6170    4.1050    8.7670 N.ar   50  DT50       -0.1533
   1018  C4        -4.2540    2.7820    8.9150 C.ar   50  DT50        0.2804
   1019  O4        -5.0020    1.9000    8.5010 O.2    50  DT50       -0.2654
   1020  C5        -2.9900    2.5770    9.5630 C.ar   50  DT50        0.0534
   1021  C6        -2.2750    3.6310    9.9640 C.ar   50  DT50        0.0824
   1022  C7        -2.5070    1.1720    9.7710 C.3    50  DT50        0.0377
   1023  P         -2.2430    5.2990   14.7300 P.3    51  DG51        0.2141
   1024  OP1       -1.6510    5.8550   15.9760 O.3    51  DG51       -0.4373
   1025  OP2       -2.0450    3.8680   14.3880 O.2    51  DG51       -0.5172
   1026  O5'       -3.8130    5.5690   14.7140 O.3    51  DG51       -0.3114
   1027  C5'       -4.3420    6.8860   14.7610 C.3    51  DG51        0.1811
   1028  C4'       -5.8100    6.8630   14.4110 C.3    51  DG51        0.1746
   1029  O4'       -5.9700    6.5210   13.0100 O.3    51  DG51       -0.3327
   1030  C3'       -6.6450    5.8160   15.1370 C.3    51  DG51        0.1558
   1031  O3'       -7.0720    6.2900   16.4140 O.3    51  DG51       -0.3138
   1032  C2'       -7.8500    5.6820   14.2120 C.3    51  DG51        0.0865
   1033  C1'       -7.2090    5.8600   12.8290 C.3    51  DG51        0.2094
   1034  N9        -6.8930    4.8600   11.9650 N.ar   51  DG51       -0.2713
   1035  C8        -5.8470    4.0020   12.1990 C.ar   51  DG51        0.1816
   1036  N7        -5.9850    2.8460   11.6090 N.ar   51  DG51       -0.2173
   1037  C5        -7.1920    2.9440   10.9420 C.ar   51  DG51        0.1748
   1038  C6        -7.8770    2.0050   10.1280 C.ar   51  DG51        0.3023
   1039  O6        -7.5290    0.8560    9.8270 O.2    51  DG51       -0.2633
   1040  N1        -9.0800    2.5130    9.6460 N.ar   51  DG51       -0.1709
   1041  C2        -9.5640    3.7710    9.9150 C.ar   51  DG51        0.2606
   1042  N2       -10.7430    4.0810    9.3590 N.pl3  51  DG51       -0.0859
   1043  N3        -8.9400    4.6540   10.6690 N.ar   51  DG51       -0.1918
   1044  C4        -7.7700    4.1820   11.1490 C.ar   51  DG51        0.1722
   1045  P         -6.1850    5.8200   18.0730 P.3    52  DG52        0.2141
   1046  OP1       -6.0360    6.7910   19.2010 O.3    52  DG52       -0.4373
   1047  OP2       -5.4040    4.5440   17.9650 O.2    52  DG52       -0.5172
   1048  O5'       -7.7030    5.3940   18.1120 O.3    52  DG52       -0.3114
   1049  C5'       -8.4870    6.4820   18.4950 C.3    52  DG52        0.1811
   1050  C4'       -9.8760    5.9510   18.6430 C.3    52  DG52        0.1746
   1051  O4'      -10.2620    5.2040   17.4680 O.3    52  DG52       -0.3327
   1052  C3'       -9.8370    4.8630   19.6530 C.3    52  DG52        0.1558
   1053  O3'       -9.7260    5.4260   20.9310 O.3    52  DG52       -0.3138
   1054  C2'      -11.1610    4.2430   19.3860 C.3    52  DG52        0.0865
   1055  C1'      -11.2390    4.2920   17.8840 C.3    52  DG52        0.2094
   1056  N9       -10.9370    3.0550   17.1400 N.ar   52  DG52       -0.2713
   1057  C8        -9.7050    2.6200   16.7160 C.ar   52  DG52        0.1816
   1058  N7        -9.7020    1.3710   16.3360 N.ar   52  DG52       -0.2173
   1059  C5       -11.0070    0.9550   16.5150 C.ar   52  DG52        0.1748
   1060  C6       -11.6160   -0.3050   16.2770 C.ar   52  DG52        0.3023
   1061  O6       -11.0930   -1.3380   15.8410 O.2    52  DG52       -0.2633
   1062  N1       -12.9700   -0.2970   16.5980 N.ar   52  DG52       -0.1709
   1063  C2       -13.6550    0.7890   17.0880 C.ar   52  DG52        0.2606
   1064  N2       -14.9580    0.6030   17.3370 N.pl3  52  DG52       -0.0859
   1065  N3       -13.1030    1.9650   17.3150 N.ar   52  DG52       -0.1918
   1066  C4       -11.7880    1.9810   17.0120 C.ar   52  DG52        0.1722
   1067  P         -9.5400    4.5550   21.6980 P.3    53  DG53        0.2141
   1068  OP1       -9.1390    5.4810   22.7840 O.3    53  DG53       -0.4373
   1069  OP2       -8.4920    3.7490   20.9970 O.2    53  DG53       -0.5172
   1070  O5'      -10.6210    3.5460   22.2880 O.3    53  DG53       -0.3114
   1071  C5'      -11.9820    3.9380   22.4150 C.3    53  DG53        0.1811
   1072  C4'      -12.8750    2.7310   22.3510 C.3    53  DG53        0.1746
   1073  O4'      -13.0670    2.2740   20.9850 O.3    53  DG53       -0.3327
   1074  C3'      -12.3180    1.5250   23.0680 C.3    53  DG53        0.1558
   1075  O3'      -12.4930    1.6370   24.4680 O.3    53  DG53       -0.3138
   1076  C2'      -13.0770    0.3740   22.4270 C.3    53  DG53        0.0865
   1077  C1'      -13.2310    0.8630   20.9770 C.3    53  DG53        0.2094
   1078  N9       -12.2330    0.2710   20.1150 N.ar   53  DG53       -0.2713
   1079  C8       -11.0390    0.7800   19.6650 C.ar   53  DG53        0.1816
   1080  N7       -10.3350   -0.0830   18.9850 N.ar   53  DG53       -0.2173
   1081  C5       -11.1070   -1.2300   18.9820 C.ar   53  DG53        0.1748
   1082  C6       -10.8670   -2.5030   18.4030 C.ar   53  DG53        0.3023
   1083  O6        -9.8820   -2.8750   17.7520 O.2    53  DG53       -0.2633
   1084  N1       -11.9140   -3.3880   18.6400 N.ar   53  DG53       -0.1709
   1085  C2       -13.0530   -3.0850   19.3480 C.ar   53  DG53        0.2606
   1086  N2       -13.9520   -4.0710   19.4710 N.pl3  53  DG53       -0.0859
   1087  N3       -13.2890   -1.9080   19.8920 N.ar   53  DG53       -0.1918
   1088  C4       -12.2850   -1.0320   19.6760 C.ar   53  DG53        0.1722
   1089  P        -11.9360    0.2740   25.5100 P.3    54  DG54        0.2141
   1090  OP1      -12.4410    0.9500   26.6990 O.3    54  DG54       -0.4373
   1091  OP2      -10.5150    0.3550   25.0720 O.2    54  DG54       -0.5172
   1092  O5'      -12.3160   -1.2710   25.4520 O.3    54  DG54       -0.3114
   1093  C5'      -13.3750   -1.6670   26.2560 C.3    54  DG54        0.1811
   1094  C4'      -13.9640   -2.8950   25.6180 C.3    54  DG54        0.1746
   1095  O4'      -13.6900   -2.7380   24.2430 O.3    54  DG54       -0.3327
   1096  C3'      -13.2930   -4.2090   25.8840 C.3    54  DG54        0.1558
   1097  O3'      -13.7040   -4.8270   27.1150 O.3    54  DG54       -0.3138
   1098  C2'      -13.8440   -4.9240   24.6890 C.3    54  DG54        0.0865
   1099  C1'      -13.5030   -3.9900   23.6250 C.3    54  DG54        0.2094
   1100  N9       -12.2660   -4.2360   23.0630 N.ar   54  DG54       -0.2713
   1101  C8       -11.4160   -3.1700   22.8910 C.ar   54  DG54        0.1816
   1102  N7       -10.4010   -3.4400   22.1160 N.ar   54  DG54       -0.2173
   1103  C5       -10.5900   -4.7600   21.7510 C.ar   54  DG54        0.1748
   1104  C6        -9.8120   -5.6090   20.9220 C.ar   54  DG54        0.3023
   1105  O6        -8.7620   -5.3430   20.3230 O.2    54  DG54       -0.2633
   1106  N1       -10.3640   -6.8830   20.8180 N.ar   54  DG54       -0.1709
   1107  C2       -11.5220   -7.2890   21.4360 C.ar   54  DG54        0.2606
   1108  N2       -11.8970   -8.5560   21.2150 N.pl3  54  DG54       -0.0859
   1109  N3       -12.2550   -6.5120   22.2100 N.ar   54  DG54       -0.1918
   1110  C4       -11.7370   -5.2710   22.3270 C.ar   54  DG54        0.1722
   1111  P        -12.4890   -5.1090   28.1480 P.3    55  DA55        0.2141
   1112  OP1      -13.6840   -4.8190   28.9860 O.3    55  DA55       -0.4373
   1113  OP2      -11.1840   -4.4180   28.3100 O.2    55  DA55       -0.5172
   1114  O5'      -12.1050   -6.6600   28.2260 O.3    55  DA55       -0.3114
   1115  C5'      -13.1080   -7.6470   28.1410 C.3    55  DA55        0.1811
   1116  C4'      -12.6190   -8.7850   27.2690 C.3    55  DA55        0.1746
   1117  O4'      -12.2250   -8.2730   25.9720 O.3    55  DA55       -0.3327
   1118  C3'      -11.3560   -9.4950   27.7180 C.3    55  DA55        0.1558
   1119  O3'      -11.6200  -10.3500   28.8200 O.3    55  DA55       -0.3138
   1120  C2'      -11.1430  -10.3040   26.4510 C.3    55  DA55        0.0865
   1121  C1'      -11.3780   -9.2420   25.3850 C.3    55  DA55        0.2094
   1122  N9       -10.1170   -8.6080   25.0230 N.ar   55  DA55       -0.2714
   1123  C8        -9.8210   -7.3260   25.4050 C.ar   55  DA55        0.1815
   1124  N7        -8.7920   -6.8100   24.7740 N.ar   55  DA55       -0.2193
   1125  C5        -8.3850   -7.8230   23.9210 C.ar   55  DA55        0.1518
   1126  C6        -7.3430   -7.9060   22.9800 C.ar   55  DA55        0.1919
   1127  N6        -6.4870   -6.9110   22.7350 N.pl3  55  DA55       -0.1054
   1128  N1        -7.2090   -9.0610   22.2930 N.ar   55  DA55       -0.2040
   1129  C2        -8.0680  -10.0570   22.5390 C.ar   55  DA55        0.2016
   1130  N3        -9.0860  -10.0980   23.3950 N.ar   55  DA55       -0.2048
   1131  C4        -9.1910   -8.9370   24.0630 C.ar   55  DA55        0.1691
   1132  P        -10.5010  -10.6990   29.7750 P.3    56  DG56        0.2141
   1133  OP1      -10.6020  -11.6840   30.8820 O.3    56  DG56       -0.4373
   1134  OP2      -10.0000   -9.3450   30.0600 O.2    56  DG56       -0.5172
   1135  O5'       -9.6020  -11.2870   28.5990 O.3    56  DG56       -0.3114
   1136  C5'       -9.5580  -12.7010   28.3260 C.3    56  DG56        0.1811
   1137  C4'       -8.2060  -13.0810   27.7600 C.3    56  DG56        0.1746
   1138  O4'       -8.0390  -12.5170   26.4350 O.3    56  DG56       -0.3327
   1139  C3'       -7.0080  -12.6030   28.5650 C.3    56  DG56        0.1558
   1140  O3'       -6.6900  -13.5710   29.5660 O.3    56  DG56       -0.3138
   1141  C2'       -5.9070  -12.5070   27.5150 C.3    56  DG56        0.0865
   1142  C1'       -6.6880  -12.1460   26.2500 C.3    56  DG56        0.2094
   1143  N9        -6.6710  -10.7920   25.8010 N.ar   56  DG56       -0.2713
   1144  C8        -7.3170   -9.7000   26.3300 C.ar   56  DG56        0.1816
   1145  N7        -6.7460   -8.5670   26.0250 N.ar   56  DG56       -0.2173
   1146  C5        -5.6620   -8.9270   25.2470 C.ar   56  DG56        0.1748
   1147  C6        -4.6670   -8.1290   24.6240 C.ar   56  DG56        0.3023
   1148  O6        -4.5510   -6.8980   24.6420 O.2    56  DG56       -0.2633
   1149  N1        -3.7420   -8.9010   23.9260 N.ar   56  DG56       -0.1709
   1150  C2        -3.7730  -10.2730   23.8390 C.ar   56  DG56        0.2606
   1151  N2        -2.7960  -10.8410   23.1190 N.pl3  56  DG56       -0.0859
   1152  N3        -4.6900  -11.0270   24.4120 N.ar   56  DG56       -0.1918
   1153  C4        -5.5980  -10.2980   25.0960 C.ar   56  DG56        0.1722
   1154  P         -6.0460  -12.9380   30.8360 P.3    57  DA57        0.2141
   1155  OP1       -6.4600  -13.9530   31.8280 O.3    57  DA57       -0.4373
   1156  OP2       -6.5820  -11.5610   30.9210 O.2    57  DA57       -0.5172
   1157  O5'       -4.4570  -12.7650   30.8980 O.3    57  DA57       -0.3114
   1158  C5'       -3.7150  -12.4600   29.7220 C.3    57  DA57        0.1811
   1159  C4'       -2.3370  -11.9660   30.0780 C.3    57  DA57        0.1746
   1160  O4'       -1.5650  -13.0450   30.6680 O.3    57  DA57       -0.3327
   1161  C3'       -1.4570  -11.4850   28.9350 C.3    57  DA57        0.1558
   1162  O3'       -1.7840  -10.1850   28.4740 O.3    57  DA57       -0.3138
   1163  C2'       -0.0820  -11.5610   29.5800 C.3    57  DA57        0.0865
   1164  C1'       -0.1980  -12.8700   30.3600 C.3    57  DA57        0.2094
   1165  N9         0.2030  -13.8450   29.6270 N.ar   57  DA57       -0.2714
   1166  C8        -0.6090  -14.9090   29.3300 C.ar   57  DA57        0.1815
   1167  N7         0.0030  -15.8800   28.6960 N.ar   57  DA57       -0.2193
   1168  C5         1.3050  -15.4240   28.5670 C.ar   57  DA57        0.1518
   1169  C6         2.4530  -15.9900   27.9850 C.ar   57  DA57        0.1919
   1170  N6         2.4710  -17.1910   27.4020 N.pl3  57  DA57       -0.1054
   1171  N1         3.5950  -15.2710   28.0240 N.ar   57  DA57       -0.2040
   1172  C2         3.5770  -14.0680   28.6100 C.ar   57  DA57        0.2016
   1173  N3         2.5630  -13.4310   29.1910 N.ar   57  DA57       -0.2048
   1174  C4         1.4430  -14.1710   29.1340 C.ar   57  DA57        0.1691
   1175  P         -2.3090   -9.8700   26.9320 P.3    58  DC58        0.2141
   1176  OP1       -2.1830   -8.4150   26.6620 O.3    58  DC58       -0.4373
   1177  OP2       -3.3770  -10.6460   26.2480 O.2    58  DC58       -0.5172
   1178  O5'       -0.8780  -10.5390   26.7000 O.3    58  DC58       -0.3114
   1179  C5'        0.3120   -9.8130   26.9980 C.3    58  DC58        0.1811
   1180  C4'        1.4770  -10.3470   26.2010 C.3    58  DC58        0.1746
   1181  O4'        2.0090  -11.5560   26.8050 O.3    58  DC58       -0.3327
   1182  C3'        1.1720  -10.7240   24.7700 C.3    58  DC58        0.1558
   1183  O3'        1.1340   -9.5870   23.9180 O.3    58  DC58       -0.3138
   1184  C2'        2.2870  -11.7120   24.4510 C.3    58  DC58        0.0866
   1185  C1'        2.4560  -12.4360   25.7920 C.3    58  DC58        0.2106
   1186  N1         1.6160  -13.6560   25.8320 N.ar   58  DC58       -0.2556
   1187  C2         2.0960  -14.8340   25.2490 C.ar   58  DC58        0.3531
   1188  O2         3.2450  -14.8410   24.7740 O.2    58  DC58       -0.2443
   1189  N3         1.2990  -15.9280   25.2190 N.ar   58  DC58       -0.1739
   1190  C4         0.0720  -15.8740   25.7400 C.ar   58  DC58        0.1759
   1191  N4        -0.6780  -16.9770   25.6870 N.pl3  58  DC58       -0.1070
   1192  C5        -0.4330  -14.6900   26.3350 C.ar   58  DC58        0.0566
   1193  C6         0.3580  -13.6120   26.3630 C.ar   58  DC58        0.0849
   1194  P          0.5780   -9.7610   22.4040 P.3    59  DA59        0.2141
   1195  OP1        0.8220   -8.5770   21.5490 O.2    59  DA59       -0.5172
   1196  OP2       -0.8000  -10.1290   22.7940 O.3    59  DA59       -0.4373
   1197  O5'        1.1110  -11.0560   21.6430 O.3    59  DA59       -0.3114
   1198  C5'        2.3370  -11.0200   20.9350 C.3    59  DA59        0.1811
   1199  C4'        2.6290  -12.3790   20.3650 C.3    59  DA59        0.1746
   1200  O4'        2.7010  -13.3340   21.4550 O.3    59  DA59       -0.3327
   1201  C3'        1.5490  -12.9440   19.4560 C.3    59  DA59        0.1558
   1202  O3'        1.6100  -12.4480   18.1280 O.3    59  DA59       -0.3138
   1203  C2'        1.8000  -14.4400   19.5750 C.3    59  DA59        0.0865
   1204  C1'        2.1140  -14.5560   21.0650 C.3    59  DA59        0.2094
   1205  N9         0.9350  -14.8090   21.8610 N.ar   59  DA59       -0.2714
   1206  C8         0.1440  -13.8930   22.5040 C.ar   59  DA59        0.1815
   1207  N7        -0.8220  -14.4320   23.2100 N.ar   59  DA59       -0.2193
   1208  C5        -0.6540  -15.7940   23.0160 C.ar   59  DA59        0.1518
   1209  C6        -1.3580  -16.9120   23.4970 C.ar   59  DA59        0.1919
   1210  N6        -2.4170  -16.8270   24.3060 N.pl3  59  DA59       -0.1054
   1211  N1        -0.9320  -18.1340   23.1130 N.ar   59  DA59       -0.2040
   1212  C2         0.1300  -18.2190   22.3040 C.ar   59  DA59        0.2016
   1213  N3         0.8740  -17.2430   21.7880 N.ar   59  DA59       -0.2048
   1214  C4         0.4240  -16.0420   22.1870 C.ar   59  DA59        0.1691
   1215  P          0.2060  -11.3430   17.2460 P.3    60  DT60        0.2141
   1216  OP1        1.1740  -12.0540   16.3640 O.2    60  DT60       -0.5172
   1217  OP2        0.0410   -9.8670   17.1170 O.3    60  DT60       -0.4373
   1218  O5'       -1.2270  -12.0130   17.0490 O.3    60  DT60       -0.3114
   1219  C5'       -1.4050  -13.4330   17.1930 C.3    60  DT60        0.1811
   1220  C4'       -2.7130  -13.7300   17.8890 C.3    60  DT60        0.1746
   1221  O4'       -2.7290  -13.0760   19.1850 O.3    60  DT60       -0.3327
   1222  C3'       -3.9720  -13.2040   17.2230 C.3    60  DT60        0.1558
   1223  O3'       -4.4100  -14.0440   16.1670 O.3    60  DT60       -0.3138
   1224  C2'       -4.9610  -13.2080   18.3800 C.3    60  DT60        0.0866
   1225  C1'       -4.0650  -12.7510   19.5330 C.3    60  DT60        0.2106
   1226  N1        -4.2620  -11.3960   19.8300 N.ar   60  DT60       -0.2557
   1227  C2        -5.1950  -10.9970   20.7680 C.ar   60  DT60        0.3545
   1228  O2        -5.9650  -11.7710   21.3100 O.2    60  DT60       -0.2443
   1229  N3        -5.1980   -9.6520   21.0500 N.ar   60  DT60       -0.1532
   1230  C4        -4.3780   -8.6880   20.5010 C.ar   60  DT60        0.2843
   1231  O4        -4.4990   -7.5180   20.8560 O.2    60  DT60       -0.2652
   1232  C5        -3.4370   -9.1810   19.5350 C.ar   60  DT60        0.1000
   1233  C6        -3.4130  -10.4840   19.2420 C.ar   60  DT60        0.0865
   1234  C7        -2.5010   -8.2090   18.8800 C.3    60  DT60        0.2423
   1235  P         -5.4270  -13.4370   14.9230 P.3    61  DC61        0.2141
   1236  OP1       -5.6210  -14.3080   13.7420 O.2    61  DC61       -0.5172
   1237  OP2       -4.7130  -12.1440   14.8000 O.3    61  DC61       -0.4373
   1238  O5'       -6.8520  -13.0430   15.5360 O.3    61  DC61       -0.3114
   1239  C5'       -7.8290  -14.0640   15.6430 C.3    61  DC61        0.1811
   1240  C4'       -8.8290  -13.7930   16.7360 C.3    61  DC61        0.1746
   1241  O4'       -8.2000  -13.1030   17.8470 O.3    61  DC61       -0.3327
   1242  C3'       -9.9780  -12.8680   16.3850 C.3    61  DC61        0.1558
   1243  O3'      -10.9530  -13.4610   15.5550 O.3    61  DC61       -0.3138
   1244  C2'      -10.4920  -12.4960   17.7660 C.3    61  DC61        0.0866
   1245  C1'       -9.1700  -12.3110   18.5070 C.3    61  DC61        0.2106
   1246  N1        -8.8120  -10.8500   18.4490 N.ar   61  DC61       -0.2556
   1247  C2        -9.4970   -9.9210   19.2400 C.ar   61  DC61        0.3531
   1248  O2       -10.5850  -10.2510   19.7430 O.2    61  DC61       -0.2443
   1249  N3        -8.9580   -8.6930   19.4320 N.ar   61  DC61       -0.1739
   1250  C4        -7.7890   -8.3830   18.8710 C.ar   61  DC61        0.1759
   1251  N4        -7.2960   -7.1610   19.0890 N.pl3  61  DC61       -0.1070
   1252  C5        -7.0790   -9.3100   18.0660 C.ar   61  DC61        0.0566
   1253  C6        -7.6150  -10.5210   17.8790 C.ar   61  DC61        0.0849
   1254  P        -11.4480  -12.6430   14.4370 P.3    62  DC62        0.2141
   1255  OP1      -12.0590  -13.6890   13.6120 O.2    62  DC62       -0.5172
   1256  OP2      -10.9750  -11.3450   13.8180 O.3    62  DC62       -0.4373
   1257  O5'      -12.5020  -12.2450   15.5730 O.3    62  DC62       -0.3114
   1258  C5'      -13.8880  -12.0860   15.2630 C.3    62  DC62        0.1811
   1259  C4'      -14.5520  -11.2990   16.3580 C.3    62  DC62        0.1746
   1260  O4'      -13.4350  -10.7210   17.0520 O.3    62  DC62       -0.3327
   1261  C3'      -15.3000  -10.0290   16.0520 C.3    62  DC62        0.1558
   1262  O3'      -16.6710  -10.2510   15.6340 O.3    62  DC62       -0.3138
   1263  C2'      -15.2200   -9.3550   17.4140 C.3    62  DC62        0.0866
   1264  C1'      -13.7660   -9.5130   17.7070 C.3    62  DC62        0.2106
   1265  N1       -12.9730   -8.5170   17.4080 N.ar   62  DC62       -0.2556
   1266  C2       -12.9920   -7.2500   18.0010 C.ar   62  DC62        0.3531
   1267  O2       -13.9520   -6.9450   18.7300 O.2    62  DC62       -0.2443
   1268  N3       -11.9690   -6.3950   17.7630 N.ar   62  DC62       -0.1739
   1269  C4       -10.9600   -6.7650   16.9730 C.ar   62  DC62        0.1759
   1270  N4        -9.9740   -5.8880   16.7670 N.pl3  62  DC62       -0.1070
   1271  C5       -10.9220   -8.0450   16.3630 C.ar   62  DC62        0.0566
   1272  C6       -11.9340   -8.8860   16.6010 C.ar   62  DC62        0.0849
   1273  P        -17.0740   -9.2610   14.5160 P.3    63  DT63        0.2141
   1274  OP1      -18.4770   -9.7060   14.2810 O.3    63  DT63       -0.4373
   1275  OP2      -16.0630   -9.2710   13.4180 O.2    63  DT63       -0.5172
   1276  O5'      -17.1090   -7.8130   15.2380 O.3    63  DT63       -0.3114
   1277  C5'      -18.3180   -7.3050   15.8650 C.3    63  DT63        0.1811
   1278  C4'      -18.2440   -5.8530   16.3350 C.3    63  DT63        0.1746
   1279  O4'      -17.0830   -5.6290   17.1640 O.3    63  DT63       -0.3327
   1280  C3'      -18.0630   -4.7890   15.2640 C.3    63  DT63        0.1558
   1281  O3'      -19.2760   -4.4740   14.5950 O.3    63  DT63       -0.3138
   1282  C2'      -17.5590   -3.6170   16.0910 C.3    63  DT63        0.0866
   1283  C1'      -16.5290   -4.3470   16.9170 C.3    63  DT63        0.2106
   1284  N1       -15.1060   -4.5310   16.4570 N.ar   63  DT63       -0.2559
   1285  C2       -14.2490   -3.4580   16.6090 C.ar   63  DT63        0.3545
   1286  O2       -14.5900   -2.4010   17.1110 O.2    63  DT63       -0.2443
   1287  N3       -12.9710   -3.6650   16.1490 N.ar   63  DT63       -0.1533
   1288  C4       -12.4760   -4.8120   15.5650 C.ar   63  DT63        0.2804
   1289  O4       -11.3030   -4.8480   15.2020 O.2    63  DT63       -0.2654
   1290  C5       -13.4270   -5.8810   15.4420 C.ar   63  DT63        0.0534
   1291  C6       -14.6760   -5.7060   15.8810 C.ar   63  DT63        0.0824
   1292  C7       -12.9840   -7.1720   14.8190 C.3    63  DT63        0.0377
   1293  P        -19.0430   -4.1700   13.1750 P.3    64  DA64        0.2141
   1294  OP1      -20.3640   -4.4720   12.5800 O.2    64  DA64       -0.5172
   1295  OP2      -17.8430   -4.9140   12.7450 O.3    64  DA64       -0.4373
   1296  O5'      -18.6740   -2.6440   12.8880 O.3    64  DA64       -0.3114
   1297  C5'      -19.6010   -1.6430   13.2750 C.3    64  DA64        0.1811
   1298  C4'      -18.9700   -0.2730   13.3530 C.3    64  DA64        0.1746
   1299  O4'      -17.9490   -0.2270   14.3820 O.3    64  DA64       -0.3327
   1300  C3'      -18.2610    0.2060   12.1020 C.3    64  DA64        0.1558
   1301  O3'      -19.1780    0.7130   11.1570 O.3    64  DA64       -0.3138
   1302  C2'      -17.3260    1.2680   12.6580 C.3    64  DA64        0.0865
   1303  C1'      -16.9050    0.6290   13.9800 C.3    64  DA64        0.2094
   1304  N9       -15.6200   -0.1680   13.9470 N.ar   64  DA64       -0.2714
   1305  C8       -15.4760   -1.5080   13.7000 C.ar   64  DA64        0.1815
   1306  N7       -14.2300   -1.9180   13.7130 N.ar   64  DA64       -0.2193
   1307  C5       -13.5050   -0.7680   13.9860 C.ar   64  DA64        0.1518
   1308  C6       -12.1270   -0.5310   14.1330 C.ar   64  DA64        0.1919
   1309  N6       -11.1970   -1.4820   14.0220 N.pl3  64  DA64       -0.1054
   1310  N1       -11.7350    0.7320   14.4030 N.ar   64  DA64       -0.2040
   1311  C2       -12.6680    1.6850   14.5150 C.ar   64  DA64        0.2016
   1312  N3       -13.9900    1.5840   14.3990 N.ar   64  DA64       -0.2048
   1313  C4       -14.3480    0.3180   14.1310 C.ar   64  DA64        0.1691
   1314  P        -18.9110    0.7700    9.7650 P.3    65  DT65        0.2141
   1315  OP1      -17.9280    0.1800    8.8070 O.2    65  DT65       -0.5172
   1316  OP2      -18.6810    2.1340   10.3510 O.3    65  DT65       -0.4373
   1317  O5'      -20.3430    0.7600    9.0700 O.3    65  DT65       -0.3114
   1318  C5'      -20.8060   -0.3680    8.3450 C.3    65  DT65        0.1811
   1319  C4'      -22.2370   -0.1550    7.9250 C.3    65  DT65        0.1746
   1320  O4'      -23.0410    0.1000    9.1040 O.3    65  DT65       -0.3327
   1321  C3'      -22.5020    1.0350    7.0190 C.3    65  DT65        0.1558
   1322  O3'      -22.2870    0.6920    5.6530 O.3    65  DT65       -0.3138
   1323  C2'      -23.9700    1.3450    7.2900 C.3    65  DT65        0.0866
   1324  C1'      -24.1100    0.9670    8.7710 C.3    65  DT65        0.2106
   1325  N1       -24.2300    2.0420    9.6790 N.ar   65  DT65       -0.2559
   1326  C2       -25.4260    2.7340    9.6870 C.ar   65  DT65        0.3545
   1327  O2       -26.3940    2.3950    9.0290 O.2    65  DT65       -0.2443
   1328  N3       -25.4490    3.8450   10.4950 N.ar   65  DT65       -0.1533
   1329  C4       -24.4200    4.3220   11.2790 C.ar   65  DT65        0.2804
   1330  O4       -24.5920    5.3350   11.9530 O.2    65  DT65       -0.2654
   1331  C5       -23.2110    3.5500   11.2160 C.ar   65  DT65        0.0534
   1332  C6       -23.1610    2.4650   10.4390 C.ar   65  DT65        0.0824
   1333  C7       -22.0320    3.9890   12.0330 C.3    65  DT65        0.0377
   1334  P        -21.9800    1.8400    4.5290 P.3    66  DG66        0.2141
   1335  OP1      -21.6780    1.3970    3.1340 O.2    66  DG66       -0.5172
   1336  OP2      -21.1370    2.8780    5.1880 O.3    66  DG66       -0.4373
   1337  O5'      -23.4770    2.3590    4.5500 O.3    66  DG66       -0.3114
   1338  C5'      -24.4680    1.6150    3.8900 C.3    66  DG66        0.1811
   1339  C4'      -25.6820    2.4460    3.7510 C.3    66  DG66        0.1746
   1340  O4'      -26.3330    2.5410    5.0390 O.3    66  DG66       -0.3327
   1341  C3'      -25.3910    3.8750    3.3620 C.3    66  DG66        0.1558
   1342  O3'      -25.1880    4.0250    1.9620 O.3    66  DG66       -0.3138
   1343  C2'      -26.6290    4.5970    3.8840 C.3    66  DG66        0.0865
   1344  C1'      -26.9410    3.8100    5.1560 C.3    66  DG66        0.2094
   1345  N9       -26.3330    4.5020    6.3730 N.ar   66  DG66       -0.2713
   1346  C8       -25.1530    4.2650    7.0350 C.ar   66  DG66        0.1816
   1347  N7       -24.8960    5.1470    7.9630 N.ar   66  DG66       -0.2173
   1348  C5       -25.9690    6.0170    7.9150 C.ar   66  DG66        0.1748
   1349  C6       -26.2520    7.1770    8.6810 C.ar   66  DG66        0.3023
   1350  O6       -25.5780    7.6770    9.5900 O.2    66  DG66       -0.2633
   1351  N1       -27.4540    7.7700    8.3040 N.ar   66  DG66       -0.1709
   1352  C2       -28.2810    7.3030    7.3110 C.ar   66  DG66        0.2606
   1353  N2       -29.3990    8.0090    7.0920 N.pl3  66  DG66       -0.0859
   1354  N3       -28.0320    6.2280    6.5900 N.ar   66  DG66       -0.1918
   1355  C4       -26.8690    5.6360    6.9380 C.ar   66  DG66        0.1722
   1356  P        -24.4250    5.3260    1.3770 P.3    67  DC67        0.2141
   1357  OP1      -23.5650    4.8050    0.2910 O.2    67  DC67       -0.5172
   1358  OP2      -23.7900    5.9160    2.5780 O.3    67  DC67       -0.4373
   1359  O5'      -25.4060    6.4320    0.7530 O.3    67  DC67       -0.3114
   1360  C5'      -26.8000    6.4810    1.0820 C.3    67  DC67        0.1811
   1361  C4'      -27.3170    7.8900    1.3270 C.3    67  DC67        0.1746
   1362  O4'      -27.7920    7.9710    2.6960 O.3    67  DC67       -0.3327
   1363  C3'      -26.3120    9.0300    1.2370 C.3    67  DC67        0.1558
   1364  O3'      -26.0600    9.4010   -0.1180 O.3    67  DC67       -0.3138
   1365  C2'      -27.0290   10.1160    2.0410 C.3    67  DC67        0.0866
   1366  C1'      -27.5780    9.2820    3.1960 C.3    67  DC67        0.2106
   1367  N1       -26.6720    9.1950    4.4360 N.ar   67  DC67       -0.2556
   1368  C2       -26.7420   10.2720    5.3270 C.ar   67  DC67        0.3531
   1369  O2       -27.6560   11.1020    5.1900 O.2    67  DC67       -0.2443
   1370  N3       -25.8140   10.3780    6.3080 N.ar   67  DC67       -0.1739
   1371  C4       -24.8490    9.4630    6.4150 C.ar   67  DC67        0.1759
   1372  N4       -23.9570    9.6090    7.3970 N.pl3  67  DC67       -0.1070
   1373  C5       -24.7610    8.3640    5.5230 C.ar   67  DC67        0.0566
   1374  C6       -25.6790    8.2630    4.5550 C.ar   67  DC67        0.0849
   1375  P        -24.5200    9.9770   -0.5960 P.3    68  DG68        0.2141
   1376  OP1      -24.4710    9.9240   -2.0660 O.2    68  DG68       -0.5172
   1377  OP2      -23.4540    9.2780    0.1530 O.3    68  DG68       -0.4373
   1378  O5'      -24.5250   11.4910   -0.0570 O.3    68  DG68       -0.3114
   1379  C5'      -25.2800   12.5270   -0.7100 C.3    68  DG68        0.1811
   1380  C4'      -25.1630   13.7860    0.1210 C.3    68  DG68        0.1746
   1381  O4'      -25.6880   13.5510    1.4570 O.3    68  DG68       -0.3327
   1382  C3'      -23.7390   14.2230    0.4300 C.3    68  DG68        0.1558
   1383  O3'      -23.0490   14.7260   -0.7370 O.3    68  DG68       -0.3138
   1384  C2'      -23.9970   15.2390    1.5530 C.3    68  DG68        0.0865
   1385  C1'      -25.0910   14.4970    2.3400 C.3    68  DG68        0.2094
   1386  N9       -24.5790   13.7360    3.4300 N.ar   68  DG68       -0.2713
   1387  C8       -24.3940   12.3760    3.4820 C.ar   68  DG68        0.1816
   1388  N7       -23.8850   11.9680    4.6130 N.ar   68  DG68       -0.2173
   1389  C5       -23.7250   13.1240    5.3540 C.ar   68  DG68        0.1748
   1390  C6       -23.2140   13.3180    6.6630 C.ar   68  DG68        0.3023
   1391  O6       -22.7880   12.4660    7.4530 O.2    68  DG68       -0.2633
   1392  N1       -23.2260   14.6600    7.0330 N.ar   68  DG68       -0.1709
   1393  C2       -23.6750   15.6880    6.2390 C.ar   68  DG68        0.2606
   1394  N2       -23.6090   16.9170    6.7700 N.pl3  68  DG68       -0.0859
   1395  N3       -24.1520   15.5240    5.0210 N.ar   68  DG68       -0.1918
   1396  C4       -24.1480   14.2290    4.6400 C.ar   68  DG68        0.1722
   1397  P        -21.4930   14.8210   -0.8530 P.3    69  DT69        0.2141
   1398  OP1      -20.9510   15.5770   -1.9960 O.2    69  DT69       -0.5172
   1399  OP2      -20.6620   13.7600   -0.2450 O.3    69  DT69       -0.4373
   1400  O5'      -21.9310   15.8510    0.2690 O.3    69  DT69       -0.3114
   1401  C5'      -21.8180   17.2120    0.1000 C.3    69  DT69        0.1811
   1402  C4'      -21.3240   17.7470    1.4010 C.3    69  DT69        0.1746
   1403  O4'      -21.9930   17.0920    2.4970 O.3    69  DT69       -0.3327
   1404  C3'      -19.8930   17.4110    1.6870 C.3    69  DT69        0.1558
   1405  O3'      -19.0260   18.1910    0.8720 O.3    69  DT69       -0.3138
   1406  C2'      -19.8300   17.7240    3.1780 C.3    69  DT69        0.0866
   1407  C1'      -21.1510   17.1440    3.6340 C.3    69  DT69        0.2106
   1408  N1       -21.0720   15.8830    4.2050 N.ar   69  DT69       -0.2559
   1409  C2       -20.7310   15.7650    5.5390 C.ar   69  DT69        0.3545
   1410  O2       -20.6320   16.7220    6.2860 O.2    69  DT69       -0.2443
   1411  N3       -20.5070   14.4800    5.9700 N.ar   69  DT69       -0.1533
   1412  C4       -20.5880   13.3260    5.2180 C.ar   69  DT69        0.2804
   1413  O4       -20.3600   12.2410    5.7480 O.2    69  DT69       -0.2654
   1414  C5       -20.9460   13.5320    3.8430 C.ar   69  DT69        0.0534
   1415  C6       -21.1690   14.7710    3.3970 C.ar   69  DT69        0.0824
   1416  C7       -21.0590   12.3380    2.9420 C.3    69  DT69        0.0377
   1417  P        -17.4330   17.6940    0.6370 P.3    70  DG70        0.2141
   1418  OP1      -16.5210   18.2740   -0.3800 O.2    70  DG70       -0.5172
   1419  OP2      -17.6820   16.2330    0.6710 O.3    70  DG70       -0.4373
   1420  O5'      -16.8880   18.1410    2.0750 O.3    70  DG70       -0.3114
   1421  C5'      -16.5880   19.5100    2.3500 C.3    70  DG70        0.1811
   1422  C4'      -16.2390   19.7410    3.8180 C.3    70  DG70        0.1746
   1423  O4'      -17.3460   19.3260    4.6660 O.3    70  DG70       -0.3327
   1424  C3'      -15.0500   18.9650    4.3810 C.3    70  DG70        0.1558
   1425  O3'      -13.8090   19.5570    4.0140 O.3    70  DG70       -0.3138
   1426  C2'      -15.3290   19.1130    5.8750 C.3    70  DG70        0.0865
   1427  C1'      -16.8340   18.8720    5.9080 C.3    70  DG70        0.2094
   1428  N9       -17.1420   17.4580    6.1090 N.ar   70  DG70       -0.2713
   1429  C8       -17.4590   16.4900    5.1870 C.ar   70  DG70        0.1816
   1430  N7       -17.5260   15.2920    5.7000 N.ar   70  DG70       -0.2173
   1431  C5       -17.2390   15.4760    7.0400 C.ar   70  DG70        0.1748
   1432  C6       -17.1600   14.5410    8.1040 C.ar   70  DG70        0.3023
   1433  O6       -17.3380   13.3170    8.0640 O.2    70  DG70       -0.2633
   1434  N1       -16.8380   15.1540    9.3120 N.ar   70  DG70       -0.1709
   1435  C2       -16.6190   16.5010    9.4750 C.ar   70  DG70        0.2606
   1436  N2       -16.3200   16.9050   10.7170 N.pl3  70  DG70       -0.0859
   1437  N3       -16.6880   17.3810    8.4960 N.ar   70  DG70       -0.1918
   1438  C4       -16.9990   16.8090    7.3130 C.ar   70  DG70        0.1722
   1439  P        -12.4430   18.7080    3.9980 P.3    71  DC71        0.2141
   1440  OP1      -11.6080   19.5530    3.1030 O.2    71  DC71       -0.5172
   1441  OP2      -12.9320   17.3860    3.5150 O.3    71  DC71       -0.4373
   1442  O5'      -11.6520   18.5000    5.3680 O.3    71  DC71       -0.3114
   1443  C5'      -11.2160   19.6280    6.1210 C.3    71  DC71        0.1811
   1444  C4'      -11.2710   19.3360    7.6030 C.3    71  DC71        0.1746
   1445  O4'      -12.5420   18.7040    7.9110 O.3    71  DC71       -0.3327
   1446  C3'      -10.2420   18.3330    8.1050 C.3    71  DC71        0.1558
   1447  O3'       -9.0220   19.0080    8.3900 O.3    71  DC71       -0.3138
   1448  C2'      -10.8960   17.7960    9.3750 C.3    71  DC71        0.0866
   1449  C1'      -12.3700   17.7890    8.9770 C.3    71  DC71        0.2106
   1450  N1       -13.0170   16.6920    8.6410 N.ar   71  DC71       -0.2556
   1451  C2       -13.4650   15.7580    9.5820 C.ar   71  DC71        0.3531
   1452  O2       -13.4240   16.0580   10.7880 O.2    71  DC71       -0.2443
   1453  N3       -13.9270   14.5590    9.1540 N.ar   71  DC71       -0.1739
   1454  C4       -13.9520   14.2800    7.8500 C.ar   71  DC71        0.1759
   1455  N4       -14.4160   13.0860    7.4760 N.pl3  71  DC71       -0.1070
   1456  C5       -13.5030   15.2130    6.8800 C.ar   71  DC71        0.0566
   1457  C6       -13.0470   16.3950    7.3070 C.ar   71  DC71        0.0849
   1458  P         -7.5730   18.0350    8.8380 P.3    72  DT72        0.2141
   1459  OP1       -6.2130   18.5090    8.4930 O.3    72  DT72       -0.4373
   1460  OP2       -8.0050   16.6840    8.4120 O.2    72  DT72       -0.5172
   1461  O5'       -7.8250   18.0580   10.4260 O.3    72  DT72       -0.3114
   1462  C5'       -7.3160   17.0630   11.3130 C.3    72  DT72        0.1811
   1463  C4'       -8.3030   16.7130   12.4050 C.3    72  DT72        0.1746
   1464  O4'       -9.6370   16.6370   11.8320 O.3    72  DT72       -0.3327
   1465  C3'       -8.1070   15.3610   13.0890 C.3    72  DT72        0.1558
   1466  O3'       -7.1540   15.3610   14.1410 O.3    72  DT72       -0.3138
   1467  C2'       -9.5120   14.9910   13.5510 C.3    72  DT72        0.0866
   1468  C1'      -10.3750   15.5960   12.4370 C.3    72  DT72        0.2105
   1469  N1       -10.6360   14.5890   11.3250 N.ar   72  DT72       -0.2591
   1470  C2       -11.4970   13.5450   11.6050 C.ar   72  DT72        0.3079
   1471  O2       -11.9860   13.3640   12.7060 O.3    72  DT72       -0.4110
   1472  N3       -11.7650   12.7130   10.5450 N.ar   72  DT72       -0.1567
   1473  C4       -11.2700   12.8180    9.2620 C.ar   72  DT72        0.2803
   1474  O4       -11.6040   11.9930    8.4150 O.2    72  DT72       -0.2654
   1475  C5       -10.3830   13.9270    9.0510 C.ar   72  DT72        0.0534
   1476  C6       -10.1050   14.7520   10.0640 C.ar   72  DT72        0.0823
   1477  C7        -9.7910   14.1270    7.6870 C.3    72  DT72        0.0377
   1478  P         -6.5300   13.9810   14.5950 P.3    73  DA73        0.2141
   1479  OP1       -5.2180   14.4890   15.0700 O.3    73  DA73       -0.4373
   1480  OP2       -6.5740   12.7920   13.6880 O.2    73  DA73       -0.5172
   1481  O5'       -7.4940   13.8050   15.8480 O.3    73  DA73       -0.3114
   1482  C5'       -8.1520   12.5860   16.0540 C.3    73  DA73        0.1812
   1483  C4'       -9.5830   12.6450   15.5720 C.3    73  DA73        0.1780
   1484  O4'       -9.6950   13.1030   14.1900 O.3    73  DA73       -0.3053
   1485  C3'      -10.1490   11.2410   15.5350 C.3    73  DA73        0.1597
   1486  O3'      -10.5220   10.7930   16.8170 O.3    73  DA73       -0.3137
   1487  C2'      -11.2750   11.3540   14.5290 C.3    73  DA73        0.1279
   1488  C1'      -10.6670   12.3100   13.4930 C.3    73  DA73        0.3180
   1489  N9        -9.7040   11.4310   12.4580 N.ar   73  DA73       -0.2415
   1490  C8        -8.4140   11.8130   12.1960 C.ar   73  DA73        0.1841
   1491  N7        -7.8990   11.2400   11.1330 N.ar   73  DA73       -0.2192
   1492  C5        -8.9190   10.4260   10.6670 C.ar   73  DA73        0.1519
   1493  C6        -9.0060    9.5540    9.5680 C.ar   73  DA73        0.1919
   1494  N6        -8.0090    9.3520    8.7040 N.pl3  73  DA73       -0.1054
   1495  N1       -10.1670    8.8900    9.3850 N.ar   73  DA73       -0.2040
   1496  C2       -11.1670    9.0940   10.2510 C.ar   73  DA73        0.2016
   1497  N3       -11.2050    9.8870   11.3190 N.ar   73  DA73       -0.2047
   1498  C4       -10.0360   10.5320   11.4740 C.ar   73  DA73        0.1716
   1499  P        -10.2300    9.3000   16.8360 P.3    74  DC74        0.2141
   1500  OP1      -11.6280    9.7330   17.0890 O.2    74  DC74       -0.5172
   1501  OP2       -9.3850    8.8790   17.9880 O.3    74  DC74       -0.4373
   1502  O5'      -10.2220    8.1030   15.7820 O.3    74  DC74       -0.3114
   1503  C5'      -10.9630    8.1920   14.5430 C.3    74  DC74        0.1810
   1504  C4'      -12.1390    7.2230   14.5500 C.3    74  DC74        0.1725
   1505  O4'      -11.7430    5.8760   14.1560 O.3    74  DC74       -0.3511
   1506  C3'      -12.9040    7.0750   15.8650 C.3    74  DC74        0.1538
   1507  O3'      -14.2910    7.0620   15.5800 O.3    74  DC74       -0.3139
   1508  C2'      -12.4840    5.6850   16.3480 C.3    74  DC74        0.0646
   1509  C1'      -12.3660    4.9550   15.0150 C.3    74  DC74        0.1449
   1510  N1       -11.3800    3.9190   13.5430 N.2    74  DC74       -0.1389
   1511  C2       -11.7100    2.8010   12.7690 C.1    74  DC74        0.3500
   1512  O2       -12.7980    2.7890   12.1690 O.2    74  DC74       -0.1766
   1513  N3       -10.8380    1.7670   12.6990 N.am   74  DC74        0.0897
   1514  C4        -9.6820    1.8230   13.3610 C.2    74  DC74        0.4204
   1515  N4        -8.8540    0.7800   13.2610 N.pl3  74  DC74        0.2150
   1516  C5        -9.3290    2.9470   14.1500 C.2    74  DC74        0.1183
   1517  C6       -10.1930    3.9660   14.2180 C.2    74  DC74        0.1222
   1518  P        -15.3280    8.0610   16.4110 P.3    75  DC75        0.2141
   1519  OP1      -15.7060    7.2040   17.5590 O.3    75  DC75       -0.4373
   1520  OP2      -16.3660    8.5700   15.4860 O.2    75  DC75       -0.5172
   1521  O5'      -14.5670    9.3720   16.9210 O.3    75  DC75       -0.3114
   1522  C5'      -15.3560   10.5190   17.1660 C.3    75  DC75        0.1811
   1523  C4'      -14.6990   11.7880   16.6950 C.3    75  DC75        0.1746
   1524  O4'      -13.9950   11.5840   15.4430 O.3    75  DC75       -0.3327
   1525  C3'      -15.6700   12.8970   16.3420 C.3    75  DC75        0.1558
   1526  O3'      -16.2920   13.4980   17.4590 O.3    75  DC75       -0.3138
   1527  C2'      -14.7990   13.8100   15.4970 C.3    75  DC75        0.0866
   1528  C1'      -14.1200   12.7460   14.6410 C.3    75  DC75        0.2106
   1529  N1       -15.2790   12.4490   13.4560 N.ar   75  DC75       -0.2556
   1530  C2       -15.4980   13.3090   12.3730 C.ar   75  DC75        0.3531
   1531  O2       -15.0920   14.4810   12.4490 O.2    75  DC75       -0.2443
   1532  N3       -16.1430   12.8400   11.2780 N.ar   75  DC75       -0.1739
   1533  C4       -16.5620   11.5740   11.2410 C.ar   75  DC75        0.1759
   1534  N4       -17.1930   11.1570   10.1420 N.pl3  75  DC75       -0.1070
   1535  C5       -16.3500   10.6870   12.3280 C.ar   75  DC75        0.0566
   1536  C6       -15.7120   11.1540   13.4070 C.ar   75  DC75        0.0849
   1537  P        -17.5680   13.0530   17.5650 P.3    76  DG76        0.2141
   1538  OP1      -17.9870   13.1210   18.9830 O.3    76  DG76       -0.4373
   1539  OP2      -18.0470   11.9430   16.7120 O.2    76  DG76       -0.5172
   1540  O5'      -18.0110   14.3740   16.7720 O.3    76  DG76       -0.3114
   1541  C5'      -17.4590   15.6210   17.1620 C.3    76  DG76        0.1811
   1542  C4'      -17.6500   16.7050   16.1270 C.3    76  DG76        0.1746
   1543  O4'      -17.0050   16.3410   14.8810 O.3    76  DG76       -0.3327
   1544  C3'      -19.0790   17.0240   15.7180 C.3    76  DG76        0.1558
   1545  O3'      -19.7480   17.8450   16.6560 O.3    76  DG76       -0.3138
   1546  C2'      -18.8890   17.7020   14.3710 C.3    76  DG76        0.0865
   1547  C1'      -17.7100   16.9160   13.8000 C.3    76  DG76        0.2094
   1548  N9       -18.1800   15.8550   12.9230 N.ar   76  DG76       -0.2713
   1549  C8       -18.0930   14.5080   13.1800 C.ar   76  DG76        0.1816
   1550  N7       -18.4200   13.7670   12.1560 N.ar   76  DG76       -0.2173
   1551  C5       -18.7400   14.6740   11.1640 C.ar   76  DG76        0.1748
   1552  C6       -19.1710   14.4680    9.8280 C.ar   76  DG76        0.3023
   1553  O6       -19.3580   13.3950    9.2410 O.2    76  DG76       -0.2633
   1554  N1       -19.3890   15.6690    9.1590 N.ar   76  DG76       -0.1709
   1555  C2       -19.2140   16.9160    9.7100 C.ar   76  DG76        0.2606
   1556  N2       -19.4730   17.9580    8.9080 N.pl3  76  DG76       -0.0859
   1557  N3       -18.8150   17.1240   10.9490 N.ar   76  DG76       -0.1918
   1558  C4       -18.5980   15.9710   11.6180 C.ar   76  DG76        0.1722
   1559  P        -21.2620   17.5020   17.0370 P.3    77  DT77        0.2141
   1560  OP1      -22.0520   18.1170   18.1270 O.3    77  DT77       -0.4373
   1561  OP2      -21.0420   16.0360   17.0180 O.2    77  DT77       -0.5172
   1562  O5'      -21.9180   17.8570   15.6320 O.3    77  DT77       -0.3114
   1563  C5'      -21.9890   19.2160   15.1640 C.3    77  DT77        0.1811
   1564  C4'      -22.6270   19.2530   13.7980 C.3    77  DT77        0.1746
   1565  O4'      -21.6650   18.8790   12.7700 O.3    77  DT77       -0.3327
   1566  C3'      -23.7580   18.2600   13.6120 C.3    77  DT77        0.1558
   1567  O3'      -24.9920   18.6820   14.1580 O.3    77  DT77       -0.3138
   1568  C2'      -23.8130   18.0750   12.1010 C.3    77  DT77        0.0866
   1569  C1'      -22.3370   18.1980   11.7160 C.3    77  DT77        0.2106
   1570  N1       -21.7620   16.8180   11.5150 N.ar   77  DT77       -0.2559
   1571  C2       -21.9670   16.1920   10.3000 C.ar   77  DT77        0.3545
   1572  O2       -22.4940   16.7430    9.3490 O.2    77  DT77       -0.2443
   1573  N3       -21.5320   14.8900   10.2360 N.ar   77  DT77       -0.1533
   1574  C4       -20.9260   14.1670   11.2420 C.ar   77  DT77        0.2804
   1575  O4       -20.5890   13.0050   11.0340 O.2    77  DT77       -0.2654
   1576  C5       -20.7490   14.8860   12.4730 C.ar   77  DT77        0.0534
   1577  C6       -21.1630   16.1530   12.5630 C.ar   77  DT77        0.0824
   1578  C7       -20.0990   14.1850   13.6290 C.3    77  DT77        0.0377
   1579  P        -26.0060   17.6260   14.4550 P.3    78  DG78        0.2141
   1580  OP1      -26.8020   18.4280   15.4050 O.3    78  DG78       -0.4373
   1581  OP2      -25.6510   16.2220   14.7790 O.2    78  DG78       -0.5172
   1582  O5'      -26.6480   17.6060   12.9640 O.3    78  DG78       -0.3114
   1583  C5'      -27.3240   18.7580   12.4380 C.3    78  DG78        0.1811
   1584  C4'      -27.9340   18.4960   11.0720 C.3    78  DG78        0.1746
   1585  O4'      -26.9140   18.1020   10.1740 O.3    78  DG78       -0.3327
   1586  C3'      -28.9170   17.3620   11.0070 C.3    78  DG78        0.1558
   1587  O3'      -30.1980   17.7880   11.3740 O.3    78  DG78       -0.3138
   1588  C2'      -28.8600   16.9240    9.5670 C.3    78  DG78        0.0865
   1589  C1'      -27.3910   17.1490    9.2440 C.3    78  DG78        0.2094
   1590  N9       -26.5760   15.8430    9.5970 N.ar   78  DG78       -0.2713
   1591  C8       -25.9810   15.5320   10.7950 C.ar   78  DG78        0.1816
   1592  N7       -25.3460   14.3920   10.7740 N.ar   78  DG78       -0.2173
   1593  C5       -25.5300   13.9210    9.4870 C.ar   78  DG78        0.1748
   1594  C6       -25.0770   12.7280    8.8670 C.ar   78  DG78        0.3023
   1595  O6       -24.3950   11.8200    9.3600 O.2    78  DG78       -0.2633
   1596  N1       -25.4910   12.6400    7.5410 N.ar   78  DG78       -0.1709
   1597  C2       -26.2480   13.5860    6.8920 C.ar   78  DG78        0.2606
   1598  N2       -26.5480   13.3260    5.6120 N.pl3  78  DG78       -0.0859
   1599  N3       -26.6770   14.6980    7.4550 N.ar   78  DG78       -0.1918
   1600  C4       -26.2880   14.8040    8.7430 C.ar   78  DG78        0.1722
   1601  P        -30.7470   16.7950   12.2640 P.3    79  DA79        0.2141
   1602  OP1      -31.7400   17.4940   13.1100 O.3    79  DA79       -0.4373
   1603  OP2      -29.4760   16.3180   12.8550 O.2    79  DA79       -0.5172
   1604  O5'      -31.4780   15.5700   11.5370 O.3    79  DA79       -0.3114
   1605  C5'      -32.5610   15.8120   10.6480 C.3    79  DA79        0.1812
   1606  C4'      -32.6330   14.7350    9.5830 C.3    79  DA79        0.1775
   1607  O4'      -31.3740   14.6520    8.8730 O.3    79  DA79       -0.3326
   1608  C3'      -32.8420   13.3300   10.1140 C.3    79  DA79        0.1864
   1609  O3'      -34.2230   13.1190   10.3500 O.3    79  DA79       -0.2133
   1610  C2'      -32.3200   12.4910    8.9520 C.3    79  DA79        0.0894
   1611  C1'      -31.1130   13.3080    8.5080 C.3    79  DA79        0.2095
   1612  N9       -29.9200   12.8940    9.1470 N.ar   79  DA79       -0.2714
   1613  C8       -29.3310   13.4890   10.2320 C.ar   79  DA79        0.1815
   1614  N7       -28.2470   12.8770   10.6470 N.ar   79  DA79       -0.2193
   1615  C5       -28.1160   11.8070    9.7760 C.ar   79  DA79        0.1518
   1616  C6       -27.1660   10.7750    9.6810 C.ar   79  DA79        0.1919
   1617  N6       -26.1240   10.6510   10.5070 N.pl3  79  DA79       -0.1054
   1618  N1       -27.3250    9.8650    8.6970 N.ar   79  DA79       -0.2040
   1619  C2       -28.3680    9.9910    7.8690 C.ar   79  DA79        0.2016
   1620  N3       -29.3260   10.9150    7.8570 N.ar   79  DA79       -0.2048
   1621  C4       -29.1400   11.8040    8.8470 C.ar   79  DA79        0.1691
   1622  P        -34.7200   11.8350   11.1560 P.3    80  DA80        0.3939
   1623  OP1      -35.5140   11.3960   12.3350 O.3    80  DA80       -0.1425
   1624  OP2      -33.3840   12.4590   11.3590 O.3    80  DA80       -0.1496
   1625  O5'      -34.5330   10.6070   10.1560 O.3    80  DA80       -0.2926
   1626  C5'      -33.9650    9.3920   10.6180 C.3    80  DA80        0.1828
   1627  C4'      -34.2690    8.2590    9.6680 C.3    80  DA80        0.1754
   1628  O4'      -33.3590    8.3130    8.5330 O.3    80  DA80       -0.3510
   1629  C3'      -34.0040    6.9020   10.2980 C.3    80  DA80        0.1839
   1630  O3'      -35.1220    6.4600   11.0530 O.3    80  DA80       -0.2204
   1631  C2'      -33.6610    6.0270    9.1000 C.3    80  DA80        0.0676
   1632  C1'      -32.8750    7.0110    8.2330 C.3    80  DA80        0.1450
   1633  N9       -30.9220    7.9410   10.2470 N.ar   80  DA80       -0.2032
   1634  C8       -30.8040    9.1050   10.9600 C.ar   80  DA80        0.2005
   1635  N7       -29.5950    9.3240   11.4190 N.ar   80  DA80       -0.2179
   1636  C5       -28.8690    8.2290   10.9790 C.ar   80  DA80        0.1534
   1637  C6       -27.5200    7.8630   11.1340 C.ar   80  DA80        0.1919
   1638  N6       -26.6280    8.5960   11.8050 N.pl3  80  DA80       -0.1054
   1639  N1       -27.1160    6.7050   10.5700 N.ar   80  DA80       -0.2040
   1640  C2       -28.0110    5.9720    9.8980 C.ar   80  DA80        0.2016
   1641  N3       -29.3030    6.2110    9.6830 N.ar   80  DA80       -0.2031
   1642  C4       -29.6730    7.3680   10.2560 C.ar   80  DA80        0.1862
@<TRIPOS>BOND
     1   622   621    2
     2   537   536    2
     3   602   601    2
     4   605   606    1
     5   605   604    1
     6   524   536    1
     7   524   523    1
     8   536   538    1
     9   536   539    1
    10   609   621    1
    11   609   608    1
    12   621   623    1
    13   621   624    1
    14   520   521    1
    15   520   519    1
    16   521   523    1
    17   521   522    1
    18   606   608    1
    19   606   607    1
    20   540   539    1
    21   540   541    1
    22   601   604    1
    23   601   588    1
    24   601   603    1
    25   588   587    1
    26   523   525    1
    27   625   624    1
    28   625   626    1
    29   608   610    1
    30   517   516    2
    31   525   526    1
    32   522   526    1
    33   541   543    1
    34   541   542    1
    35   544   543    1
    36   607   611    1
    37   505   516    1
    38   505   504    1
    39   543   545    1
    40   519   516    1
    41   643   642    2
    42   526   527    1
    43   516   518    1
    44   587   589    1
    45   587   585    1
    46   589   590    1
    47   585   584    1
    48   585   586    1
    49   610   611    1
    50   644   642    1
    51   506   504    1
    52   506   507    1
    53   559   558    2
    54   626   628    1
    55   626   627    1
    56   502   504    1
    57   502   503    1
    58   502   501    1
    59   584   583    1
    60   629   642    1
    61   629   628    1
    62   642   645    1
    63   611   612    1
    64   542   546    1
    65   558   560    2
    66   558   561    1
    67   507   503    1
    68   507   508    1
    69   501   500    1
    70   628   630    1
    71   590   586    1
    72   590   591    1
    73   545   546    1
    74   331   330    2
    75   627   631    1
    76   527   534   ar
    77   527   528   ar
    78   510   509    2
    79   529   528    2
    80   546   547    1
    81   583   580    1
    82   310   309    2
    83   564   563    1
    84   564   568    1
    85   612   619   ar
    86   612   613   ar
    87   619   618   ar
    88   534   533   ar
    89   566   580    1
    90   566   565    1
    91   599   600   ar
    92   599   598   ar
    93   528   530   ar
    94   561   562    1
    95   645   646    1
    96   563   562    1
    97   563   565    1
    98   508   509   ar
    99   508   515   ar
   100   591   600   ar
   101   591   592   ar
   102   317   330    1
   103   317   316    1
   104   630   631    1
   105   500   497    1
   106   577   576    1
   107   509   511   ar
   108   313   314    1
   109   313   312    1
   110   581   580    2
   111   548   547    1
   112   548   549    2
   113   547   557    1
   114   631   632    1
   115   330   332    1
   116   330   333    1
   117   661   659    1
   118   600   594   ar
   119   580   582    1
   120   633   632   ar
   121   633   634   ar
   122   486   487    1
   123   486   484    1
   124   568   567    1
   125   568   569    1
   126   314   316    1
   127   314   315    1
   128   646   647    1
   129   598   597   ar
   130   485   497    1
   131   485   484    1
   132   490   489    2
   133   565   567    1
   134   664   662    2
   135   298   309    1
   136   298   297    1
   137   618   620    1
   138   618   616   ar
   139   613   614    2
   140   613   615   ar
   141   498   497    2
   142   334   333    1
   143   334   335    1
   144   309   312    1
   145   309   311    1
   146   515   514   ar
   147   497   499    1
   148   632   641   ar
   149   592   593   ar
   150   578   576    1
   151   578   579    2
   152   533   535    1
   153   533   531   ar
   154   487   483    1
   155   487   488    1
   156   316   318    1
   157   482   484    1
   158   482   483    1
   159   482   481    1
   160   576   575    2
   161   530   531   ar
   162   549   550    1
   163   511   512   ar
   164   634   635   ar
   165   567   569    1
   166   353   352    2
   167   557   556    2
   168   557   550    1
   169   663   662    1
   170   315   319    1
   171   662   650    1
   172   662   665    1
   173   659   660   ar
   174   659   657   ar
   175   489   488   ar
   176   489   491   ar
   177   594   593   ar
   178   594   595   ar
   179   531   532    2
   180   318   319    1
   181   681   679    1
   182   597   595   ar
   183   615   616   ar
   184   481   480    1
   185   297   299    1
   186   297   295    1
   187   647   649    1
   188   647   648    1
   189   488   495   ar
   190   616   617    2
   191   299   300    1
   192   650   649    1
   193   295   294    1
   194   295   296    1
   195   660   653   ar
   196   474   475   ar
   197   474   473   ar
   198   556   554    1
   199   579   569    1
   200   579   572    1
   201   514   512   ar
   202   649   651    1
   203   335   337    1
   204   335   336    1
   205   550   551    1
   206   575   573    1
   207   294   293    1
   208   338   352    1
   209   338   337    1
   210   641   635   ar
   211   641   640   ar
   212   569   570    1
   213   352   354    1
   214   352   355    1
   215   512   513    1
   216   475   476   ar
   217   319   320    1
   218   658   657    2
   219   595   596    1
   220   635   636   ar
   221   453   452    1
   222   648   652    1
   223   657   656   ar
   224   473   471   ar
   225   491   492   ar
   226   293   290    1
   227   337   339    1
   228   665   666    1
   229   336   340    1
   230   296   300    1
   231   640   639   ar
   232   480   477    1
   233   300   301    1
   234   495   494   ar
   235   572   573    1
   236   572   571    2
   237   679   680   ar
   238   679   677   ar
   239   653   652    1
   240   653   654   ar
   241   554   555    2
   242   554   553    2
   243   573   574    2
   244   678   677    2
   245   570   555    1
   246   570   571    1
   247   651   652    1
   248   551   553    1
   249   551   552    2
   250   465   466    1
   251   465   463    1
   252   476   467   ar
   253   476   470   ar
   254   355   356    1
   255   636   637    1
   256   636   638   ar
   257   320   321   ar
   258   320   329   ar
   259   452   451   ar
   260   452   454   ar
   261   451   449   ar
   262   291   290    2
   263   478   477    2
   264   656   654   ar
   265   680   673   ar
   266   471   470   ar
   267   471   472    1
   268   677   676   ar
   269   303   302    2
   270   492   494   ar
   271   492   493    2
   272   321   322   ar
   273   339   340    1
   274   666   667    1
   275   290   278    1
   276   290   292    1
   277   466   467    1
   278   466   462    1
   279   494   496    1
   280   654   655    2
   281   639   638   ar
   282   340   341    1
   283   301   302   ar
   284   301   308   ar
   285   477   464    1
   286   477   479    1
   287   467   468   ar
   288   470   469   ar
   289   356   357    1
   290   464   463    1
   291   302   304   ar
   292   278   277    1
   293   342   341   ar
   294   342   343   ar
   295   463   461    1
   296   454   455   ar
   297   671   669    1
   298   671   672    1
   299   450   449    2
   300   329   328   ar
   301   329   323   ar
   302   449   448   ar
   303   392   390    1
   304   308   307   ar
   305   341   351   ar
   306   328   327   ar
   307   673   672    1
   308   673   674   ar
   309   322   323   ar
   310   676   674   ar
   311   669   667    1
   312   669   670    1
   313   667   668    1
   314   462   461    1
   315   375   373    2
   316   365   364   ar
   317   365   366   ar
   318   389   388    2
   319   668   672    1
   320   364   363   ar
   321   822   821    1
   322   279   277    1
   323   279   280    1
   324   461   460    1
   325   468   469   ar
   326   343   344   ar
   327   277   275    1
   328   323   324   ar
   329   698   697    1
   330   304   305   ar
   331   357   358    1
   332   357   359    1
   333   455   448   ar
   334   455   445   ar
   335   684   682    2
   336   674   675    2
   337   409   408    2
   338   358   362    1
   339   448   447   ar
   340   307   305   ar
   341   390   388   ar
   342   390   391   ar
   343   368   367    1
   344   351   344   ar
   345   351   350    1
   346   388   387   ar
   347   327   326   ar
   348   373   374    1
   349   373   360    1
   350   373   376    1
   351   695   696   ar
   352   695   694   ar
   353   431   430    1
   354   366   367   ar
   355   366   372   ar
   356   305   306    1
   357   670   682    1
   358   359   360    1
   359   359   361    1
   360   835   831    1
   361   835   834    1
   362   835   836    1
   363   344   345    1
   364   831   830    1
   365   821   823   ar
   366   821   820   ar
   367   363   362    1
   368   363   372   ar
   369   834   832    1
   370   275   276    1
   371   275   274    1
   372   280   281    1
   373   280   276    1
   374   697   696   ar
   375   697   699   ar
   376   830   832    1
   377   830   829    1
   378   823   824   ar
   379   460   459    1
   380   844   843   ar
   381   844   845   ar
   382   367   369   ar
   383   324   326   ar
   384   324   325    1
   385   682   683    1
   386   682   685    1
   387   350   348    1
   388   445   444    1
   389   445   446   ar
   390   362   361    1
   391   408   410   ar
   392   408   407   ar
   393   283   282    2
   394   833   832    1
   395   833   846    1
   396   696   702   ar
   397   694   693   ar
   398   447   446   ar
   399   443   444    1
   400   443   441    1
   401   429   430   ar
   402   429   427   ar
   403   391   384   ar
   404   843   842   ar
   405   850   851    1
   406   850   849    1
   407   444   440    1
   408   372   371   ar
   409   885   884   ar
   410   885   886   ar
   411   387   385   ar
   412   884   883   ar
   413   430   432   ar
   414   820   818   ar
   415   410   411   ar
   416   376   377    1
   417   719   718    2
   418   271   270    2
   419   282   281   ar
   420   282   284   ar
   421   281   288   ar
   422   872   876    1
   423   872   871    1
   424   847   846    2
   425   459   456    1
   426   836   845   ar
   427   836   837   ar
   428   274   273    1
   429   273   270    1
   430   876   877    1
   431   876   875    1
   432   851   852    1
   433   851   853    1
   434   845   839   ar
   435   829   828    1
   436   883   881   ar
   437   852   856    1
   438   886   877    1
   439   886   880   ar
   440   345   346    2
   441   345   347    1
   442   699   700   ar
   443   722   720    1
   444   877   878    1
   445   796   795    2
   446   846   849    1
   447   846   848    1
   448   812   813    1
   449   812   810    1
   450   284   285   ar
   451   272   270    1
   452   406   407   ar
   453   406   405   ar
   454   407   414   ar
   455   288   287   ar
   456   813   814    1
   457   813   809    1
   458   348   347    2
   459   348   349    2
   460   824   814   ar
   461   824   817   ar
   462   686   685    1
   463   686   687    1
   464   428   427    2
   465   270   256    1
   466   881   880   ar
   467   881   882    1
   468   369   370   ar
   469   880   879    1
   470   842   840   ar
   471   427   426   ar
   472   878   879    1
   473   702   693   ar
   474   702   701   ar
   475   693   692    1
   476   384   385   ar
   477   384   383    1
   478   718   720   ar
   479   718   717   ar
   480   871   870    1
   481   871   873    1
   482   458   456    2
   483   879   856    1
   484   879   855    1
   485   385   386    2
   486   837   838   ar
   487   371   370   ar
   488   287   285   ar
   489   287   289    1
   490   440   439    1
   491   285   286    2
   492   441   442    1
   493   441   439    1
   494   432   433   ar
   495   739   738    2
   496   875   873    1
   497   814   815   ar
   498   839   840   ar
   499   839   838   ar
   500   818   817   ar
   501   818   819    2
   502   377   378    1
   503   411   412    1
   504   411   413   ar
   505   809   808    1
   506   856   855    1
   507   856   857    1
   508   395   393    2
   509   720   721   ar
   510   854   853    1
   511   854   866    1
   512   442   456    1
   513   456   457    1
   514   349   776    1
   515   828   825    1
   516   853   855    1
   517   840   841    1
   518   795   797   ar
   519   795   794   ar
   520   870   869    1
   521   700   701   ar
   522   817   816   ar
   523   705   703    2
   524   797   798   ar
   525   808   810    1
   526   808   807    1
   527   811   810    1
   528   811   825    1
   529   776   775    1
   530   405   404   ar
   531   414   413   ar
   532   414   404   ar
   533   439   438    1
   534   717   715   ar
   535   379   383    1
   536   379   378    1
   537   687   688    1
   538   687   689    1
   539   867   866    2
   540   380   378    1
   541   380   382    1
   542   380   381    1
   543   426   433   ar
   544   426   425    1
   545   873   874    1
   546   383   382    1
   547   256   255    1
   548   688   692    1
   549   689   691    1
   550   689   690    1
   551   857   864   ar
   552   857   858   ar
   553   692   691    1
   554   897   893    1
   555   897   898    1
   556   897   896    1
   557   900   899    2
   558   893   892    1
   559   869   866    1
   560   738   737   ar
   561   738   740   ar
   562   864   863   ar
   563   815   816   ar
   564   721   714   ar
   565   777   775    2
   566   777   778    2
   567   793   794    1
   568   793   792    1
   569   793   789    1
   570   825   826    2
   571   825   827    1
   572   859   858    2
   573   794   801   ar
   574   404   403    1
   575   775   774    1
   576   381   393    1
   577   866   868    1
   578   737   735   ar
   579   799   798    1
   580   799   779    1
   581   899   898   ar
   582   899   901   ar
   583   798   800   ar
   584   759   249    1
   585   759   758    1
   586   858   860   ar
   587   874   887    1
   588   393   396    1
   589   393   394    1
   590   898   905   ar
   591   703   690    1
   592   703   706    1
   593   703   704    1
   594   792   790    1
   595   807   806    1
   596   255   257    1
   597   255   253    1
   598   896   894    1
   599   901   902   ar
   600   892   891    1
   601   892   894    1
   602   757   758   ar
   603   757   755   ar
   604   742   740    1
   605   715   714   ar
   606   715   716    2
   607   779   778    1
   608   863   865    1
   609   863   861   ar
   610   438   437    1
   611   425   424    1
   612   425   421    1
   613   905   904   ar
   614   250   248    2
   615   789   788    1
   616   257   258    1
   617   756   755    2
   618   714   713    1
   619   740   741   ar
   620   249   248    1
   621   437   434    1
   622   778   780    1
   623   396   397    1
   624   902   904   ar
   625   902   903    1
   626   758   760   ar
   627   424   422    1
   628   860   861   ar
   629   267   266    1
   630   706   707    1
   631   265   266   ar
   632   265   263   ar
   633   801   800   ar
   634   891   890    1
   635   264   263    2
   636   266   268   ar
   637   755   754   ar
   638   800   802    1
   639   861   862    2
   640   774   773    1
   641   774   781    1
   642   263   262   ar
   643   735   736    2
   644   735   734   ar
   645   248   251    1
   646   248   234    1
   647   894   895    1
   648   251   252    1
   649   806   803    1
   650   268   269   ar
   651   403   399    1
   652   403   402    1
   653   773   772    1
   654   773   769    1
   655   417   415    2
   656   890   887    1
   657   262   269   ar
   658   262   261   ar
   659   269   259   ar
   660   788   790    1
   661   788   787    1
   662   399   398    1
   663   397   398    1
   664   790   791    1
   665   400   402    1
   666   400   398    1
   667   400   401    1
   668   261   260   ar
   669   421   420    1
   670   253   252    1
   671   253   254    1
   672   887   888    2
   673   887   889    1
   674   259   260   ar
   675   259   258    1
   676   912   916    1
   677   912   911    1
   678   422   423    1
   679   422   420    1
   680   709   713    1
   681   709   708    1
   682   772   770    1
   683   436   434    2
   684   741   734   ar
   685   713   712    1
   686   791   803    1
   687   895   906    1
   688   258   254    1
   689   780   781    2
   690   780   782    1
   691   434   423    1
   692   434   435    1
   693   734   733    1
   694   760   762    1
   695   760   761   ar
   696   418   415    1
   697   418   419    1
   698   916   917    1
   699   916   915    1
   700   707   708    1
   701   769   768    1
   702   754   761   ar
   703   754   753    1
   704   401   415    1
   705   803   805    2
   706   803   804    1
   707   420   419    1
   708   917   924   ar
   709   917   918   ar
   710   911   910    1
   711   911   913    1
   712   415   416    1
   713   924   923   ar
   714   910   909    1
   715   234   233    1
   716   919   918    2
   717   708   710    1
   718   787   786    1
   719   918   920   ar
   720   923   921   ar
   721   712   710    1
   722   710   711    1
   723   920   921   ar
   724   921   922    1
   725   753   752    1
   726   753   749    1
   727   770   768    1
   728   770   771    1
   729   915   913    1
   730   906   909    1
   731   906   907    2
   732   906   908    1
   733   786   783    1
   734   725   723    2
   735   233   235    1
   736   233   231    1
   737   768   767    1
   738   733   729    1
   739   733   732    1
   740   242   241    2
   741   243   241   ar
   742   243   244   ar
   743   235   236    1
   744   245   244    1
   745   241   240   ar
   746   752   750    1
   747   913   914    1
   748   244   246   ar
   749   771   783    1
   750   729   728    1
   751   240   247   ar
   752   240   239   ar
   753   749   748    1
   754   246   247   ar
   755   247   237   ar
   756   711   723    1
   757   732   730    1
   758   239   238   ar
   759   723   726    1
   760   723   724    1
   761   726   727    1
   762   783   785    2
   763   783   784    1
   764   229   230    1
   765   229   226    1
   766   914   925    1
   767   767   766    1
   768   228   226    2
   769   238   237   ar
   770   237   236    1
   771   231   230    1
   772   231   232    1
   773   766   763    1
   774   236   232    1
   775   227   226    1
   776   750   748    1
   777   750   751    1
   778   931   935    1
   779   931   930    1
   780   226   213    1
   781   730   728    1
   782   730   731    1
   783   728   727    1
   784   748   747    1
   785   929   930    1
   786   929   928    1
   787   935   936    1
   788   935   934    1
   789   746   747    1
   790   746   743    1
   791   930   932    1
   792   745   743    2
   793   751   763    1
   794   765   763    2
   795   936   943   ar
   796   936   937   ar
   797   943   942   ar
   798   763   764    1
   799   221   220    1
   800   925   928    1
   801   925   926    2
   802   925   927    1
   803   222   220   ar
   804   222   223   ar
   805   938   937    2
   806   942   940   ar
   807   937   939   ar
   808   731   743    1
   809   220   219   ar
   810   213   212    1
   811   743   744    1
   812   939   940   ar
   813   940   941    1
   814   223   224   ar
   815   934   932    1
   816   219   225   ar
   817   219   218   ar
   818   212   214    1
   819   212   210    1
   820   224   225   ar
   821   214   215    1
   822   932   933    1
   823   225   216   ar
   824   218   217   ar
   825   217   216   ar
   826   216   215    1
   827   933   944    1
   828   215   211    1
   829   210   209    1
   830   210   211    1
   831   207   205    2
   832   208   209    1
   833   208   205    1
   834   206   205    1
   835  1376  1375    2
   836   205   191    1
   837  1398  1397    2
   838   944   946    2
   839   944   947    1
   840   944   945    1
   841   950   954    1
   842   950   949    1
   843   961   962   ar
   844   961   959   ar
   845   962   955   ar
   846   947   948    1
   847   960   959    1
   848   948   949    1
   849   959   958   ar
   850   955   954    1
   851   955   956   ar
   852   958   956   ar
   853   199   198    2
   854   954   953    1
   855   956   957    2
   856   185   183    2
   857  1397  1383    1
   858  1397  1399    1
   859  1397  1400    1
   860   949   951    1
   861   191   190    1
   862  1383  1382    1
   863  1379  1378    1
   864  1379  1380    1
   865  1375  1364    1
   866  1375  1378    1
   867  1375  1377    1
   868   184   183    1
   869   198   200   ar
   870   198   197   ar
   871  1418  1417    2
   872   200   201   ar
   873   196   197   ar
   874   196   195   ar
   875  1364  1363    1
   876   197   204   ar
   877   190   188    1
   878   190   192    1
   879   187   188    1
   880   187   186    1
   881   183   186    1
   882   183   170    1
   883  1401  1400    1
   884  1401  1402    1
   885  1380  1382    1
   886  1380  1381    1
   887   195   194   ar
   888   201   202    1
   889   201   203   ar
   890  1357  1356    2
   891   204   203   ar
   892   204   194   ar
   893  1382  1384    1
   894   164   162    2
   895   953   951    1
   896   951   952    1
   897   194   193    1
   898  1417  1419    1
   899  1417  1405    1
   900  1417  1420    1
   901  1359  1360    1
   902  1359  1356    1
   903   188   189    1
   904  1405  1404    1
   905   192   193    1
   906  1360  1361    1
   907   163   162    1
   908  1363  1361    1
   909  1363  1365    1
   910   170   169    1
   911  1361  1362    1
   912   144   143    2
   913  1356  1342    1
   914  1356  1358    1
   915  1402  1404    1
   916  1402  1403    1
   917   145   143    1
   918   162   165    1
   919   162   151    1
   920  1381  1385    1
   921  1384  1385    1
   922   952   963    1
   923   165   166    1
   924   189   193    1
   925  1404  1406    1
   926   169   171    1
   927   169   167    1
   928   123   122    2
   929  1342  1341    1
   930  1365  1366    1
   931  1420  1421    1
   932   143   146    1
   933   143   130    1
   934   979   978    2
   935   166   167    1
   936   982   980    1
   937  1385  1386    1
   938  1421  1422    1
   939   175   174   ar
   940   175   176   ar
   941   978   980   ar
   942   978   977   ar
   943   178   177    1
   944   980   981   ar
   945  1403  1407    1
   946   104   103    2
   947   151   150    1
   948   146   147    1
   949   174   173   ar
   950   171   172    1
   951   167   168    1
   952  1362  1366    1
   953   977   975   ar
   954   981   974   ar
   955   176   177   ar
   956   176   182   ar
   957   177   179   ar
   958   124   122    1
   959  1416  1414    1
   960   147   148    1
   961   969   973    1
   962   969   968    1
   963   975   974   ar
   964   975   976    2
   965   974   973    1
   966   150   148    1
   967   150   152    1
   968   122   111    1
   969   122   125    1
   970  1440  1439    2
   971  1335  1334    2
   972   173   182   ar
   973   173   172    1
   974  1406  1407    1
   975   963   965    2
   976   963   966    1
   977   963   964    1
   978  1366  1367    1
   979   130   129    1
   980   966   967    1
   981   182   181   ar
   982   168   172    1
   983  1341  1339    1
   984  1341  1343    1
   985  1415  1414   ar
   986  1415  1408   ar
   987   179   180   ar
   988  1386  1387   ar
   989  1386  1396   ar
   990   160   161   ar
   991   160   158   ar
   992  1387  1388   ar
   993  1441  1439    1
   994   967   968    1
   995   159   158    1
   996   973   972    1
   997  1407  1408    1
   998  1339  1338    1
   999  1339  1340    1
  1000    82    81    2
  1001   161   154   ar
  1002   148   149    1
  1003  1422  1424    1
  1004  1422  1423    1
  1005   103   105    1
  1006   103   106    1
  1007   103    89    1
  1008   180   181   ar
  1009  1414  1412   ar
  1010  1343  1344    1
  1011  1338  1337    1
  1012   158   157   ar
  1013   111   110    1
  1014  1439  1425    1
  1015  1439  1442    1
  1016  1425  1424    1
  1017   125   126    1
  1018   129   127    1
  1019   129   131    1
  1020   968   970    1
  1021   152   153    1
  1022  1408  1409   ar
  1023   126   127    1
  1024  1424  1426    1
  1025  1367  1374   ar
  1026  1367  1368   ar
  1027  1334  1337    1
  1028  1334  1336    1
  1029  1334  1322    1
  1030  1374  1373   ar
  1031  1388  1389   ar
  1032   106   107    1
  1033  1396  1395   ar
  1034  1396  1389   ar
  1035   154   153    1
  1036   154   155   ar
  1037  1423  1427    1
  1038   157   155   ar
  1039   107   108    1
  1040   149   153    1
  1041   127   128    1
  1042   999   998    2
  1043  1395  1393   ar
  1044  1340  1344    1
  1045   110   108    1
  1046   110   112    1
  1047    89    88    1
  1048   972   970    1
  1049   155   156    2
  1050   131   132    1
  1051  1344  1345    1
  1052  1429  1430   ar
  1053  1429  1428   ar
  1054  1369  1368    2
  1055    81    83    1
  1056    81    68    1
  1057    81    84    1
  1058  1412  1413    2
  1059  1412  1411   ar
  1060   970   971    1
  1061  1368  1370   ar
  1062  1389  1390   ar
  1063  1442  1443    1
  1064    61    60    2
  1065  1373  1371   ar
  1066  1409  1411   ar
  1067  1409  1410    2
  1068   108   109    1
  1069    85    84    1
  1070    85    86    1
  1071  1598  1597    1
  1072   998   997   ar
  1073   998  1000   ar
  1074  1322  1321    1
  1075  1430  1431   ar
  1076   997   995   ar
  1077  1426  1427    1
  1078    68    67    1
  1079  1427  1428    1
  1080   134   135   ar
  1081   134   133   ar
  1082   135   136   ar
  1083  1002  1000    1
  1084  1428  1438   ar
  1085  1443  1444    1
  1086   128   132    1
  1087  1393  1394    1
  1088  1393  1392   ar
  1089   132   133    1
  1090  1000  1001   ar
  1091    88    86    1
  1092    88    90    1
  1093  1370  1371   ar
  1094   112   113    1
  1095  1345  1355   ar
  1096  1345  1346   ar
  1097   133   142   ar
  1098  1371  1372    1
  1099    86    87    1
  1100   971   983    1
  1101  1354  1355   ar
  1102  1354  1352   ar
  1103   995   996    2
  1104   995   994   ar
  1105   136   142   ar
  1106   136   137   ar
  1107  1390  1392   ar
  1108  1390  1391    2
  1109    60    63    1
  1110    60    62    1
  1111    60    49    1
  1112  1456  1457   ar
  1113  1456  1454   ar
  1114   142   141   ar
  1115  1597  1599   ar
  1116  1597  1596   ar
  1117   985   983    2
  1118   138   137    1
  1119   109   113    1
  1120  1355  1348   ar
  1121  1001   994   ar
  1122  1321  1323    1
  1123  1321  1319    1
  1124  1346  1347   ar
  1125  1431  1438   ar
  1126  1431  1432   ar
  1127   137   139   ar
  1128  1353  1352    1
  1129    64    63    1
  1130    64    65    1
  1131   994   993    1
  1132    67    65    1
  1133    67    69    1
  1134  1323  1324    1
  1135  1457  1450   ar
  1136  1352  1351   ar
  1137  1438  1437   ar
  1138   113   114    1
  1139   121   114   ar
  1140   121   120   ar
  1141  1599  1600   ar
  1142   141   140   ar
  1143  1455  1454    1
  1144    90    91    1
  1145    65    66    1
  1146  1596  1594   ar
  1147  1444  1445    1
  1148  1444  1446    1
  1149   139   140   ar
  1150  1477  1475    1
  1151    49    48    1
  1152   114   115   ar
  1153   120   118   ar
  1154  1454  1453   ar
  1155    87    91    1
  1156  1620  1619   ar
  1157  1620  1621   ar
  1158  1619  1618   ar
  1159   993   989    1
  1160   993   992    1
  1161   983   986    1
  1162   983   984    1
  1163  1445  1449    1
  1164  1348  1347   ar
  1165  1348  1349   ar
  1166  1319  1318    1
  1167  1319  1320    1
  1168   989   988    1
  1169  1433  1432    2
  1170  1432  1434   ar
  1171  1446  1447    1
  1172  1446  1448    1
  1173  1632  1628    1
  1174  1632  1631    1
  1175  1351  1349   ar
  1176    69    70    1
  1177  1318  1317    1
  1178    42    41    2
  1179  1447  1458    1
  1180  1460  1458    2
  1181  1474  1473    2
  1182   986   987    1
  1183   115   116    2
  1184   115   117   ar
  1185   118   117   ar
  1186   118   119    1
  1187  1459  1458    1
  1188  1437  1435   ar
  1189  1019  1018    2
  1190  1611  1607    1
  1191  1611  1610    1
  1192  1611  1612    1
  1193  1628  1627    1
  1194    91    92    1
  1195  1450  1449    1
  1196  1450  1451   ar
  1197  1349  1350    2
  1198  1618  1616   ar
  1199  1494  1493    1
  1200  1600  1593   ar
  1201  1600  1590   ar
  1202  1017  1018   ar
  1203  1017  1015   ar
  1204  1324  1320    1
  1205  1324  1325    1
  1206  1315  1314    2
  1207  1458  1461    1
  1208  1621  1612   ar
  1209  1621  1615   ar
  1210  1594  1595    2
  1211  1594  1593   ar
  1212  1607  1606    1
  1213  1556  1555    1
  1214  1018  1020   ar
  1215  1610  1608    1
  1216    66    70    1
  1217  1449  1448    1
  1218  1016  1015    2
  1219  1327  1326    2
  1220  1475  1473   ar
  1221  1475  1476   ar
  1222  1317  1314    1
  1223    45    46    1
  1224    45    44    1
  1225    48    46    1
  1226    48    50    1
  1227  1631  1629    1
  1228  1612  1613   ar
  1229  1453  1451   ar
  1230  1554  1555   ar
  1231  1554  1552   ar
  1232  1015  1014   ar
  1233    93    92   ar
  1234    93    94   ar
  1235    92   102   ar
  1236  1553  1552    2
  1237  1589  1588    1
  1238  1589  1590    1
  1239  1589  1585    1
  1240  1473  1472   ar
  1241   992   990    1
  1242   988   987    1
  1243   988   990    1
  1244  1434  1435   ar
  1245  1572  1571    2
  1246  1042  1041    1
  1247  1495  1493   ar
  1248  1495  1496   ar
  1249  1435  1436    1
  1250  1593  1592   ar
  1251    70    71    1
  1252    46    47    1
  1253  1020  1022    1
  1254  1020  1021   ar
  1255  1588  1586    1
  1256  1493  1492   ar
  1257  1451  1452    2
  1258  1606  1608    1
  1259  1606  1605    1
  1260    44    41    1
  1261  1590  1591   ar
  1262  1040  1041   ar
  1263  1040  1038   ar
  1264    41    43    1
  1265    41    27    1
  1266  1627  1629    1
  1267  1627  1626    1
  1268  1325  1326   ar
  1269  1325  1332   ar
  1270  1616  1615   ar
  1271  1616  1617    1
  1272  1641  1640   ar
  1273  1641  1642   ar
  1274  1326  1328   ar
  1275  1555  1557   ar
  1276  1314  1316    1
  1277  1314  1301    1
  1278  1615  1614   ar
  1279  1014  1021   ar
  1280  1014  1013    1
  1281  1039  1038    2
  1282  1552  1551   ar
  1283    94    95   ar
  1284  1640  1639   ar
  1285  1041  1043   ar
  1286   102   101   ar
  1287   102    95   ar
  1288   990   991    1
  1289  1476  1469   ar
  1290    50    51    1
  1291  1608  1609    1
  1292  1038  1037   ar
  1293  1534  1533    1
  1294  1625  1626    1
  1295  1625  1622    1
  1296  1585  1584    1
  1297   101    99   ar
  1298  1613  1614   ar
  1299  1573  1571   ar
  1300  1573  1574   ar
  1301  1633  1642   ar
  1302  1633  1634   ar
  1303  1496  1497   ar
  1304  1642  1636   ar
  1305    72    71   ar
  1306    72    73   ar
  1307  1629  1630    1
  1308  1571  1570   ar
  1309    71    80   ar
  1310    95    96   ar
  1311  1609  1624    1
  1312  1013  1009    1
  1313  1013  1012    1
  1314  1009  1008    1
  1315  1461  1462    1
  1316  1332  1331   ar
  1317  1328  1329   ar
  1318  1472  1470   ar
  1319  1639  1637   ar
  1320  1605  1604    1
  1321  1492  1491   ar
  1322  1492  1498   ar
  1323  1043  1044   ar
  1324  1592  1591   ar
  1325    27    26    1
  1326    99   100    1
  1327    99    98   ar
  1328  1037  1044   ar
  1329  1037  1036   ar
  1330  1557  1558   ar
  1331  1634  1635   ar
  1332  1636  1637   ar
  1333  1636  1635   ar
  1334    47    51    1
  1335  1586  1584    1
  1336  1586  1587    1
  1337    73    74   ar
  1338  1575  1574    2
  1339  1584  1583    1
  1340    96    98   ar
  1341    96    97    2
  1342  1491  1490   ar
  1343  1637  1638    1
  1344  1044  1034   ar
  1345  1622  1624    1
  1346  1622  1623    1
  1347  1301  1300    1
  1348  1551  1558   ar
  1349  1551  1550   ar
  1350    80    79   ar
  1351    80    74   ar
  1352  1331  1329   ar
  1353  1331  1333    1
  1354  1533  1532   ar
  1355  1533  1535   ar
  1356  1574  1576   ar
  1357  1532  1530   ar
  1358  1329  1330    2
  1359  1462  1463    1
  1360  1497  1498   ar
  1361  1469  1470   ar
  1362  1469  1468    1
  1363  1587  1601    1
  1364    51    52    1
  1365   991  1003    1
  1366  1498  1489   ar
  1367  1570  1569    1
  1368  1570  1577   ar
  1369  1604  1601    1
  1370    79    78   ar
  1371  1006  1007    1
  1372  1006  1003    1
  1373  1470  1471    1
  1374  1036  1035   ar
  1375  1558  1548   ar
  1376    74    75   ar
  1377  1569  1568    1
  1378  1569  1565    1
  1379  1008  1007    1
  1380  1008  1010    1
  1381  1464  1463    1
  1382  1464  1468    1
  1383  1012  1010    1
  1384  1034  1035   ar
  1385  1034  1033    1
  1386    20    19    2
  1387  1568  1566    1
  1388  1300  1302    1
  1389  1300  1298    1
  1390  1550  1549   ar
  1391    52    59   ar
  1392    52    53   ar
  1393  1512  1511    2
  1394    59    58   ar
  1395  1490  1489   ar
  1396    26    28    1
  1397    26    24    1
  1398  1601  1603    2
  1399  1601  1602    1
  1400  1535  1536   ar
  1401  1530  1531    2
  1402  1530  1529   ar
  1403  1463  1465    1
  1404  1468  1467    1
  1405  1583  1582    1
  1406    78    77   ar
  1407  1489  1488    1
  1408  1576  1577   ar
  1409  1576  1578    1
  1410  1005  1003    2
  1411    75    77   ar
  1412    75    76    1
  1413  1010  1011    1
  1414  1294  1293    2
  1415  1003  1004    1
  1416  1302  1303    1
  1417  1513  1511    1
  1418  1513  1514    2
  1419  1471  1488    1
  1420  1295  1293    1
  1421  1511  1510    2
  1422  1565  1564    1
  1423    28    29    1
  1424  1033  1029    1
  1425  1033  1032    1
  1426  1296  1293    1
  1427  1296  1297    1
  1428    54    53    2
  1429  1548  1549   ar
  1430  1548  1547    1
  1431    53    55   ar
  1432  1582  1579    1
  1433    58    56   ar
  1434  1029  1028    1
  1435    23    24    1
  1436    23    22    1
  1437    24    25    1
  1438  1465  1467    1
  1439  1465  1466    1
  1440  1293  1281    1
  1441  1515  1514    1
  1442  1297  1298    1
  1443    19    21    1
  1444    19    22    1
  1445    19     6    1
  1446  1298  1299    1
  1447  1514  1516    1
  1448  1536  1529   ar
  1449  1275  1273    2
  1450  1529  1528    1
  1451  1488  1484    1
  1452  1488  1487    1
  1453  1510  1517    1
  1454  1255  1254    2
  1455  1566  1564    1
  1456  1566  1567    1
  1457  1480  1478    2
  1458  1305  1306   ar
  1459  1305  1304   ar
  1460  1306  1307   ar
  1461  1236  1235    2
  1462    55    56   ar
  1463    56    57    1
  1464  1564  1563    1
  1465  1547  1546    1
  1466  1547  1543    1
  1467  1256  1254    1
  1468  1011  1023    1
  1469  1304  1303    1
  1470  1304  1313   ar
  1471  1303  1299    1
  1472  1307  1313   ar
  1473  1307  1308   ar
  1474  1309  1308    1
  1475  1313  1312   ar
  1476  1308  1310   ar
  1477  1466  1478    1
  1478  1516  1517    2
  1479  1505  1504    1
  1480  1505  1509    1
  1481  1567  1579    1
  1482  1484  1483    1
  1483  1032  1030    1
  1484    29    25    1
  1485    29    30    1
  1486  1274  1273    1
  1487     6     5    1
  1488  1546  1544    1
  1489  1025  1023    2
  1490  1312  1311   ar
  1491  1310  1311   ar
  1492  1028  1027    1
  1493  1028  1030    1
  1494  1254  1243    1
  1495  1254  1257    1
  1496  1579  1581    2
  1497  1579  1580    1
  1498  1273  1276    1
  1499  1273  1262    1
  1500  1487  1485    1
  1501  1503  1504    1
  1502  1503  1502    1
  1503  1504  1506    1
  1504  1478  1479    1
  1505  1478  1481    1
  1506  1281  1280    1
  1507  1528  1524    1
  1508  1528  1527    1
  1509  1026  1023    1
  1510  1026  1027    1
  1511  1023  1024    1
  1512  1237  1235    1
  1513  1292  1290    1
  1514  1543  1542    1
  1515  1235  1238    1
  1516  1235  1223    1
  1517  1509  1508    1
  1518    30    31   ar
  1519    30    40   ar
  1520  1030  1031    1
  1521  1563  1562    1
  1522  1289  1288    2
  1523  1276  1277    1
  1524  1258  1257    1
  1525  1258  1259    1
  1526  1280  1282    1
  1527  1280  1278    1
  1528    31    32   ar
  1529    39    40   ar
  1530    39    37   ar
  1531  1290  1288   ar
  1532  1290  1291   ar
  1533  1524  1523    1
  1534  1520  1518    2
  1535  1527  1525    1
  1536    40    33   ar
  1537  1485  1483    1
  1538  1485  1486    1
  1539  1238  1239    1
  1540  1243  1242    1
  1541  1288  1287   ar
  1542  1483  1482    1
  1543  1507  1506    1
  1544  1507  1518    1
  1545  1562  1559    1
  1546  1262  1261    1
  1547  1239  1240    1
  1548     5     7    1
  1549     5     3    1
  1550  1544  1542    1
  1551  1544  1545    1
  1552  1502  1499    1
  1553  1061  1060    2
  1554  1481  1482    1
  1555  1277  1278    1
  1556  1506  1508    1
  1557  1291  1284   ar
  1558    32    33   ar
  1559    37    38    1
  1560    37    36   ar
  1561    33    34   ar
  1562  1261  1259    1
  1563  1261  1263    1
  1564  1282  1283    1
  1565  1542  1541    1
  1566  1287  1285   ar
  1567  1223  1222    1
  1568  1060  1059   ar
  1569  1060  1062   ar
  1570  1278  1279    1
  1571  1058  1059   ar
  1572  1058  1057   ar
  1573  1525  1523    1
  1574  1525  1526    1
  1575  1259  1260    1
  1576  1271  1272   ar
  1577  1271  1269   ar
  1578  1216  1215    2
  1579     7     8    1
  1580  1242  1240    1
  1581  1242  1244    1
  1582  1518  1521    1
  1583  1518  1519    1
  1584  1031  1045    1
  1585  1284  1285   ar
  1586  1284  1283    1
  1587     2     3    1
  1588     2     1    1
  1589  1059  1066   ar
  1590    36    34   ar
  1591     3     4    1
  1592  1062  1063   ar
  1593  1272  1265   ar
  1594  1285  1286    2
  1595    34    35    2
  1596  1545  1559    1
  1597  1523  1522    1
  1598  1539  1537    2
  1599  1057  1056   ar
  1600  1240  1241    1
  1601  1270  1269    1
  1602  1540  1541    1
  1603  1540  1537    1
  1604  1486  1499    1
  1605  1499  1500    2
  1606  1499  1501    1
  1607  1283  1279    1
  1608  1521  1522    1
  1609  1269  1268   ar
  1610  1066  1056   ar
  1611  1066  1065   ar
  1612  1561  1559    2
  1613  1559  1560    1
  1614  1218  1219    1
  1615  1218  1215    1
  1616  1260  1264    1
  1617  1063  1065   ar
  1618  1063  1064    1
  1619  1217  1215    1
  1620  1056  1055    1
  1621  1219  1220    1
  1622  1222  1220    1
  1623  1222  1224    1
  1624  1215  1202    1
  1625  1265  1264    1
  1626  1265  1266   ar
  1627  1263  1264    1
  1628  1526  1537    1
  1629  1051  1055    1
  1630  1051  1050    1
  1631  1537  1538    1
  1632  1083  1082    2
  1633  1268  1266   ar
  1634  1244  1245    1
  1635     8     4    1
  1636     8     9    1
  1637  1241  1245    1
  1638  1253  1252   ar
  1639  1253  1246   ar
  1640  1055  1054    1
  1641  1220  1221    1
  1642  1047  1045    2
  1643  1266  1267    2
  1644  1252  1250   ar
  1645  1045  1048    1
  1646  1045  1046    1
  1647  1048  1049    1
  1648  1202  1201    1
  1649     9    10    1
  1650     9    18    1
  1651  1224  1225    1
  1652  1082  1084   ar
  1653  1082  1081   ar
  1654    10    11    2
  1655  1246  1245    1
  1656  1246  1247   ar
  1657    17    18    1
  1658    17    16    2
  1659  1049  1050    1
  1660    18    12    1
  1661  1084  1085   ar
  1662  1050  1052    1
  1663    11    12    1
  1664    16    15    1
  1665    12    13    2
  1666  1250  1251    1
  1667  1250  1249   ar
  1668  1234    15    1
  1669  1234  1232    1
  1670  1081  1080   ar
  1671  1081  1088   ar
  1672  1080  1079   ar
  1673    15    13    1
  1674  1221  1225    1
  1675    13    14    1
  1676  1247  1249   ar
  1677  1247  1248    2
  1678  1233  1232   ar
  1679  1233  1226   ar
  1680  1085  1086    1
  1681  1085  1087   ar
  1682  1054  1052    1
  1683  1201  1203    1
  1684  1201  1199    1
  1685  1225  1226    1
  1686  1232  1230   ar
  1687  1203  1204    1
  1688  1052  1053    1
  1689  1079  1078   ar
  1690  1088  1087   ar
  1691  1088  1078   ar
  1692  1226  1227   ar
  1693  1078  1077    1
  1694  1105  1104    2
  1695  1199  1198    1
  1696  1199  1200    1
  1697  1230  1231    2
  1698  1230  1229   ar
  1699  1227  1229   ar
  1700  1227  1228    2
  1701  1106  1104   ar
  1702  1106  1107   ar
  1703  1104  1103   ar
  1704  1053  1067    1
  1705  1198  1197    1
  1706  1077  1073    1
  1707  1077  1076    1
  1708  1073  1072    1
  1709  1069  1067    2
  1710  1204  1200    1
  1711  1204  1205    1
  1712  1108  1107    1
  1713  1107  1109   ar
  1714  1195  1194    2
  1715  1197  1194    1
  1716  1067  1070    1
  1717  1067  1068    1
  1718  1103  1102   ar
  1719  1103  1110   ar
  1720  1213  1214   ar
  1721  1213  1212   ar
  1722  1205  1214   ar
  1723  1205  1206   ar
  1724  1102  1101   ar
  1725  1214  1208   ar
  1726  1109  1110   ar
  1727  1070  1071    1
  1728  1128  1129   ar
  1729  1128  1126   ar
  1730  1212  1211   ar
  1731  1110  1100   ar
  1732  1072  1071    1
  1733  1072  1074    1
  1734  1194  1196    1
  1735  1194  1183    1
  1736  1076  1074    1
  1737  1206  1207   ar
  1738  1129  1130   ar
  1739  1127  1126    1
  1740  1101  1100   ar
  1741  1126  1125   ar
  1742  1208  1207   ar
  1743  1208  1209   ar
  1744  1100  1099    1
  1745  1074  1075    1
  1746  1211  1209   ar
  1747  1151  1150    1
  1748  1130  1131   ar
  1749  1209  1210    1
  1750  1099  1095    1
  1751  1099  1098    1
  1752  1150  1149   ar
  1753  1150  1152   ar
  1754  1183  1182    1
  1755  1125  1131   ar
  1756  1125  1124   ar
  1757  1149  1147   ar
  1758  1131  1122   ar
  1759  1095  1094    1
  1760  1152  1153   ar
  1761  1184  1182    1
  1762  1184  1185    1
  1763  1075  1089    1
  1764  1147  1148    2
  1765  1147  1146   ar
  1766  1098  1096    1
  1767  1182  1180    1
  1768  1188  1187    2
  1769  1124  1123   ar
  1770  1122  1121    1
  1771  1122  1123   ar
  1772  1091  1089    2
  1773  1153  1146   ar
  1774  1153  1143   ar
  1775  1189  1187   ar
  1776  1189  1190   ar
  1777  1146  1145   ar
  1778  1187  1186   ar
  1779  1121  1117    1
  1780  1121  1120    1
  1781  1092  1089    1
  1782  1092  1093    1
  1783  1089  1090    1
  1784  1094  1096    1
  1785  1094  1093    1
  1786  1191  1190    1
  1787  1190  1192   ar
  1788  1185  1186    1
  1789  1185  1181    1
  1790  1143  1142    1
  1791  1143  1144   ar
  1792  1186  1193   ar
  1793  1096  1097    1
  1794  1117  1116    1
  1795  1145  1144   ar
  1796  1180  1181    1
  1797  1180  1179    1
  1798  1177  1175    2
  1799  1142  1138    1
  1800  1142  1141    1
  1801  1192  1193   ar
  1802  1138  1137    1
  1803  1120  1118    1
  1804  1176  1175    1
  1805  1178  1175    1
  1806  1178  1179    1
  1807  1175  1162    1
  1808  1097  1111    1
  1809  1116  1118    1
  1810  1116  1115    1
  1811  1170  1169    1
  1812  1141  1139    1
  1813  1118  1119    1
  1814  1137  1136    1
  1815  1137  1139    1
  1816  1169  1171   ar
  1817  1169  1168   ar
  1818  1171  1172   ar
  1819  1115  1114    1
  1820  1111  1114    1
  1821  1111  1113    2
  1822  1111  1112    1
  1823  1136  1135    1
  1824  1162  1161    1
  1825  1139  1140    1
  1826  1168  1167   ar
  1827  1168  1174   ar
  1828  1135  1132    1
  1829  1172  1173   ar
  1830  1167  1166   ar
  1831  1119  1132    1
  1832  1161  1163    1
  1833  1161  1159    1
  1834  1174  1173   ar
  1835  1174  1165   ar
  1836  1166  1165   ar
  1837  1140  1154    1
  1838  1163  1164    1
  1839  1165  1164    1
  1840  1158  1159    1
  1841  1158  1157    1
  1842  1132  1134    2
  1843  1132  1133    1
  1844  1159  1160    1
  1845  1164  1160    1
  1846  1154  1157    1
  1847  1154  1156    2
  1848  1154  1155    1
