@<TRIPOS>MOLECULE
dna.pdb
 1946 2182 0 0 0
SMALL
GASTEIGER

@<TRIPOS>ATOM
      1  O5'       -0.6240  -14.6760    6.3010 O.3     1  DA1        -0.2176
      2  C5'       -1.4510  -13.5300    6.1800 C.3     1  DA1         0.2140
      3  C4'       -0.7270  -12.3270    6.7080 C.3     1  DA1         0.1776
      4  O4'       -0.6640  -12.4160    8.1540 O.3     1  DA1        -0.3326
      5  C3'        0.7120  -12.2050    6.2110 C.3     1  DA1         0.1559
      6  O3'        0.7680  -11.4080    5.0240 O.3     1  DA1        -0.3138
      7  C2'        1.4040  -11.5230    7.3830 C.3     1  DA1         0.0865
      8  C1'        0.6340  -12.0840    8.5950 C.3     1  DA1         0.2094
      9  N9         1.2320  -13.2760    9.2870 N.ar    1  DA1        -0.2714
     10  C8         1.0470  -14.6210    9.0990 C.ar    1  DA1         0.1815
     11  N7         1.9400  -15.3680    9.7030 N.ar    1  DA1        -0.2193
     12  C5         2.7690  -14.4520   10.3310 C.ar    1  DA1         0.1518
     13  C6         3.9110  -14.6060   11.1370 C.ar    1  DA1         0.1919
     14  N6         4.4320  -15.7910   11.4610 N.pl3   1  DA1        -0.1054
     15  N1         4.5040  -13.4860   11.6030 N.ar    1  DA1        -0.2040
     16  C2         3.9800  -12.2990   11.2790 C.ar    1  DA1         0.2016
     17  N3         2.9130  -12.0270   10.5310 N.ar    1  DA1        -0.2048
     18  C4         2.3470  -13.1590   10.0820 C.ar    1  DA1         0.1691
     19  P          2.0220  -11.5560    3.7760 P.3     2  DT2         0.2141
     20  OP1        1.9750  -10.6000    2.6470 O.2     2  DT2        -0.5172
     21  OP2        2.3240  -12.9840    3.5280 O.3     2  DT2        -0.4373
     22  O5'        3.0990  -10.9300    4.7910 O.3     2  DT2        -0.3114
     23  C5'        3.0000   -9.5710    5.2020 C.3     2  DT2         0.1811
     24  C4'        3.8190   -9.2650    6.4370 C.3     2  DT2         0.1746
     25  O4'        3.5510  -10.2450    7.4740 O.3     2  DT2        -0.3327
     26  C3'        5.3330   -9.2830    6.2790 C.3     2  DT2         0.1558
     27  O3'        5.8390   -8.0600    5.7700 O.3     2  DT2        -0.3138
     28  C2'        5.8200   -9.5730    7.6930 C.3     2  DT2         0.0866
     29  C1'        4.7170  -10.4840    8.2350 C.3     2  DT2         0.2106
     30  N1         5.0260  -11.9920    8.2210 N.ar    2  DT2        -0.2559
     31  C2         6.0020  -12.4160    9.1030 C.ar    2  DT2         0.3545
     32  O2         6.6260  -11.6540    9.8200 O.2     2  DT2        -0.2443
     33  N3         6.2230  -13.7720    9.1170 N.ar    2  DT2        -0.1533
     34  C4         5.5810  -14.7250    8.3540 C.ar    2  DT2         0.2804
     35  O4         5.8890  -15.9080    8.4790 O.2     2  DT2        -0.2654
     36  C5         4.5830  -14.2060    7.4620 C.ar    2  DT2         0.0534
     37  C6         4.3470  -12.8920    7.4290 C.ar    2  DT2         0.0824
     38  C7         3.8290  -15.1640    6.5880 C.3     2  DT2         0.0377
     39  P          7.2060   -7.9240    4.5970 P.3     3  DA3         0.2141
     40  OP1        6.8950   -6.6410    3.9260 O.3     3  DA3        -0.4373
     41  OP2        7.0770   -9.1940    3.8290 O.2     3  DA3        -0.5172
     42  O5'        8.6860   -7.7720    5.1810 O.3     3  DA3        -0.3114
     43  C5'        9.1930   -8.6790    6.1550 C.3     3  DA3         0.1811
     44  C4'       10.2450   -8.0050    7.0310 C.3     3  DA3         0.1746
     45  O4'       11.4920   -7.8080    6.3100 O.3     3  DA3        -0.3327
     46  C3'        9.8820   -6.6540    7.6390 C.3     3  DA3         0.1558
     47  O3'        9.3210   -6.8650    8.9340 O.3     3  DA3        -0.3138
     48  C2'       11.2390   -5.9600    7.7250 C.3     3  DA3         0.0865
     49  C1'       11.9220   -6.4710    6.4540 C.3     3  DA3         0.2094
     50  N9        11.5040   -5.5360    5.1460 N.ar    3  DA3        -0.2714
     51  C8        10.6960   -5.7090    4.0530 C.ar    3  DA3         0.1815
     52  N7        10.5990   -4.6450    3.2920 N.ar    3  DA3        -0.2193
     53  C5        11.3980   -3.7080    3.9290 C.ar    3  DA3         0.1518
     54  C6        11.7170   -2.3730    3.6250 C.ar    3  DA3         0.1919
     55  N6        11.2490   -1.7270    2.5550 N.pl3   3  DA3        -0.1054
     56  N1        12.5430   -1.7180    4.4690 N.ar    3  DA3        -0.2040
     57  C2        13.0120   -2.3670    5.5400 C.ar    3  DA3         0.2016
     58  N3        12.7850   -3.6190    5.9310 N.ar    3  DA3        -0.2048
     59  C4        11.9610   -4.2420    5.0730 C.ar    3  DA3         0.1691
     60  P          7.9770   -6.1860    9.2520 P.3     4  DC4         0.2141
     61  OP1        7.0770   -6.8860   10.2020 O.3     4  DC4        -0.4373
     62  OP2        7.4930   -5.8470    7.8740 O.2     4  DC4        -0.5172
     63  O5'        8.4020   -4.7870    9.8920 O.3     4  DC4        -0.3114
     64  C5'        9.2540   -4.7200   11.0130 C.3     4  DC4         0.1811
     65  C4'       10.2390   -3.5830   10.8520 C.3     4  DC4         0.1746
     66  O4'       10.7100   -3.5430    9.4690 O.3     4  DC4        -0.3327
     67  C3'        9.7820   -2.1480   11.0750 C.3     4  DC4         0.1558
     68  O3'        9.7390   -1.8520   12.4650 O.3     4  DC4        -0.3138
     69  C2'       10.9520   -1.4110   10.4370 C.3     4  DC4         0.0866
     70  C1'       11.1410   -2.2280    9.1570 C.3     4  DC4         0.2106
     71  N1        10.3640   -1.6590    8.0970 N.ar    4  DC4        -0.2556
     72  C2        10.5820   -0.4030    7.5200 C.ar    4  DC4         0.3531
     73  O2        11.3870    0.3730    8.0630 O.2     4  DC4        -0.2443
     74  N3         9.9100   -0.0690    6.3920 N.ar    4  DC4        -0.1739
     75  C4         9.0550   -0.9340    5.8450 C.ar    4  DC4         0.1759
     76  N4         8.4150   -0.5610    4.7340 N.pl3   4  DC4        -0.1070
     77  C5         8.8200   -2.2120    6.4140 C.ar    4  DC4         0.0566
     78  C6         9.4860   -2.5370    7.5280 C.ar    4  DC4         0.0849
     79  P          9.0220   -0.8110   12.8530 P.3     5  DC5         0.2141
     80  OP1        9.0150   -0.6740   14.3340 O.3     5  DC5        -0.4373
     81  OP2        7.7410   -0.8070   12.0910 O.2     5  DC5        -0.5172
     82  O5'        9.9620    0.3310   12.2860 O.3     5  DC5        -0.3114
     83  C5'       11.0610    0.7980   13.0410 C.3     5  DC5         0.1811
     84  C4'       11.4370    2.1520   12.5450 C.3     5  DC5         0.1746
     85  O4'       11.7580    2.0140   11.1450 O.3     5  DC5        -0.3327
     86  C3'       10.2890    3.1490   12.5760 C.3     5  DC5         0.1558
     87  O3'       10.2980    3.8210   13.8230 O.3     5  DC5        -0.3138
     88  C2'       10.6260    4.0900   11.4270 C.3     5  DC5         0.0866
     89  C1'       11.2410    3.1180   10.4240 C.3     5  DC5         0.2106
     90  N1        10.2170    2.7070    9.4570 N.ar    5  DC5        -0.2556
     91  C2         9.8830    3.6620    8.4910 C.ar    5  DC5         0.3531
     92  O2        10.5410    4.7150    8.4380 O.2     5  DC5        -0.2443
     93  N3         8.8550    3.4130    7.6440 N.ar    5  DC5        -0.1739
     94  C4         8.1770    2.2690    7.7390 C.ar    5  DC5         0.1759
     95  N4         7.1720    2.0670    6.8830 N.pl3   5  DC5        -0.1070
     96  C5         8.4990    1.2880    8.7110 C.ar    5  DC5         0.0566
     97  C6         9.5150    1.5390    9.5450 C.ar    5  DC5         0.0849
     98  P          9.1020    4.6320   14.2940 P.3     6  DA6         0.2141
     99  OP1        8.7740    4.2490   15.6850 O.3     6  DA6        -0.4373
    100  OP2        8.1730    4.3030   13.1930 O.2     6  DA6        -0.5172
    101  O5'        9.4190    6.1960   14.2650 O.3     6  DA6        -0.3114
    102  C5'       10.1430    6.7800   15.3440 C.3     6  DA6         0.1811
    103  C4'       10.8940    8.0030   14.8580 C.3     6  DA6         0.1746
    104  O4'       11.6980    7.6130   13.7240 O.3     6  DA6        -0.3327
    105  C3'        9.9850    9.1190   14.3640 C.3     6  DA6         0.1558
    106  O3'        9.8090   10.1140   15.3640 O.3     6  DA6        -0.3138
    107  C2'       10.6720    9.6850   13.1260 C.3     6  DA6         0.0865
    108  C1'       11.6770    8.6120   12.7330 C.3     6  DA6         0.2094
    109  N9        11.0640    8.1030   11.5380 N.ar    6  DA6        -0.2714
    110  C8        10.3840    6.9170   11.4380 C.ar    6  DA6         0.1815
    111  N7         9.9540    6.6540   10.2270 N.ar    6  DA6        -0.2193
    112  C5        10.3800    7.7410    9.4800 C.ar    6  DA6         0.1518
    113  C6        10.2410    8.0670    8.1190 C.ar    6  DA6         0.1919
    114  N6         9.6070    7.2930    7.2350 N.pl3   6  DA6        -0.1054
    115  N1        10.7820    9.2290    7.6950 N.ar    6  DA6        -0.2040
    116  C2        11.4170   10.0030    8.5820 C.ar    6  DA6         0.2016
    117  N3        11.6140    9.8040    9.8830 N.ar    6  DA6        -0.2048
    118  C4        11.0630    8.6420   10.2740 C.ar    6  DA6         0.1691
    119  P          8.3970   10.8660   15.3730 P.3     7  DG7         0.2141
    120  OP1        8.3940   11.8460   16.4830 O.3     7  DG7        -0.4373
    121  OP2        7.5670    9.6420   15.4690 O.2     7  DG7        -0.5172
    122  O5'        7.9660   11.5300   13.9750 O.3     7  DG7        -0.3114
    123  C5'        8.5830   12.7530   13.6010 C.3     7  DG7         0.1811
    124  C4'        8.4890   13.0780   12.1270 C.3     7  DG7         0.1746
    125  O4'        9.0400   12.0180   11.3090 O.3     7  DG7        -0.3327
    126  C3'        7.1020   13.2920   11.5570 C.3     7  DG7         0.1558
    127  O3'        6.6070   14.5780   11.8520 O.3     7  DG7        -0.3138
    128  C2'        7.3370   13.0930   10.0680 C.3     7  DG7         0.0865
    129  C1'        8.3690   11.9700   10.0690 C.3     7  DG7         0.2094
    130  N9         7.7560   10.6090    9.9380 N.ar    7  DG7        -0.2713
    131  C8         7.4710    9.5990   10.8250 C.ar    7  DG7         0.1816
    132  N7         6.9620    8.5410   10.2560 N.ar    7  DG7        -0.2173
    133  C5         6.9070    8.8670    8.9140 C.ar    7  DG7         0.1748
    134  C6         6.4460    8.1180    7.8000 C.ar    7  DG7         0.3023
    135  O6         5.9770    6.9730    7.7880 O.2     7  DG7        -0.2633
    136  N1         6.5680    8.8280    6.6090 N.ar    7  DG7        -0.1709
    137  C2         7.0720   10.1020    6.5030 C.ar    7  DG7         0.2606
    138  N2         7.1120   10.6220    5.2690 N.pl3   7  DG7        -0.0859
    139  N3         7.5040   10.8100    7.5280 N.ar    7  DG7        -0.1918
    140  C4         7.3940   10.1410    8.6960 C.ar    7  DG7         0.1722
    141  P          5.1630   14.6940   11.9390 P.3     8  DC8         0.2141
    142  OP1        5.0110   15.9930   12.6450 O.2     8  DC8        -0.5172
    143  OP2        4.9260   13.4180   12.6700 O.3     8  DC8        -0.4373
    144  O5'        4.2340   14.7060   10.6440 O.3     8  DC8        -0.3114
    145  C5'        4.2320   15.8300    9.7760 C.3     8  DC8         0.1811
    146  C4'        3.9680   15.4190    8.3350 C.3     8  DC8         0.1746
    147  O4'        4.6790   14.1890    7.9960 O.3     8  DC8        -0.3327
    148  C3'        2.5370   15.1090    7.9230 C.3     8  DC8         0.1558
    149  O3'        1.7570   16.2690    7.6780 O.3     8  DC8        -0.3138
    150  C2'        2.7300   14.3240    6.6310 C.3     8  DC8         0.0866
    151  C1'        3.9990   13.5210    6.9300 C.3     8  DC8         0.2106
    152  N1         3.6460   12.2130    7.4220 N.ar    8  DC8        -0.2556
    153  C2         3.1670   11.2460    6.5310 C.ar    8  DC8         0.3531
    154  O2         2.9720   11.5690    5.3460 O.2     8  DC8        -0.2443
    155  N3         2.9290    9.9920    6.9830 N.ar    8  DC8        -0.1739
    156  C4         3.1520    9.6910    8.2630 C.ar    8  DC8         0.1759
    157  N4         2.9040    8.4420    8.6640 N.pl3   8  DC8        -0.1070
    158  C5         3.6380   10.6570    9.1820 C.ar    8  DC8         0.0566
    159  C6         3.8710   11.8940    8.7310 C.ar    8  DC8         0.0849
    160  P          0.0930   16.1310    7.5650 P.3     9  DT9         0.2141
    161  OP1       -0.7620   17.2960    7.8810 O.2     9  DT9        -0.5172
    162  OP2        0.1430   14.9670    8.4820 O.3     9  DT9        -0.4373
    163  O5'       -0.3240   15.5860    6.1170 O.3     9  DT9        -0.3114
    164  C5'       -0.3770   16.4390    4.9800 C.3     9  DT9         0.1811
    165  C4'        0.2310   15.7450    3.7720 C.3     9  DT9         0.1746
    166  O4'        1.2710   14.8060    4.1680 O.3     9  DT9        -0.3327
    167  C3'       -0.7200   14.8820    2.9620 C.3     9  DT9         0.1558
    168  O3'       -1.5190   15.6880    2.1180 O.3     9  DT9        -0.3138
    169  C2'        0.2820   14.0460    2.1750 C.3     9  DT9         0.0866
    170  C1'        1.3140   13.7250    3.2550 C.3     9  DT9         0.2106
    171  N1         1.0310   12.5420    3.9180 N.ar    9  DT9        -0.2559
    172  C2         1.3040   11.3310    3.3110 C.ar    9  DT9         0.3545
    173  O2         1.7190   11.2380    2.1700 O.2     9  DT9        -0.2443
    174  N3         1.0720   10.2240    4.0920 N.ar    9  DT9        -0.1533
    175  C4         0.6040   10.2080    5.3900 C.ar    9  DT9         0.2804
    176  O4         0.4460    9.1330    5.9630 O.2     9  DT9        -0.2654
    177  C5         0.3430   11.5040    5.9490 C.ar    9  DT9         0.0534
    178  C6         0.5610   12.5970    5.2120 C.ar    9  DT9         0.0824
    179  C7        -0.1700   11.5920    7.3560 C.3     9  DT9         0.0377
    180  P         -3.2030   15.2970    1.6330 P.3    10  DT10        0.2141
    181  OP1       -2.7380   16.6270    1.1300 O.2    10  DT10       -0.5172
    182  OP2       -4.3460   15.1540    2.5560 O.3    10  DT10       -0.4373
    183  O5'       -3.4310   14.3620    0.3760 O.3    10  DT10       -0.3114
    184  C5'       -2.4800   14.6250   -0.6300 C.3    10  DT10        0.1811
    185  C4'       -2.0250   13.3500   -1.2620 C.3    10  DT10        0.1746
    186  O4'       -1.1850   12.6080   -0.3710 O.3    10  DT10       -0.3327
    187  C3'       -3.1610   12.3910   -1.5340 C.3    10  DT10        0.1558
    188  O3'       -3.9470   12.8590   -2.6140 O.3    10  DT10       -0.3138
    189  C2'       -2.2990   11.1970   -1.8650 C.3    10  DT10        0.0866
    190  C1'       -1.3350   11.2440   -0.6800 C.3    10  DT10        0.2106
    191  N1        -1.5370   10.5660    0.5500 N.ar   10  DT10       -0.2559
    192  C2        -1.1690    9.2430    0.7060 C.ar   10  DT10        0.3545
    193  O2        -0.6030    8.6050   -0.1640 O.2    10  DT10       -0.2443
    194  N3        -1.4890    8.6890    1.9220 N.ar   10  DT10       -0.1533
    195  C4        -2.1270    9.3120    2.9750 C.ar   10  DT10        0.2804
    196  O4        -2.3460    8.6830    4.0070 O.2    10  DT10       -0.2654
    197  C5        -2.4780   10.6840    2.7360 C.ar   10  DT10        0.0534
    198  C6        -2.1780   11.2470    1.5620 C.ar   10  DT10        0.0824
    199  C7        -3.1760   11.4480    3.8210 C.3    10  DT10        0.0377
    200  P         -5.2800   12.0140   -2.9830 P.3    11  DA11        0.2141
    201  OP1       -5.7450   12.6590   -4.2210 O.2    11  DA11       -0.5172
    202  OP2       -6.0750   12.1430   -1.7510 O.3    11  DA11       -0.4373
    203  O5'       -5.0860   10.4240   -3.1590 O.3    11  DA11       -0.3114
    204  C5'       -4.3920    9.8920   -4.2960 C.3    11  DA11        0.1811
    205  C4'       -4.0280    8.4350   -4.0920 C.3    11  DA11        0.1746
    206  O4'       -3.1760    8.2950   -2.9180 O.3    11  DA11       -0.3327
    207  C3'       -5.1690    7.4520   -3.8350 C.3    11  DA11        0.1558
    208  O3'       -5.8270    7.0700   -5.0300 O.3    11  DA11       -0.3138
    209  C2'       -4.3340    6.2940   -3.3070 C.3    11  DA11        0.0865
    210  C1'       -3.3960    7.0210   -2.3390 C.3    11  DA11        0.2094
    211  N9        -3.9520    7.1580   -0.9690 N.ar   11  DA11       -0.2714
    212  C8        -4.4900    8.2520   -0.3430 C.ar   11  DA11        0.1815
    213  N7        -4.8880    8.0170    0.8850 N.ar   11  DA11       -0.2193
    214  C5        -4.5910    6.6770    1.0780 C.ar   11  DA11        0.1518
    215  C6        -4.7680    5.8180    2.1770 C.ar   11  DA11        0.1919
    216  N6        -5.3080    6.2020    3.3360 N.pl3  11  DA11       -0.1054
    217  N1        -4.3650    4.5360    2.0420 N.ar   11  DA11       -0.2040
    218  C2        -3.8230    4.1530    0.8800 C.ar   11  DA11        0.2016
    219  N3        -3.6040    4.8670   -0.2220 N.ar   11  DA11       -0.2048
    220  C4        -4.0160    6.1340   -0.0550 C.ar   11  DA11        0.1691
    221  P         -7.4010    6.8920   -5.1310 P.3    12  DT12        0.2141
    222  OP1       -7.8890    6.9220   -6.5300 O.2    12  DT12       -0.5172
    223  OP2       -8.1330    7.6420   -4.0780 O.3    12  DT12       -0.4373
    224  O5'       -7.2810    5.3760   -4.6450 O.3    12  DT12       -0.3114
    225  C5'       -6.4840    4.4370   -5.3590 C.3    12  DT12        0.1811
    226  C4'       -6.3640    3.1470   -4.5840 C.3    12  DT12        0.1746
    227  O4'       -5.5980    3.3580   -3.3650 O.3    12  DT12       -0.3327
    228  C3'       -7.6720    2.5950   -4.0680 C.3    12  DT12        0.1558
    229  O3'       -8.3950    1.9440   -5.0820 O.3    12  DT12       -0.3138
    230  C2'       -7.2220    1.6810   -2.9320 C.3    12  DT12        0.0866
    231  C1'       -6.0930    2.5100   -2.3230 C.3    12  DT12        0.2106
    232  N1        -6.5800    3.3270   -1.2000 N.ar   12  DT12       -0.2559
    233  C2        -6.7700    2.6860    0.0090 C.ar   12  DT12        0.3545
    234  O2        -6.5910    1.4910    0.1630 O.2    12  DT12       -0.2443
    235  N3        -7.1790    3.4990    1.0390 N.ar   12  DT12       -0.1533
    236  C4        -7.4120    4.8570    0.9820 C.ar   12  DT12        0.2804
    237  O4        -7.7770    5.4510    1.9940 O.2    12  DT12       -0.2654
    238  C5        -7.1940    5.4490   -0.3080 C.ar   12  DT12        0.0534
    239  C6        -6.7960    4.6820   -1.3260 C.ar   12  DT12        0.0824
    240  C7        -7.4220    6.9220   -0.4730 C.3    12  DT12        0.0377
    241  P         -9.9700    2.2480   -5.2080 P.3    13  DT13        0.2141
    242  OP1      -10.4090    1.7550   -6.5330 O.2    13  DT13       -0.5172
    243  OP2      -10.4390    3.5590   -4.7120 O.3    13  DT13       -0.4373
    244  O5'      -10.2920    1.1390   -4.1190 O.3    13  DT13       -0.3114
    245  C5'       -9.3810    0.0790   -4.0290 C.3    13  DT13        0.1811
    246  C4'       -9.5290   -0.5380   -2.6740 C.3    13  DT13        0.1746
    247  O4'       -8.7910    0.2240   -1.7070 O.3    13  DT13       -0.3327
    248  C3'      -10.9470   -0.4300   -2.1900 C.3    13  DT13        0.1558
    249  O3'      -11.7290   -1.4060   -2.8200 O.3    13  DT13       -0.3138
    250  C2'      -10.7310   -0.6910   -0.7100 C.3    13  DT13        0.0866
    251  C1'       -9.4320    0.0780   -0.4530 C.3    13  DT13        0.2106
    252  N1        -9.7400    1.3750    0.2220 N.ar   13  DT13       -0.2559
    253  C2        -9.9650    1.4160    1.5840 C.ar   13  DT13        0.3545
    254  O2        -9.9660    0.4210    2.2870 O.2    13  DT13       -0.2443
    255  N3       -10.1910    2.6700    2.0990 N.ar   13  DT13       -0.1533
    256  C4       -10.2140    3.8600    1.4020 C.ar   13  DT13        0.2804
    257  O4       -10.4300    4.9090    2.0050 O.2    13  DT13       -0.2654
    258  C5        -9.9730    3.7350   -0.0070 C.ar   13  DT13        0.0534
    259  C6        -9.7500    2.5270   -0.5340 C.ar   13  DT13        0.0824
    260  C7        -9.9780    4.9740   -0.8520 C.3    13  DT13        0.0377
    261  P        -13.3860   -1.2400   -2.7040 P.3    14  DC14        0.2141
    262  OP1      -14.0060   -2.3340   -3.4840 O.2    14  DC14       -0.5172
    263  OP2      -13.5140    0.1590   -3.1740 O.3    14  DC14       -0.4373
    264  O5'      -13.9780   -1.2290   -1.2100 O.3    14  DC14       -0.3114
    265  C5'      -14.2070   -2.4510   -0.5190 C.3    14  DC14        0.1811
    266  C4'      -14.4670   -2.2800    0.9630 C.3    14  DC14        0.1746
    267  O4'      -13.4000   -1.5170    1.5920 O.3    14  DC14       -0.3327
    268  C3'      -15.7150   -1.5130    1.3820 C.3    14  DC14        0.1558
    269  O3'      -16.9310   -2.2220    1.2170 O.3    14  DC14       -0.3138
    270  C2'      -15.3900   -1.1870    2.8350 C.3    14  DC14        0.0866
    271  C1'      -13.9150   -0.8140    2.7080 C.3    14  DC14        0.2106
    272  N1       -13.7870    0.6450    2.5570 N.ar   14  DC14       -0.2556
    273  C2       -13.9280    1.5150    3.6440 C.ar   14  DC14        0.3531
    274  O2       -14.3620    1.0660    4.7180 O.2    14  DC14       -0.2443
    275  N3       -13.5880    2.8180    3.4940 N.ar   14  DC14       -0.1739
    276  C4       -13.1270    3.2560    2.3220 C.ar   14  DC14        0.1759
    277  N4       -12.8050    4.5480    2.2210 N.pl3  14  DC14       -0.1070
    278  C5       -12.9770    2.3900    1.2090 C.ar   14  DC14        0.0566
    279  C6       -13.3140    1.1050    1.3610 C.ar   14  DC14        0.0849
    280  P        -18.2120   -1.4300    0.9280 P.3    15  DA15        0.2141
    281  OP1      -19.1320   -2.4190    0.3320 O.3    15  DA15       -0.4373
    282  OP2      -17.5480   -0.4370    0.0480 O.2    15  DA15       -0.5172
    283  O5'      -18.9880   -0.6660    2.0860 O.3    15  DA15       -0.3114
    284  C5'      -19.3190   -1.3500    3.2980 C.3    15  DA15        0.1811
    285  C4'      -19.7650   -0.3700    4.3460 C.3    15  DA15        0.1746
    286  O4'      -18.6420    0.4090    4.8300 O.3    15  DA15       -0.3327
    287  C3'      -20.7680    0.6530    3.8580 C.3    15  DA15        0.1558
    288  O3'      -22.0780    0.1200    3.8840 O.3    15  DA15       -0.3138
    289  C2'      -20.5740    1.8060    4.8350 C.3    15  DA15        0.0865
    290  C1'      -19.0670    1.7380    5.1050 C.3    15  DA15        0.2094
    291  N9       -18.2760    2.6340    4.2720 N.ar   15  DA15       -0.2714
    292  C8       -17.7150    2.3720    3.0490 C.ar   15  DA15        0.1815
    293  N7       -17.1500    3.4170    2.4910 N.ar   15  DA15       -0.2193
    294  C5       -17.3550    4.4340    3.4100 C.ar   15  DA15        0.1518
    295  C6       -16.9950    5.7930    3.4120 C.ar   15  DA15        0.1919
    296  N6       -16.3250    6.3820    2.4190 N.pl3  15  DA15       -0.1054
    297  N1       -17.3530    6.5340    4.4830 N.ar   15  DA15       -0.2040
    298  C2       -18.0240    5.9430    5.4780 C.ar   15  DA15        0.2016
    299  N3       -18.4170    4.6760    5.5900 N.ar   15  DA15       -0.2048
    300  C4       -18.0480    3.9670    4.5110 C.ar   15  DA15        0.1691
    301  P        -23.3130    0.8740    2.9750 P.3    16  DA16        0.2141
    302  OP1      -24.5460    0.1190    3.3040 O.3    16  DA16       -0.4373
    303  OP2      -22.9650    1.1690    1.5660 O.2    16  DA16       -0.5172
    304  O5'      -23.3360    2.2520    3.7930 O.3    16  DA16       -0.3114
    305  C5'      -24.2340    2.4420    4.8730 C.3    16  DA16        0.1811
    306  C4'      -23.7470    3.5840    5.7340 C.3    16  DA16        0.1746
    307  O4'      -22.3330    3.8080    5.5300 O.3    16  DA16       -0.3327
    308  C3'      -24.3800    4.9100    5.3740 C.3    16  DA16        0.1558
    309  O3'      -25.6330    4.9970    6.0310 O.3    16  DA16       -0.3138
    310  C2'      -23.3590    5.9260    5.8790 C.3    16  DA16        0.0865
    311  C1'      -22.0460    5.1910    5.6460 C.3    16  DA16        0.2094
    312  N9       -21.4300    5.5700    4.2900 N.ar   16  DA16       -0.2714
    313  C8       -21.3530    4.8360    3.1350 C.ar   16  DA16        0.1815
    314  N7       -20.7240    5.4490    2.1600 N.ar   16  DA16       -0.2193
    315  C5       -20.3650    6.6690    2.7120 C.ar   16  DA16        0.1518
    316  C6       -19.6730    7.7760    2.1900 C.ar   16  DA16        0.1919
    317  N6       -19.2000    7.8310    0.9430 N.pl3  16  DA16       -0.1054
    318  N1       -19.4820    8.8360    3.0040 N.ar   16  DA16       -0.2040
    319  C2       -19.9560    8.7790    4.2540 C.ar   16  DA16        0.2016
    320  N3       -20.6200    7.7960    4.8580 N.ar   16  DA16       -0.2048
    321  C4       -20.7940    6.7580    4.0220 C.ar   16  DA16        0.1691
    322  P        -26.8290    5.6230    5.3500 P.3    17  DT17        0.2141
    323  OP1      -28.1680    5.1800    5.8730 O.3    17  DT17       -0.4373
    324  OP2      -26.4860    5.1900    3.9440 O.2    17  DT17       -0.5172
    325  O5'      -26.5800    7.2260    5.3820 O.3    17  DT17       -0.3114
    326  C5'      -26.4180    7.6390    6.7840 C.3    17  DT17        0.1811
    327  C4'      -25.4270    8.7850    6.7520 C.3    17  DT17        0.1746
    328  O4'      -24.1850    8.3760    6.2140 O.3    17  DT17       -0.3327
    329  C3'      -25.8540    9.9450    5.8640 C.3    17  DT17        0.1558
    330  O3'      -26.8840   10.7200    6.4550 O.3    17  DT17       -0.3138
    331  C2'      -24.5330   10.6670    5.6790 C.3    17  DT17        0.0866
    332  C1'      -23.5710    9.4860    5.5770 C.3    17  DT17        0.2106
    333  N1       -23.1290    9.2700    4.2720 N.ar   17  DT17       -0.2559
    334  C2       -22.1920   10.0700    3.6470 C.ar   17  DT17        0.3545
    335  O2       -21.7030   11.0550    4.1710 O.2    17  DT17       -0.2443
    336  N3       -21.8440    9.6740    2.3780 N.ar   17  DT17       -0.1533
    337  C4       -22.3290    8.5830    1.6870 C.ar   17  DT17        0.2804
    338  O4       -21.9190    8.3550    0.5510 O.2    17  DT17       -0.2654
    339  C5       -23.2990    7.8030    2.4030 C.ar   17  DT17        0.0534
    340  C6       -23.6550    8.1660    3.6380 C.ar   17  DT17        0.0824
    341  C7       -23.8870    6.5950    1.7360 C.3    17  DT17        0.0377
    342  P        -27.9020   11.6250    5.5410 P.3    18  DT18        0.2141
    343  OP1      -28.9660   11.7780    6.5640 O.3    18  DT18       -0.4373
    344  OP2      -28.1040   11.2820    4.1040 O.2    18  DT18       -0.5172
    345  O5'      -27.2950   13.0650    5.5820 O.3    18  DT18       -0.3114
    346  C5'      -26.9270   13.4590    6.8270 C.3    18  DT18        0.1811
    347  C4'      -25.6580   14.2280    6.5820 C.3    18  DT18        0.1746
    348  O4'      -24.6350   13.2500    6.2820 O.3    18  DT18       -0.3327
    349  C3'      -25.5820   15.0810    5.3520 C.3    18  DT18        0.1558
    350  O3'      -26.1460   16.3770    5.5440 O.3    18  DT18       -0.3138
    351  C2'      -24.1060   15.2910    5.3910 C.3    18  DT18        0.0866
    352  C1'      -23.5680   13.9680    5.7880 C.3    18  DT18        0.2106
    353  N1       -23.1810   13.3080    4.4860 N.ar   18  DT18       -0.2559
    354  C2       -21.9460   13.5050    3.8990 C.ar   18  DT18        0.3545
    355  O2       -21.1360   14.3170    4.3110 O.2    18  DT18       -0.2443
    356  N3       -21.6900   12.7150    2.8040 N.ar   18  DT18       -0.1533
    357  C4       -22.5260   11.7690    2.2500 C.ar   18  DT18        0.2804
    358  O4       -22.1550   11.1360    1.2650 O.2    18  DT18       -0.2654
    359  C5       -23.7900   11.6230    2.9160 C.ar   18  DT18        0.0534
    360  C6       -24.0650   12.3790    3.9820 C.ar   18  DT18        0.0824
    361  C7       -24.7700   10.6180    2.3880 C.3    18  DT18        0.0377
    362  P        -26.5540   17.3520    4.3710 P.3    19  DA19        0.2141
    363  OP1      -27.2350   18.5160    4.9850 O.3    19  DA19       -0.4373
    364  OP2      -27.3010   16.4490    3.4640 O.2    19  DA19       -0.5172
    365  O5'      -25.2390   17.8480    3.6000 O.3    19  DA19       -0.3114
    366  C5'      -24.3910   18.8200    4.2030 C.3    19  DA19        0.1811
    367  C4'      -23.1160   19.0320    3.4060 C.3    19  DA19        0.1746
    368  O4'      -22.3350   17.8160    3.3800 O.3    19  DA19       -0.3327
    369  C3'      -23.3090   19.3630    1.9400 C.3    19  DA19        0.1558
    370  O3'      -23.6160   20.7210    1.8000 O.3    19  DA19       -0.3138
    371  C2'      -21.9400   19.0180    1.3690 C.3    19  DA19        0.0865
    372  C1'      -21.6110   17.7620    2.1630 C.3    19  DA19        0.2094
    373  N9       -22.0050   16.5030    1.4390 N.ar   19  DA19       -0.2714
    374  C8       -23.0830   15.6990    1.7040 C.ar   19  DA19        0.1815
    375  N7       -23.1210   14.6080    0.9760 N.ar   19  DA19       -0.2193
    376  C5       -21.9920   14.7020    0.1790 C.ar   19  DA19        0.1518
    377  C6       -21.4610   13.8580   -0.8120 C.ar   19  DA19        0.1919
    378  N6       -22.0240   12.7050   -1.1800 N.pl3  19  DA19       -0.1054
    379  N1       -20.3180   14.2450   -1.4190 N.ar   19  DA19       -0.2040
    380  C2       -19.7550   15.4010   -1.0480 C.ar   19  DA19        0.2016
    381  N3       -20.1580   16.2770   -0.1320 N.ar   19  DA19       -0.2048
    382  C4       -21.2950   15.8640    0.4520 C.ar   19  DA19        0.1691
    383  P        -24.5650   21.1100    0.7260 P.3    20  DA20        0.2141
    384  OP1      -24.9370   22.5280    0.9300 O.3    20  DA20       -0.4373
    385  OP2      -25.6030   20.0960    0.4320 O.2    20  DA20       -0.5172
    386  O5'      -23.5480   21.0040   -0.5100 O.3    20  DA20       -0.3114
    387  C5'      -22.5190   21.9670   -0.7120 C.3    20  DA20        0.1811
    388  C4'      -21.5410   21.5380   -1.7820 C.3    20  DA20        0.1746
    389  O4'      -21.0920   20.1850   -1.5130 O.3    20  DA20       -0.3327
    390  C3'      -22.0690   21.4920   -3.2130 C.3    20  DA20        0.1558
    391  O3'      -22.0320   22.7550   -3.8640 O.3    20  DA20       -0.3138
    392  C2'      -21.1700   20.4540   -3.8760 C.3    20  DA20        0.0865
    393  C1'      -20.8940   19.4870   -2.7250 C.3    20  DA20        0.2094
    394  N9       -21.7660   18.3570   -2.7610 N.ar   20  DA20       -0.2714
    395  C8       -22.9630   18.2120   -2.1090 C.ar   20  DA20        0.1815
    396  N7       -23.5410   17.0530   -2.3160 N.ar   20  DA20       -0.2193
    397  C5       -22.6650   16.3920   -3.1630 C.ar   20  DA20        0.1518
    398  C6       -22.7020   15.1170   -3.7540 C.ar   20  DA20        0.1919
    399  N6       -23.6960   14.2450   -3.5700 N.pl3  20  DA20       -0.1054
    400  N1       -21.6690   14.7650   -4.5490 N.ar   20  DA20       -0.2040
    401  C2       -20.6730   15.6390   -4.7320 C.ar   20  DA20        0.2016
    402  N3       -20.5260   16.8630   -4.2310 N.ar   20  DA20       -0.2048
    403  C4       -21.5690   17.1830   -3.4470 C.ar   20  DA20        0.1691
    404  P        -23.0070   23.1550   -5.4030 P.3    21  DT21        0.2141
    405  OP1      -23.1650   24.5200   -5.9620 O.2    21  DT21       -0.5172
    406  OP2      -24.1480   22.4930   -4.7260 O.3    21  DT21       -0.4373
    407  O5'      -22.5160   22.2030   -6.5790 O.3    21  DT21       -0.3114
    408  C5'      -21.2970   22.4790   -7.2730 C.3    21  DT21        0.1811
    409  C4'      -20.7420   21.2210   -7.9100 C.3    21  DT21        0.1746
    410  O4'      -20.7680   20.1280   -6.9560 O.3    21  DT21       -0.3327
    411  C3'      -21.4470   20.6580   -9.1340 C.3    21  DT21        0.1558
    412  O3'      -21.0210   21.3000  -10.3230 O.3    21  DT21       -0.3138
    413  C2'      -20.9590   19.2200   -9.1480 C.3    21  DT21        0.0866
    414  C1'      -20.8490   18.9020   -7.6570 C.3    21  DT21        0.2106
    415  N1       -22.1030   18.1280   -7.1810 N.ar   21  DT21       -0.2559
    416  C2       -22.2820   16.8170   -7.5780 C.ar   21  DT21        0.3545
    417  O2       -21.5330   16.2490   -8.3530 O.2    21  DT21       -0.2443
    418  N3       -23.3770   16.1890   -7.0340 N.ar   21  DT21       -0.1533
    419  C4       -24.2900   16.7300   -6.1530 C.ar   21  DT21        0.2804
    420  O4       -25.2230   16.0390   -5.7500 O.2    21  DT21       -0.2654
    421  C5       -24.0360   18.0950   -5.7900 C.ar   21  DT21        0.0534
    422  C6       -22.9790   18.7300   -6.3040 C.ar   21  DT21        0.0824
    423  C7       -24.9740   18.7730   -4.8360 C.3    21  DT21        0.0377
    424  P        -21.7280   21.0680  -11.3180 P.3    22  DC22        0.2141
    425  OP1      -21.1280   22.0800  -12.1910 O.2    22  DC22       -0.5172
    426  OP2      -23.2240   20.8360  -11.3140 O.3    22  DC22       -0.4373
    427  O5'      -21.0530   19.6610  -11.6720 O.3    22  DC22       -0.3114
    428  C5'      -20.8260   19.2790  -13.0300 C.3    22  DC22        0.1811
    429  C4'      -20.6160   17.7920  -13.0970 C.3    22  DC22        0.1746
    430  O4'      -21.1110   17.3470  -11.8240 O.3    22  DC22       -0.3327
    431  C3'      -21.4770   16.9290  -13.9810 C.3    22  DC22        0.1558
    432  O3'      -21.0170   16.8690  -15.3550 O.3    22  DC22       -0.3138
    433  C2'      -21.3150   15.5960  -13.2660 C.3    22  DC22        0.0866
    434  C1'      -21.5780   16.0130  -11.8580 C.3    22  DC22        0.2106
    435  N1       -22.9210   16.2110  -11.3030 N.ar   22  DC22       -0.2556
    436  C2       -23.8100   15.1410  -11.1450 C.ar   22  DC22        0.3531
    437  O2       -23.4810   14.0220  -11.5730 O.2    22  DC22       -0.2443
    438  N3       -24.9990   15.3570  -10.5330 N.ar   22  DC22       -0.1739
    439  C4       -25.3100   16.5760  -10.0910 C.ar   22  DC22        0.1759
    440  N4       -26.4930   16.7420   -9.4940 N.pl3  22  DC22       -0.1070
    441  C5       -24.4230   17.6730  -10.2420 C.ar   22  DC22        0.0566
    442  C6       -23.2500   17.4550  -10.8460 C.ar   22  DC22        0.0849
    443  P        -22.2800   16.7680  -16.4260 P.3    23  DG23        0.2141
    444  OP1      -21.7220   16.5590  -17.7930 O.2    23  DG23       -0.5172
    445  OP2      -22.9880   18.0400  -16.1080 O.3    23  DG23       -0.4373
    446  O5'      -23.2750   15.5720  -16.0820 O.3    23  DG23       -0.3114
    447  C5'      -22.9010   14.2120  -16.2910 C.3    23  DG23        0.1811
    448  C4'      -24.0980   13.3200  -16.0820 C.3    23  DG23        0.1746
    449  O4'      -24.4620   13.3410  -14.6740 O.3    23  DG23       -0.3327
    450  C3'      -25.3570   13.7850  -16.7980 C.3    23  DG23        0.1558
    451  O3'      -25.3830   13.3710  -18.1650 O.3    23  DG23       -0.3138
    452  C2'      -26.4560   13.1530  -15.9500 C.3    23  DG23        0.0865
    453  C1'      -25.8760   13.3260  -14.5430 C.3    23  DG23        0.2094
    454  N9       -26.2610   14.6080  -13.8720 N.ar   23  DG23       -0.2713
    455  C8       -25.4300   15.6270  -13.4740 C.ar   23  DG23        0.1816
    456  N7       -26.0620   16.6130  -12.8990 N.ar   23  DG23       -0.2173
    457  C5       -27.3890   16.2260  -12.9160 C.ar   23  DG23        0.1748
    458  C6       -28.5500   16.8860  -12.4370 C.ar   23  DG23        0.3023
    459  O6       -28.6290   17.9880  -11.8800 O.2    23  DG23       -0.2633
    460  N1       -29.7030   16.1380  -12.6570 N.ar   23  DG23       -0.1709
    461  C2       -29.7340   14.9050  -13.2650 C.ar   23  DG23        0.2606
    462  N2       -30.9410   14.3370  -13.3870 N.pl3  23  DG23       -0.0859
    463  N3       -28.6650   14.2800  -13.7160 N.ar   23  DG23       -0.1918
    464  C4       -27.5330   14.9880  -13.5130 C.ar   23  DG23        0.1722
    465  P        -25.9350   14.2570  -19.1330 P.3    24  DC24        0.2141
    466  OP1      -25.0210   14.3880  -20.2930 O.2    24  DC24       -0.5172
    467  OP2      -26.4920   15.4660  -18.4710 O.3    24  DC24       -0.4373
    468  O5'      -27.1400   13.3110  -19.5220 O.3    24  DC24       -0.3114
    469  C5'      -27.9920   12.8350  -18.5090 C.3    24  DC24        0.1811
    470  C4'      -29.4000   13.1970  -18.8350 C.3    24  DC24        0.1746
    471  O4'      -30.0910   13.4550  -17.5840 O.3    24  DC24       -0.3327
    472  C3'      -29.5260   14.4960  -19.6020 C.3    24  DC24        0.1558
    473  O3'      -29.3690   14.2480  -20.9920 O.3    24  DC24       -0.3138
    474  C2'      -30.9260   14.9420  -19.2100 C.3    24  DC24        0.0866
    475  C1'      -30.9240   14.5910  -17.7200 C.3    24  DC24        0.2106
    476  N1       -30.1830   15.6600  -16.7960 N.ar   24  DC24       -0.2556
    477  C2       -31.0330   16.7050  -16.4160 C.ar   24  DC24        0.3531
    478  O2       -32.2590   16.5620  -16.5630 O.2    24  DC24       -0.2443
    479  N3       -30.4970   17.8380  -15.9030 N.ar   24  DC24       -0.1739
    480  C4       -29.1750   17.9480  -15.7640 C.ar   24  DC24        0.1759
    481  N4       -28.6930   19.0830  -15.2530 N.pl3  24  DC24       -0.1070
    482  C5       -28.2970   16.9000  -16.1430 C.ar   24  DC24        0.0566
    483  C6       -28.8300   15.7830  -16.6490 C.ar   24  DC24        0.0849
    484  P        -29.0100   15.4860  -21.9050 P.3    25  DA25        0.2141
    485  OP1      -28.9510   14.8480  -23.2460 O.2    25  DA25       -0.5172
    486  OP2      -27.8040   16.1470  -21.3500 O.3    25  DA25       -0.4373
    487  O5'      -30.1910   16.5570  -21.8920 O.3    25  DA25       -0.3114
    488  C5'      -31.4470   16.2670  -22.4920 C.3    25  DA25        0.1811
    489  C4'      -32.4050   17.4200  -22.2990 C.3    25  DA25        0.1746
    490  O4'      -32.6220   17.6350  -20.8750 O.3    25  DA25       -0.3327
    491  C3'      -31.9300   18.7700  -22.8020 C.3    25  DA25        0.1558
    492  O3'      -32.1580   18.9120  -24.1930 O.3    25  DA25       -0.3138
    493  C2'      -32.7730   19.7200  -21.9630 C.3    25  DA25        0.0865
    494  C1'      -32.7030   19.0260  -20.6020 C.3    25  DA25        0.2094
    495  N9       -31.4220   19.4290  -19.8370 N.ar   25  DA25       -0.2714
    496  C8       -30.3250   18.6840  -19.4900 C.ar   25  DA25        0.1815
    497  N7       -29.4560   19.3330  -18.7530 N.ar   25  DA25       -0.2193
    498  C5       -30.0190   20.5910  -18.6060 C.ar   25  DA25        0.1518
    499  C6       -29.5890   21.7470  -17.9310 C.ar   25  DA25        0.1919
    500  N6       -28.4440   21.8210  -17.2490 N.pl3  25  DA25       -0.1054
    501  N1       -30.3860   22.8350  -17.9820 N.ar   25  DA25       -0.2040
    502  C2       -31.5340   22.7590  -18.6650 C.ar   25  DA25        0.2016
    503  N3       -32.0450   21.7300  -19.3390 N.ar   25  DA25       -0.2048
    504  C4       -31.2290   20.6660  -19.2690 C.ar   25  DA25        0.1691
    505  P        -30.9990   19.4020  -25.0830 P.3    26  DT26        0.2141
    506  OP1      -31.5110   19.3080  -26.4750 O.2    26  DT26       -0.5172
    507  OP2      -29.5420   19.2420  -24.8230 O.3    26  DT26       -0.4373
    508  O5'      -31.4440   20.8090  -24.4890 O.3    26  DT26       -0.3114
    509  C5'      -32.7810   21.2720  -24.6350 C.3    26  DT26        0.1811
    510  C4'      -32.8460   22.7380  -24.3060 C.3    26  DT26        0.1746
    511  O4'      -32.7080   22.9340  -22.8690 O.3    26  DT26       -0.3327
    512  C3'      -31.6950   23.5300  -24.8890 C.3    26  DT26        0.1558
    513  O3'      -31.9000   23.8350  -26.2590 O.3    26  DT26       -0.3138
    514  C2'      -31.6670   24.7480  -23.9780 C.3    26  DT26        0.0866
    515  C1'      -31.9230   24.0930  -22.6180 C.3    26  DT26        0.2106
    516  N1       -30.6350   23.7170  -21.9310 N.ar   26  DT26       -0.2559
    517  C2       -30.0440   24.6430  -21.0930 C.ar   26  DT26        0.3545
    518  O2       -30.5680   25.7020  -20.7980 O.2    26  DT26       -0.2443
    519  N3       -28.8090   24.2840  -20.6090 N.ar   26  DT26       -0.1533
    520  C4       -28.1210   23.1180  -20.8740 C.ar   26  DT26        0.2804
    521  O4       -27.0180   22.9370  -20.3640 O.2    26  DT26       -0.2654
    522  C5       -28.8000   22.2080  -21.7530 C.ar   26  DT26        0.0534
    523  C6       -30.0020   22.5320  -22.2370 C.ar   26  DT26        0.0824
    524  C7       -28.1330   20.9110  -22.1030 C.3    26  DT26        0.0377
    525  P        -30.7120   23.4100  -27.2920 P.3    27  DT27        0.2141
    526  OP1      -31.0890   23.3790  -28.7240 O.2    27  DT27       -0.5172
    527  OP2      -29.7390   22.4420  -26.7430 O.3    27  DT27       -0.4373
    528  O5'      -30.0920   24.8430  -26.9340 O.3    27  DT27       -0.3114
    529  C5'      -30.8710   26.0080  -27.1530 C.3    27  DT27        0.1811
    530  C4'      -30.4220   27.1760  -26.3080 C.3    27  DT27        0.1746
    531  O4'      -30.4930   26.8320  -24.9000 O.3    27  DT27       -0.3327
    532  C3'      -28.9920   27.6520  -26.5210 C.3    27  DT27        0.1558
    533  O3'      -28.8670   28.5320  -27.6290 O.3    27  DT27       -0.3138
    534  C2'      -28.6260   28.2910  -25.1840 C.3    27  DT27        0.0866
    535  C1'      -29.4540   27.4730  -24.1970 C.3    27  DT27        0.2106
    536  N1       -28.6730   26.5580  -23.4980 N.ar   27  DT27       -0.2559
    537  C2       -28.1230   26.8800  -22.2710 C.ar   27  DT27        0.3545
    538  O2       -28.3610   27.9240  -21.6900 O.2    27  DT27       -0.2443
    539  N3       -27.2800   25.9310  -21.7460 N.ar   27  DT27       -0.1533
    540  C4       -26.9380   24.7200  -22.3110 C.ar   27  DT27        0.2804
    541  O4       -26.1670   23.9710  -21.7170 O.2    27  DT27       -0.2654
    542  C5       -27.5480   24.4600  -23.5840 C.ar   27  DT27        0.0534
    543  C6       -28.3730   25.3650  -24.1180 C.ar   27  DT27        0.0824
    544  C7       -27.2380   23.1680  -24.2800 C.3    27  DT27        0.0377
    545  P        -27.4260   29.0760  -28.1450 P.3    28  DA28        0.2141
    546  OP1      -27.3350   29.5910  -29.5330 O.2    28  DA28       -0.5172
    547  OP2      -26.7160   27.8370  -27.7500 O.3    28  DA28       -0.4373
    548  O5'      -26.8720   30.1720  -27.1110 O.3    28  DA28       -0.3114
    549  C5'      -26.9430   31.5540  -27.4350 C.3    28  DA28        0.1811
    550  C4'      -26.8220   32.4360  -26.2160 C.3    28  DA28        0.1746
    551  O4'      -27.4620   31.7840  -25.0920 O.3    28  DA28       -0.3327
    552  C3'      -25.4160   32.7110  -25.7050 C.3    28  DA28        0.1558
    553  O3'      -24.7160   33.6900  -26.4520 O.3    28  DA28       -0.3138
    554  C2'      -25.6550   33.0740  -24.2390 C.3    28  DA28        0.0865
    555  C1'      -26.7900   32.1130  -23.8940 C.3    28  DA28        0.2094
    556  N9       -26.2840   30.8870  -23.2480 N.ar   28  DA28       -0.2714
    557  C8       -26.4390   29.6210  -23.7470 C.ar   28  DA28        0.1815
    558  N7       -25.9110   28.6860  -22.9920 N.ar   28  DA28       -0.2193
    559  C5       -25.3710   29.3880  -21.9250 C.ar   28  DA28        0.1518
    560  C6       -24.6720   28.9740  -20.7780 C.ar   28  DA28        0.1919
    561  N6       -24.3870   27.6980  -20.5060 N.pl3  28  DA28       -0.1054
    562  N1       -24.2710   29.9270  -19.9110 N.ar   28  DA28       -0.2040
    563  C2       -24.5580   31.2050  -20.1830 C.ar   28  DA28        0.2016
    564  N3       -25.2090   31.7170  -21.2260 N.ar   28  DA28       -0.2048
    565  C4       -25.5920   30.7440  -22.0700 C.ar   28  DA28        0.1691
    566  P        -23.3370   33.3090  -26.8710 P.3    29  DC29        0.2141
    567  OP1      -23.0160   34.4020  -27.8300 O.2    29  DC29       -0.5172
    568  OP2      -23.2390   31.8940  -27.3050 O.3    29  DC29       -0.4373
    569  O5'      -22.4230   33.5140  -25.5890 O.3    29  DC29       -0.3114
    570  C5'      -22.3080   34.7930  -24.9870 C.3    29  DC29        0.1811
    571  C4'      -21.6120   34.6820  -23.6590 C.3    29  DC29        0.1746
    572  O4'      -22.3710   33.7910  -22.7880 O.3    29  DC29       -0.3327
    573  C3'      -20.1940   34.1140  -23.6890 C.3    29  DC29        0.1558
    574  O3'      -19.5050   34.7320  -22.6130 O.3    29  DC29       -0.3138
    575  C2'      -20.4460   32.6450  -23.3640 C.3    29  DC29        0.0866
    576  C1'      -21.5050   32.8030  -22.2800 C.3    29  DC29        0.2106
    577  N1       -22.1630   31.7940  -21.9830 N.ar   29  DC29       -0.2556
    578  C2       -22.1920   30.9980  -20.8320 C.ar   29  DC29        0.3531
    579  O2       -22.1340   31.5510  -19.7210 O.2    29  DC29       -0.2443
    580  N3       -22.2800   29.6520  -20.9630 N.ar   29  DC29       -0.1739
    581  C4       -22.3380   29.1020  -22.1760 C.ar   29  DC29        0.1759
    582  N4       -22.4240   27.7720  -22.2550 N.pl3  29  DC29       -0.1070
    583  C5       -22.3100   29.8910  -23.3540 C.ar   29  DC29        0.0566
    584  C6       -22.2230   31.2190  -23.2210 C.ar   29  DC29        0.0849
    585  P        -17.7940   34.8870  -22.5170 P.3    30  DC30        0.2141
    586  OP1      -16.8460   35.9310  -22.9670 O.2    30  DC30       -0.5172
    587  OP2      -17.4140   33.4600  -22.6250 O.3    30  DC30       -0.4373
    588  O5'      -18.2040   35.0810  -20.9750 O.3    30  DC30       -0.3114
    589  C5'      -17.3610   34.7010  -19.8880 C.3    30  DC30        0.1811
    590  C4'      -18.1440   34.1010  -18.7410 C.3    30  DC30        0.1747
    591  O4'      -19.1700   33.2210  -19.2760 O.3    30  DC30       -0.3326
    592  C3'      -17.3580   33.2210  -17.7700 C.3    30  DC30        0.1580
    593  O3'      -16.6720   33.9300  -16.7490 O.3    30  DC30       -0.3138
    594  C2'      -18.4130   32.2610  -17.2310 C.3    30  DC30        0.1098
    595  C1'      -19.3290   32.0880  -18.4480 C.3    30  DC30        0.2129
    596  N1       -19.0350   30.7760  -19.1300 N.ar   30  DC30       -0.2556
    597  C2       -19.2420   29.5560  -18.4750 C.ar   30  DC30        0.3531
    598  O2       -19.5730   29.5700  -17.2770 O.2    30  DC30       -0.2443
    599  N3       -19.0750   28.4010  -19.1620 N.ar   30  DC30       -0.1739
    600  C4       -18.7180   28.4350  -20.4470 C.ar   30  DC30        0.1759
    601  N4       -18.5650   27.2720  -21.0840 N.pl3  30  DC30       -0.1070
    602  C5       -18.5030   29.6600  -21.1290 C.ar   30  DC30        0.0566
    603  C6       -18.6690   30.7990  -20.4460 C.ar   30  DC30        0.0849
    604  P        -15.9730   33.0660  -15.9600 P.3    31  DT31        0.2140
    605  OP1      -15.5310   33.9850  -14.8760 O.3    31  DT31       -0.4373
    606  OP2      -15.0270   32.0590  -16.5000 O.2    31  DT31       -0.5172
    607  O5'      -17.2620   32.2890  -15.4400 O.3    31  DT31       -0.3138
    608  C5'      -17.6760   31.0680  -16.0450 C.3    31  DT31        0.1579
    609  C4'      -17.4510   29.9070  -15.1080 C.3    31  DT31        0.1723
    610  O4'      -16.0470   29.5320  -15.1070 O.3    31  DT31       -0.3328
    611  C3'      -17.7810   30.1350  -13.6400 C.3    31  DT31        0.1557
    612  O3'      -19.1780   29.9700  -13.3910 O.3    31  DT31       -0.3138
    613  C2'      -16.9690   29.0310  -12.9640 C.3    31  DT31        0.0866
    614  C1'      -15.7150   28.9660  -13.8470 C.3    31  DT31        0.2106
    615  N1       -14.9850   30.4120  -12.8980 N.ar   31  DT31       -0.2559
    616  C2       -14.0790   30.0110  -11.9340 C.ar   31  DT31        0.3545
    617  O2       -13.8410   28.8410  -11.6910 O.2    31  DT31       -0.2443
    618  N3       -13.4580   31.0340  -11.2590 N.ar   31  DT31       -0.1533
    619  C4       -13.6480   32.3870  -11.4460 C.ar   31  DT31        0.2804
    620  O4       -13.0160   33.1880  -10.7620 O.2    31  DT31       -0.2654
    621  C5       -14.6050   32.7230  -12.4640 C.ar   31  DT31        0.0534
    622  C6       -15.2230   31.7480  -13.1350 C.ar   31  DT31        0.0824
    623  C7       -14.8830   34.1700  -12.7430 C.3    31  DT31        0.0377
    624  P        -19.6290   30.2280  -12.3050 P.3    32  DT32        0.2141
    625  OP1      -19.6970   30.8790  -10.9710 O.3    32  DT32       -0.4373
    626  OP2      -20.0480   28.8110  -12.4490 O.2    32  DT32       -0.5172
    627  O5'      -20.5050   31.0590  -13.3460 O.3    32  DT32       -0.3114
    628  C5'      -20.5730   32.4860  -13.2890 C.3    32  DT32        0.1812
    629  C4'      -21.7720   32.9890  -14.0650 C.3    32  DT32        0.1775
    630  O4'      -21.5160   32.9250  -15.4930 O.3    32  DT32       -0.3326
    631  C3'      -23.0270   32.1580  -13.8740 C.3    32  DT32        0.1859
    632  O3'      -23.7350   32.4650  -12.6970 O.3    32  DT32       -0.2202
    633  C2'      -23.8160   32.4450  -15.1370 C.3    32  DT32        0.0895
    634  C1'      -22.6980   32.5240  -16.1750 C.3    32  DT32        0.2107
    635  N1       -22.5160   31.1260  -16.7470 N.ar   32  DT32       -0.2559
    636  C2       -23.3390   30.8070  -17.8110 C.ar   32  DT32        0.3545
    637  O2       -24.1420   31.5900  -18.2870 O.2    32  DT32       -0.2443
    638  N3       -23.1900   29.5320  -18.2990 N.ar   32  DT32       -0.1533
    639  C4       -22.3200   28.5650  -17.8410 C.ar   32  DT32        0.2804
    640  O4       -22.3000   27.4630  -18.3830 O.2    32  DT32       -0.2654
    641  C5       -21.5000   28.9720  -16.7350 C.ar   32  DT32        0.0534
    642  C6       -21.6240   30.2070  -16.2400 C.ar   32  DT32        0.0824
    643  C7       -20.5200   27.9900  -16.1650 C.3    32  DT32        0.0377
    644  P        -24.6540   31.2210  -11.9080 P.3    33  DA33        0.4149
    645  OP1      -25.6020   31.8300  -10.9480 O.2    33  DA33       -0.2668
    646  OP2      -24.6010   29.7520  -12.0990 O.3    33  DA33       -0.1481
    647  O5'      -24.9150   31.8060  -13.3750 O.3    33  DA33       -0.2177
    648  C5'      -25.5410   33.0660  -13.5560 C.3    33  DA33        0.2140
    649  C4'      -26.6560   32.9740  -14.5700 C.3    33  DA33        0.1776
    650  O4'      -26.1260   32.4700  -15.8240 O.3    33  DA33       -0.3326
    651  C3'      -27.7960   32.0170  -14.2380 C.3    33  DA33        0.1559
    652  O3'      -28.7600   32.5680  -13.3500 O.3    33  DA33       -0.3138
    653  C2'      -28.3600   31.6850  -15.6140 C.3    33  DA33        0.0865
    654  C1'      -27.0990   31.6860  -16.4790 C.3    33  DA33        0.2094
    655  N9       -26.4860   30.3900  -16.7000 N.ar   33  DA33       -0.2714
    656  C8       -25.6390   29.7040  -15.8680 C.ar   33  DA33        0.1815
    657  N7       -25.4340   28.4600  -16.2300 N.ar   33  DA33       -0.2193
    658  C5       -26.1980   28.3190  -17.3780 C.ar   33  DA33        0.1518
    659  C6       -26.4100   27.2320  -18.2450 C.ar   33  DA33        0.1919
    660  N6       -25.8450   26.0340  -18.0810 N.pl3  33  DA33       -0.1054
    661  N1       -27.2330   27.4230  -19.2990 N.ar   33  DA33       -0.2040
    662  C2       -27.7980   28.6250  -19.4630 C.ar   33  DA33        0.2016
    663  N3       -27.6750   29.7210  -18.7180 N.ar   33  DA33       -0.2048
    664  C4       -26.8520   29.4980  -17.6790 C.ar   33  DA33        0.1691
    665  P        -29.7770   31.6300  -12.3610 P.3    34  DT34        0.2141
    666  OP1      -30.7900   32.2640  -11.4930 O.3    34  DT34       -0.4373
    667  OP2      -28.8960   30.5650  -11.8050 O.2    34  DT34       -0.5172
    668  O5'      -30.5220   31.0180  -13.6290 O.3    34  DT34       -0.3114
    669  C5'      -31.6360   31.6960  -14.2370 C.3    34  DT34        0.1811
    670  C4'      -32.4130   30.7400  -15.1120 C.3    34  DT34        0.1746
    671  O4'      -31.5660   30.2580  -16.1960 O.3    34  DT34       -0.3327
    672  C3'      -32.8680   29.4630  -14.4360 C.3    34  DT34        0.1558
    673  O3'      -34.0330   29.6430  -13.6440 O.3    34  DT34       -0.3138
    674  C2'      -33.0940   28.5420  -15.6270 C.3    34  DT34        0.0866
    675  C1'      -31.9120   28.9190  -16.5160 C.3    34  DT34        0.2106
    676  N1       -30.7320   28.0380  -16.1870 N.ar   34  DT34       -0.2559
    677  C2       -30.8000   26.7810  -16.7570 C.ar   34  DT34        0.3545
    678  O2       -31.6760   26.4530  -17.5380 O.2    34  DT34       -0.2443
    679  N3       -29.8020   25.9160  -16.3790 N.ar   34  DT34       -0.1533
    680  C4       -28.7660   26.1750  -15.5060 C.ar   34  DT34        0.2804
    681  O4       -27.9440   25.2950  -15.2650 O.2    34  DT34       -0.2654
    682  C5       -28.7650   27.5010  -14.9550 C.ar   34  DT34        0.0534
    683  C6       -29.7230   28.3630  -15.3060 C.ar   34  DT34        0.0824
    684  C7       -27.6780   27.8800  -13.9940 C.3    34  DT34        0.0377
    685  P        -34.2790   28.6870  -12.3920 P.3    35  DA35        0.2141
    686  OP1      -35.4860   29.3600  -11.8600 O.2    35  DA35       -0.5172
    687  OP2      -33.3360   28.0340  -11.4500 O.3    35  DA35       -0.4373
    688  O5'      -34.7090   27.5860  -13.4630 O.3    35  DA35       -0.3114
    689  C5'      -35.9270   27.7000  -14.2170 C.3    35  DA35        0.1811
    690  C4'      -36.2600   26.3750  -14.8690 C.3    35  DA35        0.1746
    691  O4'      -35.2410   26.0570  -15.8560 O.3    35  DA35       -0.3327
    692  C3'      -36.2390   25.1670  -13.9470 C.3    35  DA35        0.1558
    693  O3'      -37.4230   25.0010  -13.1940 O.3    35  DA35       -0.3138
    694  C2'      -36.0250   24.0220  -14.9200 C.3    35  DA35        0.0865
    695  C1'      -35.0310   24.6530  -15.8940 C.3    35  DA35        0.2094
    696  N9       -33.6570   24.4030  -15.4070 N.ar   35  DA35       -0.2714
    697  C8       -32.7660   25.1320  -14.6630 C.ar   35  DA35        0.1815
    698  N7       -31.6780   24.4720  -14.3440 N.ar   35  DA35       -0.2193
    699  C5       -31.8670   23.2240  -14.9160 C.ar   35  DA35        0.1518
    700  C6       -31.0720   22.0640  -14.9400 C.ar   35  DA35        0.1919
    701  N6       -29.8780   21.9740  -14.3510 N.pl3  35  DA35       -0.1054
    702  N1       -31.5540   20.9890  -15.5990 N.ar   35  DA35       -0.2040
    703  C2       -32.7510   21.0800  -16.1890 C.ar   35  DA35        0.2016
    704  N3       -33.5890   22.1140  -16.2360 N.ar   35  DA35       -0.2048
    705  C4       -33.0820   23.1660  -15.5730 C.ar   35  DA35        0.1691
    706  P        -37.4220   23.9440  -11.8120 P.3    36  DC36        0.2141
    707  OP1      -38.5500   24.4350  -10.9900 O.3    36  DC36       -0.4373
    708  OP2      -36.0400   24.3780  -11.5060 O.2    36  DC36       -0.5172
    709  O5'      -37.3820   22.3440  -11.7370 O.3    36  DC36       -0.3114
    710  C5'      -38.5230   21.5680  -12.0670 C.3    36  DC36        0.1811
    711  C4'      -38.1440   20.1890  -12.5460 C.3    36  DC36        0.1744
    712  O4'      -37.0140   20.2810  -13.4510 O.3    36  DC36       -0.3348
    713  C3'      -37.6610   19.2110  -11.4840 C.3    36  DC36        0.1555
    714  O3'      -38.7030   18.6150  -10.7360 O.3    36  DC36       -0.3139
    715  C2'      -36.8620   18.2080  -12.3050 C.3    36  DC36        0.0836
    716  C1'      -36.1820   19.1450  -13.3010 C.3    36  DC36        0.1999
    717  N1       -34.8350   19.5940  -13.0050 N.pl3  36  DC36       -0.2134
    718  C2       -33.7700   18.6870  -13.0570 C.2    36  DC36        0.4283
    719  O2       -33.9920   17.5260  -13.4420 O.2    36  DC36       -0.3326
    720  N3       -32.5340   19.1000  -12.6870 N.2    36  DC36        0.0235
    721  C4       -32.3440   20.3550  -12.2800 C.2    36  DC36        0.4172
    722  N4       -31.1080   20.7160  -11.9250 N.pl3  36  DC36        0.2162
    723  C5       -33.4100   21.2890  -12.2200 C.2    36  DC36        0.0937
    724  C6       -34.6290   20.8780  -12.5860 C.3    36  DC36        0.1340
    725  P        -38.4040   17.8920   -9.3720 P.3    37  DC37        0.2141
    726  OP1      -39.7710   17.3030   -8.9600 O.2    37  DC37       -0.5172
    727  OP2      -37.4130   18.2130   -8.3460 O.3    37  DC37       -0.4373
    728  O5'      -37.7150   16.7550  -10.2390 O.3    37  DC37       -0.3114
    729  C5'      -38.4130   16.2860  -11.3590 C.3    37  DC37        0.1811
    730  C4'      -37.5330   15.4140  -12.1830 C.3    37  DC37        0.1745
    731  O4'      -36.5570   16.2420  -12.9040 O.3    37  DC37       -0.3334
    732  C3'      -36.6700   14.4200  -11.3840 C.3    37  DC37        0.1556
    733  O3'      -37.4290   13.2490  -11.0520 O.3    37  DC37       -0.3139
    734  C2'      -35.5700   14.1040  -12.4130 C.3    37  DC37        0.0854
    735  C1'      -35.3170   15.5200  -13.0050 C.3    37  DC37        0.2208
    736  N1       -34.2730   16.2390  -12.2500 N.am   37  DC37       -0.1151
    737  C2       -32.9470   16.0120  -12.6350 C.2    37  DC37        0.4584
    738  O2       -32.7230   15.2480  -13.5890 O.2    37  DC37       -0.2175
    739  N3       -31.9490   16.6290  -11.9570 N.am   37  DC37        0.0543
    740  C4       -32.2370   17.4400  -10.9390 C.2    37  DC37        0.4119
    741  N4       -31.2210   18.0260  -10.3010 N.pl3  37  DC37        0.2142
    742  C5       -33.5740   17.6830  -10.5340 C.2    37  DC37        0.1138
    743  C6       -34.5560   17.0720  -11.2050 C.2    37  DC37        0.1007
    744  P        -37.1580   12.4040   -9.4830 P.3    38  DA38        0.2141
    745  OP1      -38.3630   11.5390   -9.4170 O.2    38  DA38       -0.5172
    746  OP2      -36.7980   13.2430   -8.3150 O.3    38  DA38       -0.4373
    747  O5'      -35.9290   11.4740   -9.8610 O.3    38  DA38       -0.3114
    748  C5'      -36.1160   10.4080  -10.7930 C.3    38  DA38        0.1811
    749  C4'      -34.8440   10.1370  -11.5440 C.3    38  DA38        0.1746
    750  O4'      -34.3450   11.3930  -12.0720 O.3    38  DA38       -0.3327
    751  C3'      -33.6750    9.6070  -10.7370 C.3    38  DA38        0.1558
    752  O3'      -33.7390    8.2100  -10.5090 O.3    38  DA38       -0.3138
    753  C2'      -32.4750   10.0140  -11.5860 C.3    38  DA38        0.0865
    754  C1'      -32.9270   11.3710  -12.1050 C.3    38  DA38        0.2094
    755  N9       -32.4580   12.4640  -11.2310 N.ar   38  DA38       -0.2715
    756  C8       -33.1970   13.3230  -10.4600 C.ar   38  DA38        0.1817
    757  N7       -32.4760   14.2040   -9.8080 N.ar   38  DA38       -0.2149
    758  C5       -31.1730   13.9020  -10.1740 C.ar   38  DA38        0.2012
    759  C6       -29.9360   14.4720   -9.8240 C.2    38  DA38        0.3907
    760  N6       -29.8080   15.5080   -8.9920 N.pl3  38  DA38        0.2117
    761  N1       -28.8230   13.9330  -10.3660 N.pl3  38  DA38       -0.1144
    762  C2       -28.9530   12.8950  -11.2000 C.3    38  DA38        0.3152
    763  N3       -30.0590   12.2740  -11.6050 N.2    38  DA38       -0.2078
    764  C4       -31.1470   12.8330  -11.0490 C.ar   38  DA38        0.1710
    765  P        -32.6350    7.2990   -9.0240 P.3    39  DG39        0.2141
    766  OP1      -33.2930    6.1880   -8.3020 O.2    39  DG39       -0.5172
    767  OP2      -31.7820    8.2420   -8.2750 O.3    39  DG39       -0.4373
    768  O5'      -31.7940    6.6740  -10.2250 O.3    39  DG39       -0.3114
    769  C5'      -30.4770    6.2390  -10.0020 C.3    39  DG39        0.1811
    770  C4'      -29.5460    6.7190  -11.0980 C.3    39  DG39        0.1767
    771  O4'      -29.9070    8.0430  -11.5700 O.3    39  DG39       -0.3154
    772  C3'      -28.1160    6.8710  -10.6200 C.3    39  DG39        0.1581
    773  O3'      -27.4730    5.6120  -10.6460 O.3    39  DG39       -0.3138
    774  C2'      -27.5540    7.8610  -11.6310 C.3    39  DG39        0.1126
    775  C1'      -28.7320    8.8260  -11.7130 C.3    39  DG39        0.2911
    776  N9       -28.6840    9.9520  -10.6260 N.pl3  39  DG39       -0.1302
    777  C8       -29.5940   10.1020   -9.6080 C.2    39  DG39        0.2798
    778  N7       -29.4810   11.2410   -8.9800 N.2    39  DG39       -0.2075
    779  C5       -28.4360   11.8830   -9.6190 C.3    39  DG39        0.3447
    780  C6       -27.8490   13.1520   -9.3810 C.3    39  DG39        0.4401
    781  O6       -28.1560   13.9890   -8.5230 O.3    39  DG39       -0.1369
    782  N1       -26.8060   13.4170  -10.2640 N.2    39  DG39       -0.0135
    783  C2       -26.3800   12.5630  -11.2530 C.cat  39  DG39        0.5326
    784  N2       -25.3590   12.9940  -12.0070 N.pl3  39  DG39        0.1592
    785  N3       -26.9150   11.3810  -11.4860 N.2    39  DG39        0.0308
    786  C4       -27.9300   11.1020  -10.6400 C.2    39  DG39        0.3504
    787  P        -26.8620    5.2910   -9.5460 P.3    40  DC40        0.2141
    788  OP1      -26.4780    3.8820   -9.7110 O.2    40  DC40       -0.5172
    789  OP2      -27.3410    5.8270   -8.2540 O.3    40  DC40       -0.4373
    790  O5'      -25.6200    6.2280   -9.9340 O.3    40  DC40       -0.3114
    791  C5'      -24.8490    5.9310  -11.0730 C.3    40  DC40        0.1811
    792  C4'      -24.0070    7.1250  -11.4310 C.3    40  DC40        0.1746
    793  O4'      -24.8300    8.3120  -11.4920 O.3    40  DC40       -0.3327
    794  C3'      -22.9480    7.4890  -10.4140 C.3    40  DC40        0.1558
    795  O3'      -21.8490    6.6300  -10.5600 O.3    40  DC40       -0.3138
    796  C2'      -22.6570    8.9170  -10.8400 C.3    40  DC40        0.0866
    797  C1'      -24.0700    9.4260  -11.0740 C.3    40  DC40        0.2106
    798  N1       -24.6140   10.0080   -9.8190 N.ar   40  DC40       -0.2556
    799  C2       -24.3100   11.3380   -9.5090 C.ar   40  DC40        0.3531
    800  O2       -23.5430   11.9670  -10.2580 O.2    40  DC40       -0.2443
    801  N3       -24.8580   11.9000   -8.4050 N.ar   40  DC40       -0.1739
    802  C4       -25.6760   11.1870   -7.6290 C.ar   40  DC40        0.1759
    803  N4       -26.1930   11.7830   -6.5520 N.pl3  40  DC40       -0.1070
    804  C5       -25.9960    9.8380   -7.9260 C.ar   40  DC40        0.0566
    805  C6       -25.4530    9.2870   -9.0170 C.ar   40  DC40        0.0849
    806  P        -21.0200    6.3040   -9.4420 P.3    41  DT41        0.2141
    807  OP1      -20.9350    4.9970  -10.1430 O.2    41  DT41       -0.5172
    808  OP2      -21.5010    6.3600   -8.0310 O.3    41  DT41       -0.4373
    809  O5'      -19.5840    6.9760   -9.5420 O.3    41  DT41       -0.3114
    810  C5'      -19.2140    7.7220  -10.6890 C.3    41  DT41        0.1811
    811  C4'      -18.7970    9.1080  -10.2740 C.3    41  DT41        0.1746
    812  O4'      -19.9270    9.8540   -9.7460 O.3    41  DT41       -0.3327
    813  C3'      -17.8670    9.1850   -9.0780 C.3    41  DT41        0.1558
    814  O3'      -16.5580    8.6970   -9.3230 O.3    41  DT41       -0.3138
    815  C2'      -17.9430   10.6690   -8.7280 C.3    41  DT41        0.0866
    816  C1'      -19.4160   10.9700   -9.0270 C.3    41  DT41        0.2106
    817  N1       -20.1800   11.3540   -8.1380 N.ar   41  DT41       -0.2559
    818  C2       -20.1860   12.5960   -7.5310 C.ar   41  DT41        0.3545
    819  O2       -19.5430   13.5430   -7.9480 O.2    41  DT41       -0.2443
    820  N3       -20.9770   12.6920   -6.4110 N.ar   41  DT41       -0.1533
    821  C4       -21.7440   11.6930   -5.8490 C.ar   41  DT41        0.2804
    822  O4       -22.4030   11.9310   -4.8400 O.2    41  DT41       -0.2654
    823  C5       -21.6840   10.4330   -6.5360 C.ar   41  DT41        0.0534
    824  C6       -20.9230   10.3120   -7.6280 C.ar   41  DT41        0.0824
    825  C7       -22.4840    9.2820   -6.0020 C.3    41  DT41        0.0377
    826  P        -15.5720    8.4170   -7.9860 P.3    42  DT42        0.2141
    827  OP1      -14.3470    8.0990   -8.7490 O.2    42  DT42       -0.5172
    828  OP2      -16.1700    7.3790   -7.1160 O.3    42  DT42       -0.4373
    829  O5'      -15.2840    9.7240   -7.1030 O.3    42  DT42       -0.3114
    830  C5'      -14.3440   10.7190   -7.5180 C.3    42  DT42        0.1811
    831  C4'      -14.8660   12.1230   -7.2580 C.3    42  DT42        0.1746
    832  O4'      -16.3130   12.1430   -7.3310 O.3    42  DT42       -0.3327
    833  C3'      -14.5540   12.6950   -5.8840 C.3    42  DT42        0.1558
    834  O3'      -13.2530   13.2570   -5.8550 O.3    42  DT42       -0.3138
    835  C2'      -15.6420   13.7490   -5.7150 C.3    42  DT42        0.0866
    836  C1'      -16.8270   13.1050   -6.4290 C.3    42  DT42        0.2106
    837  N1       -17.6450   12.4690   -5.3650 N.ar   42  DT42       -0.2559
    838  C2       -18.3840   13.2390   -4.4870 C.ar   42  DT42        0.3545
    839  O2       -18.2220   14.4390   -4.3570 O.2    42  DT42       -0.2443
    840  N3       -19.3250   12.5490   -3.7600 N.ar   42  DT42       -0.1533
    841  C4       -19.5940   11.1980   -3.8230 C.ar   42  DT42        0.2804
    842  O4       -20.4720   10.7220   -3.1070 O.2    42  DT42       -0.2654
    843  C5       -18.7840   10.4680   -4.7570 C.ar   42  DT42        0.0534
    844  C6       -17.8620   11.1130   -5.4760 C.ar   42  DT42        0.0824
    845  C7       -19.0000    8.9900   -4.8980 C.3    42  DT42        0.0377
    846  P        -12.5780   13.5160   -4.3860 P.3    43  DA43        0.2141
    847  OP1      -11.1370   13.2610   -4.6050 O.2    43  DA43       -0.5172
    848  OP2      -13.3660   12.6000   -3.5320 O.3    43  DA43       -0.4373
    849  O5'      -12.7710   14.9570   -3.7060 O.3    43  DA43       -0.3114
    850  C5'      -12.3620   15.2010   -2.3630 C.3    43  DA43        0.1811
    851  C4'      -13.3870   16.0260   -1.6230 C.3    43  DA43        0.1746
    852  O4'      -14.6940   15.7470   -2.1930 O.3    43  DA43       -0.3327
    853  C3'      -13.5670   15.7330   -0.1360 C.3    43  DA43        0.1558
    854  O3'      -12.6260   16.3480    0.7340 O.3    43  DA43       -0.3138
    855  C2'      -15.0010   16.1860    0.1050 C.3    43  DA43        0.0865
    856  C1'      -15.6690   15.6960   -1.1750 C.3    43  DA43        0.2094
    857  N9       -16.2500   14.4670   -0.9420 N.ar   43  DA43       -0.2714
    858  C8       -16.0070   13.4630   -1.8430 C.ar   43  DA43        0.1815
    859  N7       -16.8190   12.4390   -1.7250 N.ar   43  DA43       -0.2193
    860  C5       -17.6510   12.7940   -0.6750 C.ar   43  DA43        0.1518
    861  C6       -18.7280   12.1350   -0.0570 C.ar   43  DA43        0.1919
    862  N6       -19.1660   10.9290   -0.4260 N.pl3  43  DA43       -0.1054
    863  N1       -19.3440   12.7650    0.9660 N.ar   43  DA43       -0.2040
    864  C2       -18.9040   13.9730    1.3340 C.ar   43  DA43        0.2016
    865  N3       -17.9050   14.6940    0.8310 N.ar   43  DA43       -0.2048
    866  C4       -17.3120   14.0400   -0.1820 C.ar   43  DA43        0.1691
    867  P        -12.0820   15.4810    1.7530 P.3    44  DT44        0.2141
    868  OP1      -10.9000   16.1610    2.3280 O.3    44  DT44       -0.4373
    869  OP2      -11.9530   14.1620    1.0920 O.2    44  DT44       -0.5172
    870  O5'      -13.1930   15.2290    2.8780 O.3    44  DT44       -0.3114
    871  C5'      -13.5020   16.2120    3.8570 C.3    44  DT44        0.1811
    872  C4'      -14.7760   15.8660    4.5840 C.3    44  DT44        0.1746
    873  O4'      -15.6920   15.2780    3.6340 O.3    44  DT44       -0.3327
    874  C3'      -14.6740   14.7960    5.6590 C.3    44  DT44        0.1558
    875  O3'      -14.2020   15.2720    6.9040 O.3    44  DT44       -0.3138
    876  C2'      -16.0870   14.2330    5.7390 C.3    44  DT44        0.0866
    877  C1'      -16.5070   14.3230    4.2800 C.3    44  DT44        0.2106
    878  N1       -16.3800   13.0470    3.6300 N.ar   44  DT44       -0.2559
    879  C2       -17.3680   12.0950    3.7960 C.ar   44  DT44        0.3545
    880  O2       -18.3030   12.2350    4.5640 O.2    44  DT44       -0.2443
    881  N3       -17.2220   10.9650    3.0270 N.ar   44  DT44       -0.1533
    882  C4       -16.2100   10.6980    2.1290 C.ar   44  DT44        0.2804
    883  O4       -16.2150    9.6370    1.5100 O.2    44  DT44       -0.2654
    884  C5       -15.2220   11.7340    2.0140 C.ar   44  DT44        0.0534
    885  C6       -15.3400   12.8430    2.7500 C.ar   44  DT44        0.0824
    886  C7       -14.0790   11.5370    1.0630 C.3    44  DT44        0.0377
    887  P        -13.0040   14.4880    7.5180 P.3    45  DT45        0.2141
    888  OP1      -12.4870   15.2710    8.6730 O.3    45  DT45       -0.4373
    889  OP2      -12.0540   13.9980    6.4830 O.2    45  DT45       -0.5172
    890  O5'      -13.8450   13.2830    8.1290 O.3    45  DT45       -0.3114
    891  C5'      -14.9010   13.5630    9.0430 C.3    45  DT45        0.1811
    892  C4'      -15.7920   12.3660    9.2290 C.3    45  DT45        0.1746
    893  O4'      -16.5430   12.0790    8.0280 O.3    45  DT45       -0.3327
    894  C3'      -15.0940   11.0660    9.5630 C.3    45  DT45        0.1558
    895  O3'      -14.8350   11.0750   10.9590 O.3    45  DT45       -0.3138
    896  C2'      -16.1510   10.0290    9.1890 C.3    45  DT45        0.0866
    897  C1'      -16.8240   10.6940    7.9790 C.3    45  DT45        0.2106
    898  N1       -16.4070   10.3520    6.6880 N.ar   45  DT45       -0.2559
    899  C2       -16.9120    9.1480    6.2360 C.ar   45  DT45        0.3545
    900  O2       -17.8900    8.6110    6.7260 O.2    45  DT45       -0.2443
    901  N3       -16.2260    8.5890    5.1840 N.ar   45  DT45       -0.1533
    902  C4       -15.1120    9.1020    4.5540 C.ar   45  DT45        0.2804
    903  O4       -14.6070    8.4840    3.6200 O.2    45  DT45       -0.2654
    904  C5       -14.6480   10.3540    5.0810 C.ar   45  DT45        0.0534
    905  C6       -15.2960   10.9200    6.1040 C.ar   45  DT45        0.0824
    906  C7       -13.4400   10.9930    4.4620 C.3    45  DT45        0.0377
    907  P        -13.2730   10.4380   11.6810 P.3    46  DC46        0.2141
    908  OP1      -12.7570   10.5680   13.0580 O.3    46  DC46       -0.4373
    909  OP2      -12.3150   10.5340   10.5450 O.2    46  DC46       -0.5172
    910  O5'      -14.0120    9.0180   11.6130 O.3    46  DC46       -0.3114
    911  C5'      -14.4290    8.3720   12.8150 C.3    46  DC46        0.1811
    912  C4'      -14.3670    6.8790   12.6650 C.3    46  DC46        0.1746
    913  O4'      -15.3010    6.4620   11.6490 O.3    46  DC46       -0.3327
    914  C3'      -13.0280    6.3170   12.2380 C.3    46  DC46        0.1558
    915  O3'      -12.2220    6.0280   13.3720 O.3    46  DC46       -0.3138
    916  C2'      -13.4260    5.0220   11.5530 C.3    46  DC46        0.0866
    917  C1'      -14.7520    5.4070   10.8950 C.3    46  DC46        0.2106
    918  N1       -14.7100    5.9270    9.4160 N.ar   46  DC46       -0.2556
    919  C2       -14.6870    4.8810    8.4860 C.ar   46  DC46        0.3531
    920  O2       -15.0470    3.7490    8.8510 O.2    46  DC46       -0.2443
    921  N3       -14.2740    5.1330    7.2210 N.ar   46  DC46       -0.1739
    922  C4       -13.8960    6.3640    6.8750 C.ar   46  DC46        0.1759
    923  N4       -13.4960    6.5640    5.6170 N.pl3  46  DC46       -0.1070
    924  C5       -13.9120    7.4370    7.8020 C.ar   46  DC46        0.0566
    925  C6       -14.3210    7.1850    9.0500 C.ar   46  DC46        0.0849
    926  P        -10.5480    5.7680   13.1900 P.3    47  DA47        0.2141
    927  OP1       -9.5050    5.1880   14.0670 O.3    47  DA47       -0.4373
    928  OP2      -10.1950    6.8470   12.2420 O.2    47  DA47       -0.5172
    929  O5'      -11.1800    4.6280   12.2570 O.3    47  DA47       -0.3114
    930  C5'      -11.8920    3.5400   12.8280 C.3    47  DA47        0.1811
    931  C4'      -11.8380    2.3090   11.9550 C.3    47  DA47        0.1746
    932  O4'      -12.5530    2.5590   10.7180 O.3    47  DA47       -0.3327
    933  C3'      -10.4560    1.8440   11.5060 C.3    47  DA47        0.1558
    934  O3'       -9.7750    1.0690   12.4770 O.3    47  DA47       -0.3138
    935  C2'      -10.7620    1.0630   10.2340 C.3    47  DA47        0.0865
    936  C1'      -11.9180    1.8800    9.6510 C.3    47  DA47        0.2094
    937  N9       -11.3220    2.9570    8.8190 N.ar   47  DA47       -0.2714
    938  C8       -11.1090    4.2770    9.1210 C.ar   47  DA47        0.1815
    939  N7       -10.7320    5.0000    8.0940 N.ar   47  DA47       -0.2193
    940  C5       -10.6930    4.0940    7.0460 C.ar   47  DA47        0.1518
    941  C6       -10.3660    4.2340    5.6860 C.ar   47  DA47        0.1919
    942  N6       -10.0020    5.3910    5.1280 N.pl3  47  DA47       -0.1054
    943  N1       -10.4280    3.1310    4.9100 N.ar   47  DA47       -0.2040
    944  C2       -10.7940    1.9720    5.4690 C.ar   47  DA47        0.2016
    945  N3       -11.1240    1.7160    6.7330 N.ar   47  DA47       -0.2048
    946  C4       -11.0530    2.8310    7.4780 C.ar   47  DA47        0.1691
    947  P         -8.0930    0.9500   12.5010 P.3    48  DA48        0.2141
    948  OP1       -7.3630    0.2070   13.5650 O.3    48  DA48       -0.4373
    949  OP2       -7.7690    2.3780   12.2430 O.2    48  DA48       -0.5172
    950  O5'       -7.9350    0.1390   11.1410 O.3    48  DA48       -0.3114
    951  C5'       -8.2090   -1.2650   11.1030 C.3    48  DA48        0.1811
    952  C4'       -7.7540   -1.8380    9.7960 C.3    48  DA48        0.1746
    953  O4'       -8.5360   -1.2500    8.7280 O.3    48  DA48       -0.3327
    954  C3'       -6.3340   -1.4820    9.4200 C.3    48  DA48        0.1558
    955  O3'       -5.3960   -2.3220   10.0560 O.3    48  DA48       -0.3138
    956  C2'       -6.3520   -1.6700    7.9130 C.3    48  DA48        0.0865
    957  C1'       -7.7200   -1.0820    7.5750 C.3    48  DA48        0.2094
    958  N9        -7.6310    0.3840    7.2160 N.ar   48  DA48       -0.2714
    959  C8        -7.6160    1.4620    8.0620 C.ar   48  DA48        0.1815
    960  N7        -7.5080    2.6160    7.4460 N.ar   48  DA48       -0.2193
    961  C5        -7.4470    2.2720    6.1050 C.ar   48  DA48        0.1518
    962  C6        -7.3290    3.0430    4.9350 C.ar   48  DA48        0.1919
    963  N6        -7.2490    4.3760    4.9330 N.pl3  48  DA48       -0.1054
    964  N1        -7.2960    2.3890    3.7550 N.ar   48  DA48       -0.2040
    965  C2        -7.3770    1.0540    3.7580 C.ar   48  DA48        0.2016
    966  N3        -7.4910    0.2210    4.7900 N.ar   48  DA48       -0.2048
    967  C4        -7.5200    0.9010    5.9480 C.ar   48  DA48        0.1691
    968  P         -3.8220   -1.8780   10.0900 P.3    49  DT49        0.2141
    969  OP1       -2.8110   -2.8040   10.6600 O.3    49  DT49       -0.4373
    970  OP2       -3.9710   -0.5070   10.6330 O.2    49  DT49       -0.5172
    971  O5'       -3.5300   -1.7640    8.5190 O.3    49  DT49       -0.3114
    972  C5'       -3.3710   -2.9350    7.7170 C.3    49  DT49        0.1811
    973  C4'       -3.2610   -2.6070    6.2310 C.3    49  DT49        0.1746
    974  O4'       -4.4500   -1.8950    5.7870 O.3    49  DT49       -0.3327
    975  C3'       -2.1180   -1.6890    5.8030 C.3    49  DT49        0.1558
    976  O3'       -0.8800   -2.3870    5.7200 O.3    49  DT49       -0.3138
    977  C2'       -2.6260   -1.2680    4.4260 C.3    49  DT49        0.0866
    978  C1'       -4.0980   -1.0170    4.7310 C.3    49  DT49        0.2106
    979  N1        -4.3410    0.3640    5.1090 N.ar   49  DT49       -0.2559
    980  C2        -4.4020    1.3260    4.1190 C.ar   49  DT49        0.3545
    981  O2        -4.1910    1.0830    2.9440 O.2    49  DT49       -0.2443
    982  N3        -4.7170    2.5900    4.5550 N.ar   49  DT49       -0.1533
    983  C4        -4.9730    2.9810    5.8530 C.ar   49  DT49        0.2804
    984  O4        -5.2440    4.1550    6.0890 O.2    49  DT49       -0.2654
    985  C5        -4.8900    1.9250    6.8230 C.ar   49  DT49        0.0534
    986  C6        -4.5850    0.6870    6.4260 C.ar   49  DT49        0.0824
    987  C7        -5.1510    2.2490    8.2640 C.3    49  DT49        0.0377
    988  P          0.6940   -1.5730    5.6980 P.3    50  DT50        0.2141
    989  OP1        1.8430   -2.5070    5.6540 O.2    50  DT50       -0.5172
    990  OP2        0.7700   -0.2870    6.4280 O.3    50  DT50       -0.4373
    991  O5'        0.3350   -1.1680    4.1890 O.3    50  DT50       -0.3114
    992  C5'        0.6840   -2.0030    3.0890 C.3    50  DT50        0.1811
    993  C4'        0.5880   -1.2890    1.7550 C.3    50  DT50        0.1746
    994  O4'       -0.6240   -0.4920    1.6930 O.3    50  DT50       -0.3327
    995  C3'        1.7170   -0.3280    1.3940 C.3    50  DT50        0.1558
    996  O3'        2.7950   -1.0130    0.7750 O.3    50  DT50       -0.3138
    997  C2'        1.0410    0.6830    0.4740 C.3    50  DT50        0.0866
    998  C1'       -0.3910    0.7200    1.0080 C.3    50  DT50        0.2106
    999  N1        -0.4450    1.8860    1.9160 N.ar   50  DT50       -0.2559
   1000  C2        -0.6840    3.1150    1.3300 C.ar   50  DT50        0.3545
   1001  O2        -0.8760    3.2550    0.1350 O.2    50  DT50       -0.2443
   1002  N3        -0.6880    4.1810    2.1970 N.ar   50  DT50       -0.1533
   1003  C4        -0.4820    4.1430    3.5600 C.ar   50  DT50        0.2804
   1004  O4        -0.5170    5.1860    4.2070 O.2    50  DT50       -0.2654
   1005  C5        -0.2400    2.8310    4.0930 C.ar   50  DT50        0.0534
   1006  C6        -0.2300    1.7770    3.2720 C.ar   50  DT50        0.0824
   1007  C7        -0.0040    2.6840    5.5670 C.3    50  DT50        0.0377
   1008  P          4.1860   -0.3580    0.2920 P.3    51  DA51        0.2141
   1009  OP1        5.3210   -1.1520   -0.2210 O.2    51  DA51       -0.5172
   1010  OP2        4.0820   -0.2230    1.7680 O.3    51  DA51       -0.4373
   1011  O5'        4.2200    1.1140   -0.3610 O.3    51  DA51       -0.3114
   1012  C5'        4.3060    1.2430   -1.7760 C.3    51  DA51        0.1811
   1013  C4'        3.8370    2.5900   -2.2980 C.3    51  DA51        0.1746
   1014  O4'        2.5520    2.9640   -1.7350 O.3    51  DA51       -0.3327
   1015  C3'        4.7210    3.7790   -1.9400 C.3    51  DA51        0.1558
   1016  O3'        5.8630    3.8420   -2.7390 O.3    51  DA51       -0.3138
   1017  C2'        3.7740    4.9350   -2.2100 C.3    51  DA51        0.0865
   1018  C1'        2.5410    4.3710   -1.5130 C.3    51  DA51        0.2094
   1019  N9         2.6410    4.7910   -0.1030 N.ar   51  DA51       -0.2714
   1020  C8         2.6110    3.7760    0.8180 C.ar   51  DA51        0.1815
   1021  N7         2.4240    4.1860    2.0500 N.ar   51  DA51       -0.2193
   1022  C5         2.3240    5.5630    1.9300 C.ar   51  DA51        0.1518
   1023  C6         2.1210    6.5820    2.8770 C.ar   51  DA51        0.1919
   1024  N6         1.9750    6.3580    4.1850 N.pl3  51  DA51       -0.1054
   1025  N1         2.0730    7.8540    2.4270 N.ar   51  DA51       -0.2040
   1026  C2         2.2180    8.0780    1.1160 C.ar   51  DA51        0.2016
   1027  N3         2.4130    7.2040    0.1310 N.ar   51  DA51       -0.2048
   1028  C4         2.4570    5.9500    0.6110 C.ar   51  DA51        0.1691
   1029  P          6.8880    3.6830   -1.9980 P.3    52  DC52        0.2141
   1030  OP1        7.4940    3.5670   -3.3470 O.2    52  DC52       -0.5172
   1031  OP2        7.4890    2.9270   -0.8710 O.3    52  DC52       -0.4373
   1032  O5'        6.8060    5.2480   -1.6460 O.3    52  DC52       -0.3114
   1033  C5'        6.9900    6.2620   -2.6590 C.3    52  DC52        0.1811
   1034  C4'        7.2730    7.6210   -2.0340 C.3    52  DC52        0.1746
   1035  O4'        6.1450    8.0060   -1.2080 O.3    52  DC52       -0.3327
   1036  C3'        8.5010    7.7020   -1.1350 C.3    52  DC52        0.1558
   1037  O3'        9.6500    8.0680   -1.9130 O.3    52  DC52       -0.3138
   1038  C2'        8.1190    8.7770   -0.1190 C.3    52  DC52        0.0866
   1039  C1'        6.6000    8.6110   -0.0160 C.3    52  DC52        0.2106
   1040  N1         6.1730    7.7640    1.1130 N.ar   52  DC52       -0.2556
   1041  C2         6.2270    8.3290    2.3920 C.ar   52  DC52        0.3531
   1042  O2         6.6360    9.4960    2.5140 O.2    52  DC52       -0.2443
   1043  N3         5.8330    7.5890    3.4560 N.ar   52  DC52       -0.1739
   1044  C4         5.4020    6.3400    3.2770 C.ar   52  DC52        0.1759
   1045  N4         5.0240    5.6490    4.3560 N.pl3  52  DC52       -0.1070
   1046  C5         5.3400    5.7500    1.9890 C.ar   52  DC52        0.0566
   1047  C6         5.7290    6.4840    0.9410 C.ar   52  DC52        0.0849
   1048  P         11.1580    8.0790   -1.3300 P.3    53  DG53        0.2141
   1049  OP1       11.8340    9.0660   -2.2410 O.2    53  DG53       -0.5172
   1050  OP2       10.8580    6.7150   -1.8310 O.3    53  DG53       -0.4373
   1051  O5'       11.9630    7.9820    0.0470 O.3    53  DG53       -0.3114
   1052  C5'       12.0190    9.1030    0.9370 C.3    53  DG53        0.1811
   1053  C4'       12.2220    8.6560    2.3770 C.3    53  DG53        0.1746
   1054  O4'       11.0730    7.8820    2.8170 O.3    53  DG53       -0.3327
   1055  C3'       13.4200    7.7820    2.7120 C.3    53  DG53        0.1558
   1056  O3'       14.5800    8.5560    2.9520 O.3    53  DG53       -0.3138
   1057  C2'       12.9860    7.1400    4.0150 C.3    53  DG53        0.0865
   1058  C1'       11.4710    6.9760    3.8230 C.3    53  DG53        0.2094
   1059  N9        11.1620    5.7220    3.4010 N.ar   53  DG53       -0.2713
   1060  C8        10.7070    5.3810    2.1500 C.ar   53  DG53        0.1816
   1061  N7        10.5010    4.1000    2.0080 N.ar   53  DG53       -0.2173
   1062  C5        10.8370    3.5600    3.2360 C.ar   53  DG53        0.1748
   1063  C6        10.8210    2.2160    3.6890 C.ar   53  DG53        0.3023
   1064  O6        10.4900    1.2010    3.0630 O.2    53  DG53       -0.2633
   1065  N1        11.2430    2.1070    5.0110 N.ar   53  DG53       -0.1709
   1066  C2        11.6320    3.1630    5.8000 C.ar   53  DG53        0.2606
   1067  N2        12.0060    2.8610    7.0500 N.pl3  53  DG53       -0.0859
   1068  N3        11.6530    4.4170    5.3930 N.ar   53  DG53       -0.1918
   1069  C4        11.2480    4.5470    4.1110 C.ar   53  DG53        0.1722
   1070  P         16.1420    7.8820    2.7580 P.3    54  DT54        0.2141
   1071  OP1       17.4010    8.6560    2.6450 O.3    54  DT54       -0.4373
   1072  OP2       15.5270    7.2970    1.5400 O.2    54  DT54       -0.5172
   1073  O5'       16.3870    6.6970    3.7880 O.3    54  DT54       -0.3114
   1074  C5'       16.7890    6.9700    5.1290 C.3    54  DT54        0.1811
   1075  C4'       16.6650    5.7290    5.9710 C.3    54  DT54        0.1746
   1076  O4'       15.2800    5.2910    5.9900 O.3    54  DT54       -0.3327
   1077  C3'       17.4210    4.5010    5.4920 C.3    54  DT54        0.1558
   1078  O3'       18.7910    4.5500    5.8610 O.3    54  DT54       -0.3138
   1079  C2'       16.6830    3.3950    6.2300 C.3    54  DT54        0.0866
   1080  C1'       15.2350    3.8800    6.1160 C.3    54  DT54        0.2106
   1081  N1        14.5840    3.3220    4.9430 N.ar   54  DT54       -0.2559
   1082  C2        14.1370    2.0150    4.9690 C.ar   54  DT54        0.3545
   1083  O2        14.3090    1.2730    5.9200 O.2    54  DT54       -0.2443
   1084  N3        13.4780    1.6040    3.8360 N.ar   54  DT54       -0.1533
   1085  C4        13.2270    2.3520    2.7050 C.ar   54  DT54        0.2804
   1086  O4        12.6200    1.8430    1.7650 O.2    54  DT54       -0.2654
   1087  C5        13.7230    3.6980    2.7540 C.ar   54  DT54        0.0534
   1088  C6        14.3680    4.1240    3.8440 C.ar   54  DT54        0.0824
   1089  C7        13.5000    4.5920    1.5700 C.3    54  DT54        0.0377
   1090  P         19.8420    3.9110    4.9570 P.3    55  DC55        0.2141
   1091  OP1       21.2550    4.3010    5.1910 O.3    55  DC55       -0.4373
   1092  OP2       19.2500    4.0800    3.6070 O.2    55  DC55       -0.5172
   1093  O5'       19.6800    2.3850    5.3820 O.3    55  DC55       -0.3114
   1094  C5'       20.0860    1.9260    6.6880 C.3    55  DC55        0.1811
   1095  C4'       19.7910    0.4520    6.8290 C.3    55  DC55        0.1746
   1096  O4'       18.3610    0.2390    6.7050 O.3    55  DC55       -0.3327
   1097  C3'       20.4000   -0.4210    5.7440 C.3    55  DC55        0.1558
   1098  O3'       21.7470   -0.7680    6.0640 O.3    55  DC55       -0.3138
   1099  C2'       19.4700   -1.6300    5.7350 C.3    55  DC55        0.0866
   1100  C1'       18.1150   -0.9700    6.0070 C.3    55  DC55        0.2106
   1101  N1        17.2810   -0.6600    4.7220 N.ar   55  DC55       -0.2556
   1102  C2        16.2350   -1.5300    4.3930 C.ar   55  DC55        0.3531
   1103  O2        15.9720   -2.4690    5.1640 O.2    55  DC55       -0.2443
   1104  N3        15.5420   -1.3240    3.2470 N.ar   55  DC55       -0.1739
   1105  C4        15.8600   -0.3040    2.4500 C.ar   55  DC55        0.1759
   1106  N4        15.1500   -0.1400    1.3310 N.pl3  55  DC55       -0.1070
   1107  C5        16.9170    0.5880    2.7660 C.ar   55  DC55        0.0566
   1108  C6        17.5980    0.3820    3.8980 C.ar   55  DC55        0.0849
   1109  P         23.0930   -0.1500    5.0010 P.3    56  DT56        0.2141
   1110  OP1       23.6830    1.1730    4.5980 O.3    56  DT56       -0.4373
   1111  OP2       22.4160   -0.9030    3.9120 O.2    56  DT56       -0.5172
   1112  O5'       24.1270   -1.0350    5.7950 O.3    56  DT56       -0.3114
   1113  C5'       25.0310   -0.2700    6.6470 C.3    56  DT56        0.1811
   1114  C4'       25.9950   -1.3320    7.1320 C.3    56  DT56        0.1746
   1115  O4'       25.3640   -2.2170    8.0110 O.3    56  DT56       -0.3327
   1116  C3'       26.5090   -2.2410    6.0220 C.3    56  DT56        0.1558
   1117  O3'       27.4860   -1.6190    5.2170 O.3    56  DT56       -0.3138
   1118  C2'       27.0460   -3.3970    6.8830 C.3    56  DT56        0.0866
   1119  C1'       25.9490   -3.5450    7.9240 C.3    56  DT56        0.2106
   1120  N1        24.9350   -4.5020    7.3410 N.ar   56  DT56       -0.2559
   1121  C2        25.1650   -5.8430    7.5830 C.ar   56  DT56        0.3545
   1122  O2        26.1090   -6.2460    8.2400 O.2    56  DT56       -0.2443
   1123  N3        24.2480   -6.7000    7.0250 N.ar   56  DT56       -0.1533
   1124  C4        23.1480   -6.3590    6.2660 C.ar   56  DT56        0.2804
   1125  O4        22.4130   -7.2440    5.8340 O.2    56  DT56       -0.2654
   1126  C5        22.9780   -4.9490    6.0580 C.ar   56  DT56        0.0533
   1127  C6        23.8550   -4.0930    6.5890 C.ar   56  DT56        0.0824
   1128  C7        21.8100   -4.4770    5.2440 C.3    56  DT56        0.0398
   1129  P         28.5560   -2.4210    3.6350 P.3    57  DG57        0.2141
   1130  OP1       29.5230   -1.5650    2.9160 O.2    57  DG57       -0.5172
   1131  OP2       27.2610   -2.7880    3.0250 O.3    57  DG57       -0.4373
   1132  O5'       29.2590   -3.8390    3.8660 O.3    57  DG57       -0.3114
   1133  C5'       30.6040   -3.9250    4.3160 C.3    57  DG57        0.1811
   1134  C4'       30.9960   -5.3410    4.6670 C.3    57  DG57        0.1746
   1135  O4'       30.0650   -5.9490    5.6060 O.3    57  DG57       -0.3327
   1136  C3'       30.9740   -6.3200    3.5140 C.3    57  DG57        0.1558
   1137  O3'       32.0460   -6.1380    2.6170 O.3    57  DG57       -0.3138
   1138  C2'       30.9920   -7.6480    4.2470 C.3    57  DG57        0.0865
   1139  C1'       29.9990   -7.3440    5.3670 C.3    57  DG57        0.2094
   1140  N9        28.5400   -7.6230    4.9080 N.ar   57  DG57       -0.2713
   1141  C8        27.5690   -6.6990    4.6040 C.ar   57  DG57        0.1816
   1142  N7        26.3970   -7.2340    4.3950 N.ar   57  DG57       -0.2173
   1143  C5        26.6020   -8.5890    4.5730 C.ar   57  DG57        0.1748
   1144  C6        25.6990   -9.6790    4.4760 C.ar   57  DG57        0.3023
   1145  O6        24.4920   -9.6530    4.2030 O.2    57  DG57       -0.2633
   1146  N1        26.3230  -10.8970    4.7330 N.ar   57  DG57       -0.1709
   1147  C2        27.6540  -11.0450    5.0450 C.ar   57  DG57        0.2606
   1148  N2        28.0730  -12.2990    5.2610 N.pl3  57  DG57       -0.0859
   1149  N3        28.5040  -10.0420    5.1380 N.ar   57  DG57       -0.1918
   1150  C4        27.9200   -8.8510    4.8910 C.ar   57  DG57        0.1722
   1151  P         31.5380   -5.9200    1.5600 P.3    58  DC58        0.2141
   1152  OP1       32.6930   -5.1930    0.9690 O.2    58  DC58       -0.5172
   1153  OP2       30.1670   -5.3650    1.4230 O.3    58  DC58       -0.4373
   1154  O5'       31.4940   -7.4040    0.9990 O.3    58  DC58       -0.3114
   1155  C5'       32.6200   -8.2500    1.1310 C.3    58  DC58        0.1812
   1156  C4'       32.2040   -9.6970    1.0620 C.3    58  DC58        0.1775
   1157  O4'       31.4980  -10.1000    2.2780 O.3    58  DC58       -0.3326
   1158  C3'       31.2110  -10.0940   -0.0140 C.3    58  DC58        0.1864
   1159  O3'       31.6860   -9.9130   -1.3530 O.3    58  DC58       -0.2133
   1160  C2'       30.8220  -11.4700    0.4940 C.3    58  DC58        0.0895
   1161  C1'       30.5640  -11.1320    1.9610 C.3    58  DC58        0.2107
   1162  N1        29.0790  -10.7670    1.8700 N.ar   58  DC58       -0.2556
   1163  C2        28.2170  -11.8660    1.9490 C.ar   58  DC58        0.3530
   1164  O2        28.6960  -12.9860    2.1980 O.2    58  DC58       -0.2443
   1165  N3        26.8900  -11.6790    1.7520 N.ar   58  DC58       -0.1758
   1166  C4        26.4210  -10.4590    1.4860 C.ar   58  DC58        0.1571
   1167  N4        25.1060  -10.3230    1.2990 N.pl3  58  DC58       -0.1551
   1168  C5        27.2780   -9.3320    1.4020 C.ar   58  DC58        0.0547
   1169  C6        28.5880   -9.5220    1.5970 C.ar   58  DC58        0.0849
   1170  P         32.3600  -11.1670   -2.1840 P.3    59  DA59        0.3939
   1171  OP1       33.5830  -11.1420   -3.0140 O.3    59  DA59       -0.1425
   1172  OP2       31.2520  -10.2280   -2.4950 O.3    59  DA59       -0.1496
   1173  O5'       31.8550  -12.6800   -2.2070 O.3    59  DA59       -0.2926
   1174  C5'       32.7010  -13.7170   -1.7020 C.3    59  DA59        0.1828
   1175  C4'       32.0310  -15.0640   -1.7940 C.3    59  DA59        0.1747
   1176  O4'       30.9730  -15.1260   -0.8180 O.3    59  DA59       -0.3327
   1177  C3'       31.3830  -15.4250   -3.1240 C.3    59  DA59        0.1558
   1178  O3'       32.2910  -16.0650   -4.0160 O.3    59  DA59       -0.3138
   1179  C2'       30.2980  -16.4080   -2.7110 C.3    59  DA59        0.0865
   1180  C1'       29.8890  -15.8710   -1.3400 C.3    59  DA59        0.2094
   1181  N9        28.7390  -14.9420   -1.3490 N.ar   59  DA59       -0.2714
   1182  C8        28.7420  -13.5820   -1.5250 C.ar   59  DA59        0.1815
   1183  N7        27.5560  -13.0780   -1.7700 N.ar   59  DA59       -0.2193
   1184  C5        26.7170  -14.1810   -1.7560 C.ar   59  DA59        0.1518
   1185  C6        25.3320  -14.3180   -1.9500 C.ar   59  DA59        0.1919
   1186  N6        24.5160  -13.2930   -2.2040 N.pl3  59  DA59       -0.1054
   1187  N1        24.8080  -15.5600   -1.8710 N.ar   59  DA59       -0.2040
   1188  C2        25.6260  -16.5870   -1.6150 C.ar   59  DA59        0.2016
   1189  N3        26.9420  -16.5840   -1.4140 N.ar   59  DA59       -0.2048
   1190  C4        27.4320  -15.3360   -1.5000 C.ar   59  DA59        0.1691
   1191  P         31.7990  -16.4110   -5.6520 P.3    60  DC60        0.2141
   1192  OP1       33.1540  -16.7650   -6.1330 O.2    60  DC60       -0.5172
   1193  OP2       31.3320  -15.0130   -5.7770 O.3    60  DC60       -0.4373
   1194  O5'       30.7480  -17.3700   -6.3830 O.3    60  DC60       -0.3114
   1195  C5'       30.8900  -18.7840   -6.2840 C.3    60  DC60        0.1812
   1196  C4'       29.5670  -19.4520   -5.9570 C.3    60  DC60        0.1775
   1197  O4'       28.8980  -18.7880   -4.8500 O.3    60  DC60       -0.3326
   1198  C3'       28.5150  -19.3730   -7.0520 C.3    60  DC60        0.1864
   1199  O3'       28.8180  -20.2080   -8.1610 O.3    60  DC60       -0.2133
   1200  C2'       27.2660  -19.7540   -6.2590 C.3    60  DC60        0.0895
   1201  C1'       27.4890  -18.8650   -5.0370 C.3    60  DC60        0.2107
   1202  N1        26.9170  -17.5840   -5.2480 N.ar   60  DC60       -0.2556
   1203  C2        25.5530  -17.3040   -5.3880 C.ar   60  DC60        0.3531
   1204  O2        24.7620  -18.2500   -5.5470 O.2    60  DC60       -0.2443
   1205  N3        25.1360  -16.0160   -5.3470 N.ar   60  DC60       -0.1739
   1206  C4        26.0220  -15.0340   -5.1750 C.ar   60  DC60        0.1759
   1207  N4        25.5640  -13.7800   -5.1410 N.pl3  60  DC60       -0.1070
   1208  C5        27.4080  -15.2960   -5.0310 C.ar   60  DC60        0.0566
   1209  C6        27.8150  -16.5700   -5.0720 C.ar   60  DC60        0.0849
   1210  P         28.8710  -19.6100   -9.5020 P.3    61  DA61        0.3939
   1211  OP1       29.7210  -20.6320   -8.8530 O.3    61  DA61       -0.1496
   1212  OP2       29.1040  -19.1860  -10.9050 O.3    61  DA61       -0.1425
   1213  O5'       27.3660  -20.1500   -9.5160 O.3    61  DA61       -0.2926
   1214  C5'       27.0000  -21.1340   -8.5560 C.3    61  DA61        0.1828
   1215  C4'       25.5050  -21.3130   -8.4570 C.3    61  DA61        0.1747
   1216  O4'       24.9910  -20.2410   -7.6220 O.3    61  DA61       -0.3327
   1217  C3'       24.7640  -21.2570   -9.7920 C.3    61  DA61        0.1558
   1218  O3'       24.0140  -22.4350  -10.0870 O.3    61  DA61       -0.3138
   1219  C2'       23.8110  -20.0720   -9.6770 C.3    61  DA61        0.0865
   1220  C1'       23.9270  -19.5580   -8.2500 C.3    61  DA61        0.2094
   1221  N9        24.4540  -18.1260   -8.2250 N.ar   61  DA61       -0.2717
   1222  C8        25.6660  -17.6120   -8.6070 C.ar   61  DA61        0.1813
   1223  N7        25.6040  -16.3710   -9.0300 N.ar   61  DA61       -0.2221
   1224  C5        24.2610  -16.0490   -8.9190 C.ar   61  DA61        0.1438
   1225  C6        23.5430  -14.8750   -9.2080 C.3    61  DA61        0.2442
   1226  N6        24.1050  -13.7640   -9.6880 N.3    61  DA61       -0.0895
   1227  N1        22.2110  -14.8850   -8.9850 N.pl3  61  DA61       -0.2263
   1228  C2        21.6490  -15.9990   -8.5030 C.2    61  DA61        0.1686
   1229  N3        22.2180  -17.1610   -8.1910 N.2    61  DA61       -0.2093
   1230  C4        23.5400  -17.1200   -8.4260 C.ar   61  DA61        0.1662
   1231  P         23.7940  -22.8640  -11.7270 P.3    62  DT62        0.2141
   1232  OP1       23.3930  -24.1720  -12.2730 O.3    62  DT62       -0.4373
   1233  OP2       24.9440  -22.1410  -12.3030 O.2    62  DT62       -0.5172
   1234  O5'       22.5230  -21.8970  -11.8150 O.3    62  DT62       -0.3114
   1235  C5'       21.2070  -22.3560  -11.4600 C.3    62  DT62        0.1811
   1236  C4'       20.2340  -21.1890  -11.5050 C.3    62  DT62        0.1746
   1237  O4'       20.6940  -20.1180  -10.6350 O.3    62  DT62       -0.3327
   1238  C3'       20.0960  -20.4910  -12.8460 C.3    62  DT62        0.1558
   1239  O3'       19.2170  -21.1730  -13.7500 O.3    62  DT62       -0.3138
   1240  C2'       19.5030  -19.1590  -12.4050 C.3    62  DT62        0.0866
   1241  C1'       20.2940  -18.8590  -11.1400 C.3    62  DT62        0.2105
   1242  N1        21.3720  -17.8830  -11.4320 N.ar   62  DT62       -0.2583
   1243  C2        21.1550  -16.5200  -11.3760 C.ar   62  DT62        0.3198
   1244  O2        20.0450  -16.0270  -11.2790 O.3    62  DT62       -0.3555
   1245  N3        22.2890  -15.7480  -11.4400 N.ar   62  DT62       -0.1558
   1246  C4        23.5900  -16.1930  -11.5510 C.ar   62  DT62        0.2803
   1247  O4        24.5070  -15.3760  -11.5950 O.2    62  DT62       -0.2654
   1248  C5        23.7330  -17.6200  -11.6040 C.ar   62  DT62        0.0534
   1249  C6        22.6460  -18.3950  -11.5440 C.ar   62  DT62        0.0823
   1250  C7        25.1100  -18.2020  -11.7260 C.3    62  DT62        0.0377
   1251  P         19.1600  -21.1620  -15.6450 P.3    63  DA63        0.2141
   1252  OP1       18.8550  -22.6140  -15.6130 O.3    63  DA63       -0.4373
   1253  OP2       19.9070  -20.5950  -16.8000 O.2    63  DA63       -0.5172
   1254  O5'       17.7870  -20.3560  -15.5090 O.3    63  DA63       -0.3114
   1255  C5'       16.7810  -20.7340  -14.5620 C.3    63  DA63        0.1811
   1256  C4'       15.6390  -21.4450  -15.2600 C.3    63  DA63        0.1746
   1257  O4'       16.1590  -22.6650  -15.8500 O.3    63  DA63       -0.3327
   1258  C3'       14.4930  -21.8990  -14.3600 C.3    63  DA63        0.1558
   1259  O3'       13.4970  -20.8810  -14.2440 O.3    63  DA63       -0.3138
   1260  C2'       13.9550  -23.1180  -15.1010 C.3    63  DA63        0.0865
   1261  C1'       15.2400  -23.7250  -15.6600 C.3    63  DA63        0.2094
   1262  N9        15.9470  -24.6730  -14.4140 N.ar   63  DA63       -0.2714
   1263  C8        17.3150  -24.5980  -14.3830 C.ar   63  DA63        0.1815
   1264  N7        17.8860  -25.6140  -13.7790 N.ar   63  DA63       -0.2193
   1265  C5        16.8210  -26.4080  -13.3860 C.ar   63  DA63        0.1518
   1266  C6        16.7570  -27.6320  -12.6980 C.ar   63  DA63        0.1919
   1267  N6        17.8330  -28.2960  -12.2680 N.pl3  63  DA63       -0.1054
   1268  N1        15.5350  -28.1570  -12.4640 N.ar   63  DA63       -0.2040
   1269  C2        14.4580  -27.4920  -12.8960 C.ar   63  DA63        0.2016
   1270  N3        14.3900  -26.3360  -13.5540 N.ar   63  DA63       -0.2048
   1271  C4        15.6200  -25.8410  -13.7690 C.ar   63  DA63        0.1691
   1272  P         12.8040  -20.5390  -12.5650 P.3    64  DC64        0.2141
   1273  OP1       11.8080  -19.4880  -12.8790 O.2    64  DC64       -0.5172
   1274  OP2       14.0940  -20.1950  -11.9240 O.3    64  DC64       -0.4373
   1275  O5'       12.1890  -21.6680  -11.6090 O.3    64  DC64       -0.3114
   1276  C5'       11.0800  -22.4190  -12.0860 C.3    64  DC64        0.1811
   1277  C4'       11.1490  -23.8820  -11.7190 C.3    64  DC64        0.1746
   1278  O4'       12.2860  -24.5210  -12.3550 O.3    64  DC64       -0.3327
   1279  C3'       11.3150  -24.2290  -10.2470 C.3    64  DC64        0.1558
   1280  O3'       10.1260  -24.0570   -9.4920 O.3    64  DC64       -0.3138
   1281  C2'       11.8040  -25.6730  -10.3290 C.3    64  DC64        0.0866
   1282  C1'       12.7020  -25.6160  -11.5630 C.3    64  DC64        0.2106
   1283  N1        14.1830  -25.4400  -11.2250 N.ar   64  DC64       -0.2556
   1284  C2        14.9330  -26.5300  -10.7670 C.ar   64  DC64        0.3531
   1285  O2        14.3730  -27.6330  -10.6490 O.2    64  DC64       -0.2443
   1286  N3        16.2410  -26.3510  -10.4650 N.ar   64  DC64       -0.1739
   1287  C4        16.8000  -25.1480  -10.6060 C.ar   64  DC64        0.1759
   1288  N4        18.0920  -25.0190  -10.2970 N.pl3  64  DC64       -0.1070
   1289  C5        16.0580  -24.0310  -11.0690 C.ar   64  DC64        0.0566
   1290  C6        14.7660  -24.2120  -11.3650 C.ar   64  DC64        0.0849
   1291  P         10.1310  -23.7730   -7.8100 P.3    65  DC65        0.2141
   1292  OP1        8.7990  -23.6710   -7.1750 O.3    65  DC65       -0.4373
   1293  OP2       11.1660  -22.7560   -7.5230 O.2    65  DC65       -0.5172
   1294  O5'       10.8120  -25.1640   -7.3980 O.3    65  DC65       -0.3114
   1295  C5'       10.0550  -26.3610   -7.5150 C.3    65  DC65        0.1811
   1296  C4'       10.7610  -27.5610   -6.9310 C.3    65  DC65        0.1746
   1297  O4'       11.9420  -27.8710   -7.7140 O.3    65  DC65       -0.3327
   1298  C3'       11.2820  -27.4330   -5.5040 C.3    65  DC65        0.1558
   1299  O3'       10.2940  -27.6260   -4.5060 O.3    65  DC65       -0.3138
   1300  C2'       12.3620  -28.5030   -5.4620 C.3    65  DC65        0.0866
   1301  C1'       12.9450  -28.4000   -6.8750 C.3    65  DC65        0.2106
   1302  N1        14.1560  -27.5430   -6.9160 N.ar   65  DC65       -0.2556
   1303  C2        15.3570  -28.1220   -6.4930 C.ar   65  DC65        0.3531
   1304  O2        15.3630  -29.3250   -6.1790 O.2    65  DC65       -0.2443
   1305  N3        16.4740  -27.3580   -6.4360 N.ar   65  DC65       -0.1739
   1306  C4        16.4200  -26.0710   -6.7820 C.ar   65  DC65        0.1759
   1307  N4        17.5460  -25.3570   -6.7110 N.pl3  65  DC65       -0.1070
   1308  C5        15.2130  -25.4650   -7.2140 C.ar   65  DC65        0.0566
   1309  C6        14.1120  -26.2230   -7.2680 C.ar   65  DC65        0.0849
   1310  P         10.1210  -26.4980   -3.5970 P.3    66  DA66        0.2141
   1311  OP1        9.0560  -26.6270   -2.5800 O.3    66  DA66       -0.4373
   1312  OP2       10.4120  -25.1720   -4.1850 O.2    66  DA66       -0.5172
   1313  O5'       11.4730  -27.0680   -2.9630 O.3    66  DA66       -0.3114
   1314  C5'       11.4470  -28.2000   -2.1080 C.3    66  DA66        0.1811
   1315  C4'       12.8550  -28.6350   -1.7640 C.3    66  DA66        0.1746
   1316  O4'       13.8250  -27.9690   -2.6090 O.3    66  DA66       -0.3327
   1317  C3'       13.2650  -28.2280   -0.3680 C.3    66  DA66        0.1558
   1318  O3'       12.8200  -29.1760    0.5710 O.3    66  DA66       -0.3138
   1319  C2'       14.7820  -28.1620   -0.4580 C.3    66  DA66        0.0865
   1320  C1'       14.9380  -27.5370   -1.8410 C.3    66  DA66        0.2094
   1321  N9        14.9760  -26.0430   -1.7920 N.ar   66  DA66       -0.2714
   1322  C8        14.0590  -25.2030   -2.3680 C.ar   66  DA66        0.1815
   1323  N7        14.4380  -23.9480   -2.4000 N.ar   66  DA66       -0.2193
   1324  C5        15.6890  -23.9640   -1.8050 C.ar   66  DA66        0.1518
   1325  C6        16.6220  -22.9460   -1.5360 C.ar   66  DA66        0.1919
   1326  N6        16.4260  -21.6630   -1.8480 N.pl3  66  DA66       -0.1054
   1327  N1        17.7750  -23.2980   -0.9290 N.ar   66  DA66       -0.2040
   1328  C2        17.9710  -24.5850   -0.6180 C.ar   66  DA66        0.2016
   1329  N3        17.1710  -25.6300   -0.8200 N.ar   66  DA66       -0.2048
   1330  C4        16.0340  -25.2460   -1.4240 C.ar   66  DA66        0.1691
   1331  P         11.8600  -28.4890    1.3640 P.3    67  DG67        0.2141
   1332  OP1       10.9890  -29.6100    1.7820 O.3    67  DG67       -0.4373
   1333  OP2       11.2950  -27.1370    1.1460 O.2    67  DG67       -0.5172
   1334  O5'       13.0790  -28.3450    2.3860 O.3    67  DG67       -0.3114
   1335  C5'       13.7310  -29.4990    2.8850 C.3    67  DG67        0.1811
   1336  C4'       15.1960  -29.1900    3.1030 C.3    67  DG67        0.1746
   1337  O4'       15.6430  -28.2800    2.0820 O.3    67  DG67       -0.3327
   1338  C3'       15.5090  -28.3910    4.3470 C.3    67  DG67        0.1558
   1339  O3'       15.4960  -29.2190    5.4800 O.3    67  DG67       -0.3138
   1340  C2'       16.8960  -27.8450    4.0410 C.3    67  DG67        0.0865
   1341  C1'       16.6930  -27.4720    2.5810 C.3    67  DG67        0.2094
   1342  N9        16.1950  -26.0450    2.3360 N.ar   67  DG67       -0.2713
   1343  C8        14.9670  -25.6880    1.8320 C.ar   67  DG67        0.1816
   1344  N7        14.8220  -24.3980    1.6970 N.ar   67  DG67       -0.2173
   1345  C5        16.0220  -23.8690    2.1330 C.ar   67  DG67        0.1748
   1346  C6        16.4590  -22.5230    2.2240 C.ar   67  DG67        0.3023
   1347  O6        15.8410  -21.4950    1.9210 O.2    67  DG67       -0.2633
   1348  N1        17.7550  -22.4290    2.7250 N.ar   67  DG67       -0.1709
   1349  C2        18.5330  -23.5000    3.0940 C.ar   67  DG67        0.2606
   1350  N2        19.7570  -23.2100    3.5540 N.pl3  67  DG67       -0.0859
   1351  N3        18.1400  -24.7560    3.0160 N.ar   67  DG67       -0.1918
   1352  C4        16.8850  -24.8720    2.5330 C.ar   67  DG67        0.1722
   1353  P         14.8140  -28.6170    6.7430 P.3    68  DC68        0.2141
   1354  OP1       14.2890  -29.7720    7.5050 O.3    68  DC68       -0.4373
   1355  OP2       13.8940  -27.5610    6.2680 O.2    68  DC68       -0.5172
   1356  O5'       15.8970  -27.8320    7.6270 O.3    68  DC68       -0.3114
   1357  C5'       17.0620  -28.4960    8.1010 C.3    68  DC68        0.1811
   1358  C4'       18.1160  -27.5190    8.5630 C.3    68  DC68        0.1746
   1359  O4'       18.5270  -26.6770    7.4560 O.3    68  DC68       -0.3327
   1360  C3'       17.6920  -26.5420    9.6500 C.3    68  DC68        0.1558
   1361  O3'       17.8130  -27.1010   10.9450 O.3    68  DC68       -0.3138
   1362  C2'       18.6070  -25.3410    9.4350 C.3    68  DC68        0.0866
   1363  C1'       18.8610  -25.3880    7.9280 C.3    68  DC68        0.2106
   1364  N1        18.1130  -24.4750    7.1490 N.ar   68  DC68       -0.2556
   1365  C2        18.4780  -23.1270    7.2470 C.ar   68  DC68        0.3531
   1366  O2        19.5310  -22.8350    7.8400 O.2    68  DC68       -0.2443
   1367  N3        17.6770  -22.1850    6.6960 N.ar   68  DC68       -0.1739
   1368  C4        16.5560  -22.5450    6.0690 C.ar   68  DC68        0.1759
   1369  N4        15.7980  -21.5810    5.5420 N.pl3  68  DC68       -0.1070
   1370  C5        16.1680  -23.9050    5.9590 C.ar   68  DC68        0.0566
   1371  C6        16.9620  -24.8330    6.5050 C.ar   68  DC68        0.0849
   1372  P         16.5440  -27.2270   11.8160 P.3    69  DT69        0.2141
   1373  OP1       16.5820  -28.2280   12.9060 O.3    69  DT69       -0.4373
   1374  OP2       15.3280  -27.0970   10.9800 O.2    69  DT69       -0.5172
   1375  O5'       16.7550  -25.7690   12.4390 O.3    69  DT69       -0.3114
   1376  C5'       17.8480  -25.5400   13.3180 C.3    69  DT69        0.1811
   1377  C4'       18.0740  -24.0690   13.5820 C.3    69  DT69        0.1746
   1378  O4'       18.4330  -23.3840   12.3530 O.3    69  DT69       -0.3327
   1379  C3'       16.8840  -23.2840   14.1120 C.3    69  DT69        0.1558
   1380  O3'       16.6860  -23.4520   15.5050 O.3    69  DT69       -0.3138
   1381  C2'       17.2460  -21.8570   13.7230 C.3    69  DT69        0.0866
   1382  C1'       17.9130  -22.0730   12.3660 C.3    69  DT69        0.2106
   1383  N1        17.0080  -21.9200   11.2020 N.ar   69  DT69       -0.2559
   1384  C2        16.6400  -20.6330   10.8610 C.ar   69  DT69        0.3545
   1385  O2        17.0260  -19.6480   11.4660 O.2    69  DT69       -0.2443
   1386  N3        15.7970  -20.5380    9.7800 N.ar   69  DT69       -0.1533
   1387  C4        15.2970  -21.5770    9.0240 C.ar   69  DT69        0.2804
   1388  O4        14.5490  -21.3330    8.0800 O.2    69  DT69       -0.2654
   1389  C5        15.7250  -22.8820    9.4420 C.ar   69  DT69        0.0534
   1390  C6        16.5440  -23.0040   10.4890 C.ar   69  DT69        0.0824
   1391  C7        15.2340  -24.0790    8.6820 C.3    69  DT69        0.0377
   1392  P         15.2880  -23.0970   16.1980 P.3    70  DT70        0.2141
   1393  OP1       15.2650  -23.7130   17.5500 O.3    70  DT70       -0.4373
   1394  OP2       14.3690  -23.4480   15.1110 O.2    70  DT70       -0.5172
   1395  O5'       15.0560  -21.4760   16.2440 O.3    70  DT70       -0.3114
   1396  C5'       15.9040  -20.6420   16.9030 C.3    70  DT70        0.1811
   1397  C4'       15.7830  -19.1790   16.5100 C.3    70  DT70        0.1746
   1398  O4'       16.1600  -19.0520   15.1280 O.3    70  DT70       -0.3327
   1399  C3'       14.4420  -18.4160   16.5290 C.3    70  DT70        0.1558
   1400  O3'       14.0120  -18.1020   17.8170 O.3    70  DT70       -0.3138
   1401  C2'       14.9380  -17.1530   15.8440 C.3    70  DT70        0.0866
   1402  C1'       15.7690  -17.7640   14.7250 C.3    70  DT70        0.2106
   1403  N1        15.3690  -18.1650   13.5410 N.ar   70  DT70       -0.2559
   1404  C2        15.2320  -17.2430   12.5210 C.ar   70  DT70        0.3545
   1405  O2        15.7860  -16.1580   12.5280 O.2    70  DT70       -0.2443
   1406  N3        14.4170  -17.6360   11.4870 N.ar   70  DT70       -0.1533
   1407  C4        13.7410  -18.8330   11.3730 C.ar   70  DT70        0.2804
   1408  O4        13.0460  -19.0420   10.3820 O.2    70  DT70       -0.2654
   1409  C5        13.9330  -19.7370   12.4720 C.ar   70  DT70        0.0534
   1410  C6        14.7210  -19.3800   13.4900 C.ar   70  DT70        0.0824
   1411  C7        13.2380  -21.0660   12.4420 C.3    70  DT70        0.0377
   1412  P         12.4380  -17.8850   18.2600 P.3    71  DA71        0.2141
   1413  OP1       12.2680  -17.8700   19.7320 O.3    71  DA71       -0.4373
   1414  OP2       11.5500  -18.7030   17.4000 O.2    71  DA71       -0.5172
   1415  O5'       12.2430  -16.4010   17.6950 O.3    71  DA71       -0.3114
   1416  C5'       13.3140  -15.4740   17.7400 C.3    71  DA71        0.1811
   1417  C4'       13.0110  -14.2640   16.8960 C.3    71  DA71        0.1746
   1418  O4'       13.1210  -14.5870   15.4860 O.3    71  DA71       -0.3327
   1419  C3'       11.5990  -13.7210   17.0130 C.3    71  DA71        0.1558
   1420  O3'       11.3710  -12.9950   18.2060 O.3    71  DA71       -0.3138
   1421  C2'       11.4680  -12.9100   15.7320 C.3    71  DA71        0.0865
   1422  C1'       12.1630  -13.8490   14.7520 C.3    71  DA71        0.2094
   1423  N9        11.2210  -14.7610   14.0760 N.ar   71  DA71       -0.2714
   1424  C8        11.1230  -16.1170   14.2480 C.ar   71  DA71        0.1815
   1425  N7        10.2600  -16.6910   13.4440 N.ar   71  DA71       -0.2190
   1426  C5         9.7570  -15.6400   12.6930 C.ar   71  DA71        0.1560
   1427  C6         8.8020  -15.5860   11.6630 C.ar   71  DA71        0.2233
   1428  N6         8.1600  -16.6580   11.1930 N.2    71  DA71       -0.0521
   1429  N1         8.5270  -14.3780   11.1260 N.ar   71  DA71       -0.2004
   1430  C2         9.1720  -13.3050   11.5970 C.ar   71  DA71        0.2018
   1431  N3        10.0880  -13.2290   12.5590 N.ar   71  DA71       -0.2048
   1432  C4        10.3380  -14.4450   13.0720 C.ar   71  DA71        0.1694
   1433  P         10.3480  -13.7240   19.3200 P.3    72  DT72        0.2141
   1434  OP1       10.4130  -13.3700   20.7590 O.3    72  DT72       -0.4373
   1435  OP2       10.2870  -15.1510   18.9100 O.2    72  DT72       -0.5172
   1436  O5'        9.1280  -12.9390   18.6360 O.3    72  DT72       -0.3114
   1437  C5'        9.0420  -11.5400   18.6640 C.3    72  DT72        0.1811
   1438  C4'        8.1000  -11.0780   17.5770 C.3    72  DT72        0.1746
   1439  O4'        8.5110  -11.6470   16.3170 O.3    72  DT72       -0.3327
   1440  C3'        6.6700  -11.5700   17.6740 C.3    72  DT72        0.1558
   1441  O3'        5.9720  -10.8520   18.6290 O.3    72  DT72       -0.3138
   1442  C2'        6.1840  -11.2190   16.2780 C.3    72  DT72        0.0866
   1443  C1'        7.3820  -11.6800   15.4530 C.3    72  DT72        0.2106
   1444  N1         7.1810  -13.0920   14.9380 N.ar   72  DT72       -0.2559
   1445  C2         6.3310  -13.3350   13.8770 C.ar   72  DT72        0.3545
   1446  O2         5.6330  -12.4720   13.3730 O.2    72  DT72       -0.2443
   1447  N3         6.3240  -14.6320   13.4220 N.ar   72  DT72       -0.1533
   1448  C4         7.0660  -15.6860   13.9130 C.ar   72  DT72        0.2804
   1449  O4         6.9530  -16.7960   13.3980 O.2    72  DT72       -0.2654
   1450  C5         7.9240  -15.3540   15.0150 C.ar   72  DT72        0.0534
   1451  C6         7.9500  -14.1010   15.4770 C.ar   72  DT72        0.0824
   1452  C7         8.7720  -16.4340   15.6190 C.3    72  DT72        0.0377
   1453  P          4.8720  -11.7330   19.5180 P.3    73  DT73        0.2141
   1454  OP1        4.2290  -10.7660   20.4360 O.3    73  DT73       -0.4373
   1455  OP2        5.3710  -13.0210   20.0460 O.2    73  DT73       -0.5172
   1456  O5'        3.8710  -12.0430   18.3060 O.3    73  DT73       -0.3114
   1457  C5'        2.4700  -11.7960   18.4590 C.3    73  DT73        0.1812
   1458  C4'        1.6450  -13.0590   18.6400 C.3    73  DT73        0.1775
   1459  O4'        1.7260  -13.8750   17.4430 O.3    73  DT73       -0.3326
   1460  C3'        2.0620  -13.9770   19.7830 C.3    73  DT73        0.1864
   1461  O3'        1.4450  -13.5790   21.0070 O.3    73  DT73       -0.2133
   1462  C2'        1.5100  -15.3070   19.2840 C.3    73  DT73        0.0895
   1463  C1'        1.9000  -15.2280   17.8140 C.3    73  DT73        0.2107
   1464  N1         3.3520  -15.7660   17.6240 N.ar   73  DT73       -0.2559
   1465  C2         3.5120  -17.1340   17.5060 C.ar   73  DT73        0.3545
   1466  O2         2.5740  -17.9070   17.4220 O.2    73  DT73       -0.2443
   1467  N3         4.8150  -17.5680   17.4900 N.ar   73  DT73       -0.1533
   1468  C4         5.9500  -16.7890   17.5790 C.ar   73  DT73        0.2804
   1469  O4         7.0550  -17.3240   17.5500 O.2    73  DT73       -0.2654
   1470  C5         5.7020  -15.3800   17.7000 C.ar   73  DT73        0.0534
   1471  C6         4.4440  -14.9310   17.7180 C.ar   73  DT73        0.0824
   1472  C7         6.8730  -14.4490   17.8030 C.3    73  DT73        0.0377
   1473  P          1.9360  -14.2180   22.4830 P.3    74  DC74        0.3939
   1474  OP1        2.4660  -13.4940   23.6600 O.3    74  DC74       -0.1425
   1475  OP2        2.8230  -14.4800   21.3070 O.3    74  DC74       -0.1496
   1476  O5'        1.5170  -15.6340   23.0810 O.3    74  DC74       -0.2926
   1477  C5'        0.3080  -16.2410   22.6960 C.3    74  DC74        0.1828
   1478  C4'        0.2420  -17.6740   23.1550 C.3    74  DC74        0.1747
   1479  O4'       -0.8690  -18.3070   22.4510 O.3    74  DC74       -0.3327
   1480  C3'        1.4740  -18.5100   22.8280 C.3    74  DC74        0.1558
   1481  O3'        2.2940  -18.6050   23.9960 O.3    74  DC74       -0.3138
   1482  C2'        0.8690  -19.8600   22.4780 C.3    74  DC74        0.0866
   1483  C1'       -0.4160  -19.4510   21.7590 C.3    74  DC74        0.2106
   1484  N1        -0.5090  -19.0490   20.0870 N.ar   74  DC74       -0.2556
   1485  C2        -0.8570  -20.1500   19.2950 C.ar   74  DC74        0.3531
   1486  O2        -1.0260  -21.2520   19.8450 O.2    74  DC74       -0.2443
   1487  N3        -0.9970  -19.9830   17.9580 N.ar   74  DC74       -0.1739
   1488  C4        -0.8030  -18.7820   17.4120 C.ar   74  DC74        0.1759
   1489  N4        -0.9520  -18.6650   16.0910 N.pl3  74  DC74       -0.1070
   1490  C5        -0.4500  -17.6540   18.1970 C.ar   74  DC74        0.0566
   1491  C6        -0.3130  -17.8230   19.5170 C.ar   74  DC74        0.0849
   1492  P          3.9510  -19.0500   23.8940 P.3    75  DA75        0.2141
   1493  OP1        4.2760  -18.8600   25.3340 O.3    75  DA75       -0.4373
   1494  OP2        4.6160  -18.2010   22.8770 O.2    75  DA75       -0.5172
   1495  O5'        4.3380  -20.5400   23.4780 O.3    75  DA75       -0.3114
   1496  C5'        3.7420  -21.6690   24.1230 C.3    75  DA75        0.1811
   1497  C4'        3.4690  -22.7690   23.1250 C.3    75  DA75        0.1746
   1498  O4'        2.3440  -22.4180   22.2940 O.3    75  DA75       -0.3327
   1499  C3'        4.5980  -23.0710   22.1550 C.3    75  DA75        0.1558
   1500  O3'        5.4670  -24.0050   22.7740 O.3    75  DA75       -0.3138
   1501  C2'        3.8830  -23.6640   20.9380 C.3    75  DA75        0.0865
   1502  C1'        2.4760  -23.0670   21.0500 C.3    75  DA75        0.2094
   1503  N9         2.0440  -22.0710   20.1440 N.ar   75  DA75       -0.2714
   1504  C8         2.0020  -20.7130   20.3240 C.ar   75  DA75        0.1815
   1505  N7         1.9100  -20.0330   19.2050 N.ar   75  DA75       -0.2193
   1506  C5         1.8920  -21.0120   18.2230 C.ar   75  DA75        0.1518
   1507  C6         1.8070  -20.9430   16.8210 C.ar   75  DA75        0.1919
   1508  N6         1.7210  -19.7980   16.1410 N.pl3  75  DA75       -0.1054
   1509  N1         1.8140  -22.1070   16.1360 N.ar   75  DA75       -0.2040
   1510  C2         1.9000  -23.2540   16.8200 C.ar   75  DA75        0.2016
   1511  N3         1.9830  -23.4450   18.1340 N.ar   75  DA75       -0.2048
   1512  C4         1.9750  -22.2710   18.7860 C.ar   75  DA75        0.1691
   1513  P          7.0170  -24.3310   22.1300 P.3    76  DA76        0.2141
   1514  OP1        7.6240  -25.5660   22.5760 O.3    76  DA76       -0.4373
   1515  OP2        7.8410  -23.2000   21.5970 O.2    76  DA76       -0.5172
   1516  O5'        5.9650  -24.8220   21.0430 O.3    76  DA76       -0.3114
   1517  C5'        6.3240  -26.1230   20.6860 C.3    76  DA76        0.1811
   1518  C4'        5.8400  -26.4630   19.3280 C.3    76  DA76        0.1746
   1519  O4'        4.7420  -25.6010   19.1070 O.3    76  DA76       -0.3327
   1520  C3'        6.7260  -26.0540   18.1830 C.3    76  DA76        0.1558
   1521  O3'        7.6480  -27.0230   17.8120 O.3    76  DA76       -0.3138
   1522  C2'        5.7180  -26.0660   17.0730 C.3    76  DA76        0.0865
   1523  C1'        4.6380  -25.2630   17.7320 C.3    76  DA76        0.2094
   1524  N9         4.9020  -23.8260   17.6870 N.ar   76  DA76       -0.2714
   1525  C8         5.3590  -23.0770   18.7400 C.ar   76  DA76        0.1815
   1526  N7         5.3870  -21.7880   18.4990 N.ar   76  DA76       -0.2193
   1527  C5         4.9180  -21.6830   17.1990 C.ar   76  DA76        0.1518
   1528  C6         4.7080  -20.5770   16.3560 C.ar   76  DA76        0.1919
   1529  N6         4.9530  -19.3150   16.7170 N.pl3  76  DA76       -0.1054
   1530  N1         4.2310  -20.8170   15.1160 N.ar   76  DA76       -0.2040
   1531  C2         3.9840  -22.0820   14.7570 C.ar   76  DA76        0.2016
   1532  N3         4.1410  -23.2010   15.4590 N.ar   76  DA76       -0.2048
   1533  C4         4.6170  -22.9290   16.6850 C.ar   76  DA76        0.1691
   1534  P          9.0590  -26.5470   17.7300 P.3    77  DT77        0.2141
   1535  OP1        9.8290  -27.7880   17.5090 O.2    77  DT77       -0.5172
   1536  OP2        9.6370  -25.3850   18.4430 O.3    77  DT77       -0.4373
   1537  O5'        8.5630  -25.9670   16.3290 O.3    77  DT77       -0.3114
   1538  C5'        8.3420  -26.9370   15.3190 C.3    77  DT77        0.1811
   1539  C4'        7.6300  -26.3650   14.1200 C.3    77  DT77        0.1746
   1540  O4'        6.5560  -25.4960   14.5400 O.3    77  DT77       -0.3327
   1541  C3'        8.4760  -25.4970   13.2150 C.3    77  DT77        0.1558
   1542  O3'        9.2240  -26.2870   12.3160 O.3    77  DT77       -0.3138
   1543  C2'        7.4300  -24.6500   12.5180 C.3    77  DT77        0.0866
   1544  C1'        6.4310  -24.4240   13.6410 C.3    77  DT77        0.2106
   1545  N1         6.7230  -23.1960   14.4350 N.ar   77  DT77       -0.2559
   1546  C2         6.2770  -21.9590   14.0100 C.ar   77  DT77        0.3545
   1547  O2         5.6290  -21.8000   12.9910 O.2    77  DT77       -0.2443
   1548  N3         6.6200  -20.9070   14.8250 N.ar   77  DT77       -0.1533
   1549  C4         7.3480  -20.9660   15.9950 C.ar   77  DT77        0.2804
   1550  O4         7.5750  -19.9330   16.6190 O.2    77  DT77       -0.2654
   1551  C5         7.7750  -22.2850   16.3680 C.ar   77  DT77        0.0534
   1552  C6         7.4560  -23.3260   15.5940 C.ar   77  DT77        0.0824
   1553  C7         8.5740  -22.4540   17.6260 C.3    77  DT77        0.0377
   1554  P         10.4780  -25.6300   11.4120 P.3    78  DT78        0.2141
   1555  OP1       11.1630  -26.6350   10.5670 O.2    78  DT78       -0.5172
   1556  OP2       11.1910  -25.0690   12.5800 O.3    78  DT78       -0.4373
   1557  O5'       10.0770  -24.3410   10.5480 O.3    78  DT78       -0.3114
   1558  C5'        9.0510  -24.4080    9.5680 C.3    78  DT78        0.1811
   1559  C4'        8.4260  -23.0580    9.2990 C.3    78  DT78        0.1746
   1560  O4'        7.7910  -22.5480   10.5030 O.3    78  DT78       -0.3327
   1561  C3'        9.3680  -21.9280    8.9190 C.3    78  DT78        0.1558
   1562  O3'        9.8590  -21.9840    7.5910 O.3    78  DT78       -0.3138
   1563  C2'        8.5130  -20.7030    9.2160 C.3    78  DT78        0.0866
   1564  C1'        7.8820  -21.1400   10.5330 C.3    78  DT78        0.2106
   1565  N1         8.7190  -20.6550   11.6510 N.ar   78  DT78       -0.2573
   1566  C2         8.7170  -19.3130   11.9830 C.ar   78  DT78        0.3335
   1567  O2         8.1430  -18.4660   11.3220 O.3    78  DT78       -0.3134
   1568  N3         9.4170  -18.9960   13.1220 N.ar   78  DT78       -0.1549
   1569  C4        10.1020  -19.8660   13.9440 C.ar   78  DT78        0.2804
   1570  O4        10.6830  -19.4310   14.9360 O.2    78  DT78       -0.2654
   1571  C5        10.0580  -21.2410   13.5320 C.ar   78  DT78        0.0534
   1572  C6         9.3850  -21.5770   12.4280 C.ar   78  DT78        0.0824
   1573  C7        10.7740  -22.2650   14.3610 C.3    78  DT78        0.0377
   1574  P         11.1830  -21.7230    7.5640 P.3    79  DA79        0.2141
   1575  OP1       11.9470  -22.1140    6.3600 O.2    79  DA79       -0.5172
   1576  OP2       11.7520  -21.8670    8.9270 O.3    79  DA79       -0.4373
   1577  O5'       10.7110  -20.2160    7.3960 O.3    79  DA79       -0.3114
   1578  C5'        9.8840  -19.8680    6.3110 C.3    79  DA79        0.1811
   1579  C4'        9.9960  -18.3640    6.1900 C.3    79  DA79        0.1746
   1580  O4'        9.8390  -17.8090    7.5130 O.3    79  DA79       -0.3327
   1581  C3'       11.3670  -17.8970    5.7280 C.3    79  DA79        0.1558
   1582  O3'       11.2730  -17.6200    4.3300 O.3    79  DA79       -0.3138
   1583  C2'       11.6770  -16.6540    6.5630 C.3    79  DA79        0.0865
   1584  C1'       10.6280  -16.6530    7.6700 C.3    79  DA79        0.2094
   1585  N9        11.0480  -16.5040    8.8860 N.ar   79  DA79       -0.2714
   1586  C8        11.6520  -17.5300    9.5650 C.ar   79  DA79        0.1815
   1587  N7        12.3710  -17.1350   10.5890 N.ar   79  DA79       -0.2193
   1588  C5        12.2310  -15.7560   10.5800 C.ar   79  DA79        0.1518
   1589  C6        12.7490  -14.7480   11.4120 C.ar   79  DA79        0.1919
   1590  N6        13.5440  -14.9880   12.4580 N.pl3  79  DA79       -0.1054
   1591  N1        12.4170  -13.4700   11.1300 N.ar   79  DA79       -0.2040
   1592  C2        11.6190  -13.2310   10.0820 C.ar   79  DA79        0.2016
   1593  N3        11.0700  -14.0930    9.2290 N.ar   79  DA79       -0.2048
   1594  C4        11.4200  -15.3530    9.5370 C.ar   79  DA79        0.1691
   1595  P         12.7160  -16.9940    3.2950 P.3    80  DG80        0.2141
   1596  OP1       12.3380  -17.0500    1.8500 O.2    80  DG80       -0.5172
   1597  OP2       13.8680  -17.8190    3.7470 O.3    80  DG80       -0.4373
   1598  O5'       12.9540  -15.4630    3.7600 O.3    80  DG80       -0.3114
   1599  C5'       12.1890  -14.4360    3.1510 C.3    80  DG80        0.1811
   1600  C4'       12.0480  -13.1910    3.9990 C.3    80  DG80        0.1746
   1601  O4'       12.0060  -13.4740    5.4130 O.3    80  DG80       -0.3327
   1602  C3'       13.2430  -12.2900    3.8750 C.3    80  DG80        0.1558
   1603  O3'       13.1460  -11.5280    2.7490 O.3    80  DG80       -0.3138
   1604  C2'       13.2030  -11.4040    5.1120 C.3    80  DG80        0.0865
   1605  C1'       12.5810  -12.3750    6.1090 C.3    80  DG80        0.2094
   1606  N9        13.5180  -12.8940    7.1380 N.ar   80  DG80       -0.2713
   1607  C8        13.9450  -14.1820    7.3530 C.ar   80  DG80        0.1816
   1608  N7        14.7790  -14.2880    8.3520 N.ar   80  DG80       -0.2173
   1609  C5        14.9100  -12.9970    8.8280 C.ar   80  DG80        0.1748
   1610  C6        15.6830  -12.4830    9.9000 C.ar   80  DG80        0.3023
   1611  O6        16.4320  -13.0990   10.6690 O.2    80  DG80       -0.2633
   1612  N1        15.5270  -11.1070   10.0420 N.ar   80  DG80       -0.1709
   1613  C2        14.7250  -10.3230    9.2480 C.ar   80  DG80        0.2606
   1614  N2        14.7020   -9.0150    9.5380 N.pl3  80  DG80       -0.0859
   1615  N3        14.0010  -10.7860    8.2470 N.ar   80  DG80       -0.1918
   1616  C4        14.1380  -12.1200    8.0910 C.ar   80  DG80        0.1722
   1617  P         14.5640  -11.1660    2.2160 P.3    81  DA81        0.2141
   1618  OP1       14.8280  -10.2130    1.1000 O.2    81  DA81       -0.5172
   1619  OP2       15.5220  -12.2680    2.4820 O.3    81  DA81       -0.4373
   1620  O5'       14.4130  -10.3130    3.5550 O.3    81  DA81       -0.3114
   1621  C5'       13.5230   -9.1860    3.6200 C.3    81  DA81        0.1811
   1622  C4'       14.0680   -8.1460    4.5660 C.3    81  DA81        0.1746
   1623  O4'       14.0780   -8.6620    5.9180 O.3    81  DA81       -0.3327
   1624  C3'       15.5030   -7.7340    4.3130 C.3    81  DA81        0.1558
   1625  O3'       15.5470   -6.7350    3.3080 O.3    81  DA81       -0.3138
   1626  C2'       15.9270   -7.1930    5.6670 C.3    81  DA81        0.0865
   1627  C1'       15.1950   -8.1450    6.6150 C.3    81  DA81        0.2094
   1628  N9        16.1470   -9.1940    6.9810 N.ar   81  DA81       -0.2714
   1629  C8        16.3170  -10.4030    6.3570 C.ar   81  DA81        0.1815
   1630  N7        17.3200  -11.1050    6.8280 N.ar   81  DA81       -0.2193
   1631  C5        17.8450  -10.3040    7.8290 C.ar   81  DA81        0.1518
   1632  C6        18.9250  -10.4800    8.7130 C.ar   81  DA81        0.1919
   1633  N6        19.6990  -11.5670    8.7270 N.pl3  81  DA81       -0.1054
   1634  N1        19.1840   -9.4870    9.5900 N.ar   81  DA81       -0.2040
   1635  C2        18.4070   -8.3980    9.5760 C.ar   81  DA81        0.2016
   1636  N3        17.3650   -8.1190    8.7960 N.ar   81  DA81       -0.2048
   1637  C4        17.1340   -9.1240    7.9350 C.ar   81  DA81        0.1691
   1638  P         16.7460   -6.6210    2.4060 P.3    82  DT82        0.2141
   1639  OP1       16.4990   -5.5150    1.4210 O.2    82  DT82       -0.5172
   1640  OP2       17.2470   -7.9530    1.9330 O.3    82  DT82       -0.4373
   1641  O5'       17.7110   -6.0900    3.5510 O.3    82  DT82       -0.3114
   1642  C5'       17.3550   -4.9330    4.3150 C.3    82  DT82        0.1811
   1643  C4'       18.4650   -4.5660    5.2480 C.3    82  DT82        0.1747
   1644  O4'       18.5150   -5.4890    6.3550 O.3    82  DT82       -0.3327
   1645  C3'       19.8520   -4.5870    4.6390 C.3    82  DT82        0.1559
   1646  O3'       20.0950   -3.3540    3.9930 O.3    82  DT82       -0.3138
   1647  C2'       20.7490   -4.8030    5.8500 C.3    82  DT82        0.0844
   1648  C1'       19.8650   -5.6710    6.7430 C.3    82  DT82        0.2107
   1649  N1        20.2150   -7.0270    6.7200 N.ar   82  DT82       -0.2559
   1650  C2        21.1610   -7.5440    7.5860 C.ar   82  DT82        0.3545
   1651  O2        21.6830   -6.8860    8.4690 O.2    82  DT82       -0.2443
   1652  N3        21.4780   -8.8640    7.3790 N.ar   82  DT82       -0.1533
   1653  C4        20.9560   -9.7020    6.4160 C.ar   82  DT82        0.2804
   1654  O4        21.3390  -10.8670    6.3550 O.2    82  DT82       -0.2654
   1655  C5        19.9810   -9.0920    5.5560 C.ar   82  DT82        0.0534
   1656  C6        19.6540   -7.8090    5.7350 C.ar   82  DT82        0.0824
   1657  C7        19.3540   -9.9220    4.4750 C.3    82  DT82        0.0377
   1658  P         20.6420   -3.2730    2.3530 P.3    83  DA83        0.2141
   1659  OP1       20.9250   -1.8760    1.9340 O.3    83  DA83       -0.4373
   1660  OP2       19.7490   -4.1260    1.5250 O.2    83  DA83       -0.5172
   1661  O5'       22.0300   -4.0280    2.5250 O.3    83  DA83       -0.3114
   1662  C5'       23.0880   -3.4530    3.2860 C.3    83  DA83        0.1811
   1663  C4'       24.3460   -4.2510    3.0810 C.3    83  DA83        0.1746
   1664  O4'       24.1920   -5.5430    3.7230 O.3    83  DA83       -0.3327
   1665  C3'       24.6720   -4.5860    1.6350 C.3    83  DA83        0.1558
   1666  O3'       25.3240   -3.5300    0.9490 O.3    83  DA83       -0.3138
   1667  C2'       25.5350   -5.8260    1.7930 C.3    83  DA83        0.0865
   1668  C1'       24.7920   -6.5470    2.9190 C.3    83  DA83        0.2084
   1669  N9        23.5960   -7.3700    2.3150 N.ar   83  DA83       -0.2850
   1670  C8        22.2480   -7.1250    2.3640 C.ar   83  DA83        0.1805
   1671  N7        21.5230   -8.0280    1.7480 N.ar   83  DA83       -0.2160
   1672  C5        22.4580   -8.9270    1.2600 C.ar   83  DA83        0.1901
   1673  C6        22.3310  -10.1130    0.5140 C.2    83  DA83        0.4314
   1674  N6        21.1590  -10.6140    0.1160 N.pl3  83  DA83        0.2177
   1675  N1        23.4630  -10.7720    0.1890 N.2    83  DA83       -0.0311
   1676  C2        24.6370  -10.2700    0.5890 C.3    83  DA83        0.3803
   1677  N3        24.8830   -9.1680    1.2930 N.3    83  DA83       -0.0112
   1678  C4        23.7390   -8.5350    1.6000 C.ar   83  DA83        0.1061
   1679  P         24.6880   -2.9850   -0.5670 P.3    84  DG84        0.2141
   1680  OP1       25.2550   -1.7230   -1.0830 O.2    84  DG84       -0.5172
   1681  OP2       23.2100   -3.1660   -0.5310 O.3    84  DG84       -0.4373
   1682  O5'       25.3750   -4.2340   -1.2960 O.3    84  DG84       -0.3114
   1683  C5'       26.7640   -4.2210   -1.6160 C.3    84  DG84        0.1811
   1684  C4'       27.1410   -5.4130   -2.4760 C.3    84  DG84        0.1746
   1685  O4'       26.8160   -6.6310   -1.7580 O.3    84  DG84       -0.3327
   1686  C3'       26.4810   -5.5700   -3.8440 C.3    84  DG84        0.1558
   1687  O3'       27.1180   -4.8170   -4.8880 O.3    84  DG84       -0.3138
   1688  C2'       26.6150   -7.0690   -4.0910 C.3    84  DG84        0.0865
   1689  C1'       26.4540   -7.6360   -2.6790 C.3    84  DG84        0.2094
   1690  N9        25.1490   -8.0380   -2.4370 N.ar   84  DG84       -0.2713
   1691  C8        24.1140   -7.3990   -1.7990 C.ar   84  DG84        0.1816
   1692  N7        22.9620   -7.9910   -1.9640 N.ar   84  DG84       -0.2173
   1693  C5        23.2510   -9.0870   -2.7560 C.ar   84  DG84        0.1748
   1694  C6        22.4040  -10.1040   -3.2690 C.ar   84  DG84        0.3023
   1695  O6        21.1840  -10.2350   -3.1130 O.2    84  DG84       -0.2633
   1696  N1        23.1080  -11.0310   -4.0320 N.ar   84  DG84       -0.1709
   1697  C2        24.4600  -10.9850   -4.2720 C.ar   84  DG84        0.2606
   1698  N2        24.9600  -11.9690   -5.0310 N.pl3  84  DG84       -0.0859
   1699  N3        25.2590  -10.0460   -3.8030 N.ar   84  DG84       -0.1918
   1700  C4        24.5980   -9.1350   -3.0590 C.ar   84  DG84        0.1722
   1701  P         26.2950   -4.5310   -6.3540 P.3    85  DT85        0.2141
   1702  OP1       27.0070   -3.5130   -7.1580 O.2    85  DT85       -0.5172
   1703  OP2       25.0600   -4.1940   -5.6130 O.3    85  DT85       -0.4373
   1704  O5'       25.8560   -5.7270   -7.3170 O.3    85  DT85       -0.3114
   1705  C5'       26.8400   -6.4250   -8.0610 C.3    85  DT85        0.1811
   1706  C4'       26.2060   -7.5200   -8.8750 C.3    85  DT85        0.1746
   1707  O4'       25.7860   -8.6060   -8.0080 O.3    85  DT85       -0.3327
   1708  C3'       24.9330   -7.1200   -9.5990 C.3    85  DT85        0.1558
   1709  O3'       25.1770   -6.3900  -10.7900 O.3    85  DT85       -0.3138
   1710  C2'       24.2430   -8.4640   -9.8060 C.3    85  DT85        0.0866
   1711  C1'       24.5830   -9.1700   -8.4910 C.3    85  DT85        0.2106
   1712  N1        23.5100   -8.9640   -7.5150 N.ar   85  DT85       -0.2559
   1713  C2        22.5000   -9.9070   -7.4680 C.ar   85  DT85        0.3545
   1714  O2        22.4480  -10.8620   -8.2230 O.2    85  DT85       -0.2443
   1715  N3        21.5480   -9.6920   -6.5010 N.ar   85  DT85       -0.1533
   1716  C4        21.5050   -8.6520   -5.5960 C.ar   85  DT85        0.2804
   1717  O4        20.5850   -8.5930   -4.7850 O.2    85  DT85       -0.2654
   1718  C5        22.5870   -7.7140   -5.7090 C.ar   85  DT85        0.0534
   1719  C6        23.5260   -7.9000   -6.6400 C.ar   85  DT85        0.0824
   1720  C7        22.6290   -6.5460   -4.7690 C.3    85  DT85        0.0377
   1721  P         24.1040   -5.0040  -11.3010 P.3    86  DA86        0.2141
   1722  OP1       24.2880   -5.7460  -12.5760 O.2    86  DA86       -0.5172
   1723  OP2       24.1730   -3.5170  -11.2900 O.3    86  DA86       -0.4373
   1724  O5'       22.7110   -5.4370  -10.6800 O.3    86  DA86       -0.3114
   1725  C5'       21.4890   -4.8760  -11.1570 C.3    86  DA86        0.1812
   1726  C4'       20.4020   -5.9040  -11.0670 C.3    86  DA86        0.1775
   1727  O4'       20.6140   -6.9220  -12.0820 O.3    86  DA86       -0.3326
   1728  C3'       20.3340   -6.6450   -9.7360 C.3    86  DA86        0.1864
   1729  O3'       18.9840   -6.9750   -9.4990 O.3    86  DA86       -0.2133
   1730  C2'       21.1210   -7.9210  -10.0250 C.3    86  DA86        0.0894
   1731  C1'       20.7090   -8.1890  -11.4670 C.3    86  DA86        0.2095
   1732  N9        21.6470   -8.9250  -11.8050 N.ar   86  DA86       -0.2714
   1733  C8        22.9670   -8.5570  -11.7900 C.ar   86  DA86        0.1815
   1734  N7        23.7960   -9.5660  -11.6710 N.ar   86  DA86       -0.2193
   1735  C5        22.9640  -10.6730  -11.6020 C.ar   86  DA86        0.1518
   1736  C6        23.2270  -12.0470  -11.4700 C.ar   86  DA86        0.1919
   1737  N6        24.4570  -12.5600  -11.3830 N.pl3  86  DA86       -0.1054
   1738  N1        22.1700  -12.8870  -11.4320 N.ar   86  DA86       -0.2040
   1739  C2        20.9380  -12.3720  -11.5200 C.ar   86  DA86        0.2016
   1740  N3        20.5650  -11.1010  -11.6470 N.ar   86  DA86       -0.2048
   1741  C4        21.6380  -10.2930  -11.6810 C.ar   86  DA86        0.1691
   1742  P         18.2640   -6.6030   -7.9840 P.3    87  DA87        0.3939
   1743  OP1       18.4090   -5.5310   -6.9720 O.3    87  DA87       -0.1425
   1744  OP2       19.2040   -7.7490   -7.9910 O.3    87  DA87       -0.1496
   1745  O5'       16.7740   -7.1650   -7.8200 O.3    87  DA87       -0.2926
   1746  C5'       16.0290   -7.5520   -8.9790 C.3    87  DA87        0.1828
   1747  C4'       16.0290   -9.0600   -9.2480 C.3    87  DA87        0.1747
   1748  O4'       17.1700   -9.4830  -10.0420 O.3    87  DA87       -0.3327
   1749  C3'       16.1590   -9.9850   -8.0490 C.3    87  DA87        0.1558
   1750  O3'       14.9640  -10.0940   -7.2880 O.3    87  DA87       -0.3138
   1751  C2'       16.3970  -11.3040   -8.7350 C.3    87  DA87        0.0865
   1752  C1'       17.2610  -10.8860   -9.9140 C.3    87  DA87        0.2094
   1753  N9        18.4240  -11.2140   -9.7610 N.ar   87  DA87       -0.2710
   1754  C8        19.3380  -10.4660   -9.0670 C.ar   87  DA87        0.1813
   1755  N7        20.4650  -11.0950   -8.8280 N.ar   87  DA87       -0.2216
   1756  C5        20.2760  -12.3420   -9.4030 C.ar   87  DA87        0.1502
   1757  C6        21.1020  -13.4760   -9.4940 C.3    87  DA87        0.2642
   1758  N6        22.3350  -13.5360   -8.9850 N.3    87  DA87       -0.1401
   1759  N1        20.6110  -14.5590  -10.1340 N.2    87  DA87       -0.1518
   1760  C2        19.3760  -14.4980  -10.6450 C.1    87  DA87        0.2030
   1761  N3        18.5070  -13.4900  -10.6240 N.2    87  DA87       -0.1442
   1762  C4        19.0240  -12.4300   -9.9800 C.ar   87  DA87        0.1777
   1763  P         14.9250  -10.8330   -5.4800 P.3    88  DG88        0.2141
   1764  OP1       13.4990  -10.6980   -5.0470 O.2    88  DG88       -0.5172
   1765  OP2       15.9840  -10.1470   -4.6900 O.3    88  DG88       -0.4373
   1766  O5'       15.2570  -12.4010   -5.5110 O.3    88  DG88       -0.3114
   1767  C5'       14.5150  -13.3330   -6.2750 C.3    88  DG88        0.1811
   1768  C4'       15.1710  -14.7040   -6.2820 C.3    88  DG88        0.1746
   1769  O4'       16.2640  -14.7400   -7.2310 O.3    88  DG88       -0.3327
   1770  C3'       15.7750  -15.2590   -4.9870 C.3    88  DG88        0.1558
   1771  O3'       14.8150  -15.8860   -4.1540 O.3    88  DG88       -0.3138
   1772  C2'       16.7360  -16.3070   -5.5220 C.3    88  DG88        0.0865
   1773  C1'       17.3190  -15.5500   -6.7130 C.3    88  DG88        0.2094
   1774  N9        18.4780  -14.6940   -6.3480 N.ar   88  DG88       -0.2713
   1775  C8        18.5010  -13.3420   -6.1030 C.ar   88  DG88        0.1816
   1776  N7        19.6530  -12.9200   -5.6570 N.ar   88  DG88       -0.2173
   1777  C5        20.4390  -14.0560   -5.6060 C.ar   88  DG88        0.1748
   1778  C6        21.7870  -14.2280   -5.2000 C.ar   88  DG88        0.3023
   1779  O6        22.5800  -13.3700   -4.7910 O.2    88  DG88       -0.2633
   1780  N1        22.1960  -15.5550   -5.3030 N.ar   88  DG88       -0.1709
   1781  C2        21.4040  -16.5880   -5.7420 C.ar   88  DG88        0.2606
   1782  N2        21.9760  -17.8000   -5.7730 N.pl3  88  DG88       -0.0859
   1783  N3        20.1500  -16.4440   -6.1220 N.ar   88  DG88       -0.1918
   1784  C4        19.7300  -15.1640   -6.0290 C.ar   88  DG88        0.1722
   1785  P         15.0930  -15.9130   -2.6330 P.3    89  DT89        0.2141
   1786  OP1       13.8990  -16.3280   -1.8660 O.3    89  DT89       -0.4373
   1787  OP2       15.6220  -14.5370   -2.4990 O.2    89  DT89       -0.5172
   1788  O5'       16.3320  -16.8710   -2.2750 O.3    89  DT89       -0.3114
   1789  C5'       16.1940  -18.2790   -2.4320 C.3    89  DT89        0.1811
   1790  C4'       17.4980  -19.0340   -2.3120 C.3    89  DT89        0.1746
   1791  O4'       18.4480  -18.5860   -3.3130 O.3    89  DT89       -0.3327
   1792  C3'       18.2570  -18.8570   -1.0130 C.3    89  DT89        0.1558
   1793  O3'       17.7140  -19.6050    0.0550 O.3    89  DT89       -0.3138
   1794  C2'       19.6670  -19.2740   -1.4000 C.3    89  DT89        0.0866
   1795  C1'       19.7580  -18.6590   -2.7890 C.3    89  DT89        0.2106
   1796  N1        20.3700  -17.3410   -2.7000 N.ar   89  DT89       -0.2559
   1797  C2        21.7480  -17.2410   -2.6570 C.ar   89  DT89        0.3545
   1798  O2        22.4830  -18.2120   -2.6320 O.2    89  DT89       -0.2443
   1799  N3        22.2370  -15.9570   -2.6420 N.ar   89  DT89       -0.1533
   1800  C4        21.5030  -14.7900   -2.6660 C.ar   89  DT89        0.2804
   1801  O4        22.0860  -13.7080   -2.6490 O.2    89  DT89       -0.2654
   1802  C5        20.0800  -14.9770   -2.7090 C.ar   89  DT89        0.0534
   1803  C6        19.5780  -16.2140   -2.7240 C.ar   89  DT89        0.0824
   1804  C7        19.1940  -13.7670   -2.7370 C.3    89  DT89        0.0377
   1805  P         17.7390  -18.9130    1.5510 P.3    90  DG90        0.2141
   1806  OP1       16.8970  -18.8360    2.7640 O.3    90  DG90       -0.4373
   1807  OP2       18.5060  -17.7320    1.0950 O.2    90  DG90       -0.5172
   1808  O5'       18.8670  -20.0370    1.7650 O.3    90  DG90       -0.3114
   1809  C5'       19.6590  -19.9940    2.9550 C.3    90  DG90        0.1811
   1810  C4'       21.1530  -20.0590    2.6950 C.3    90  DG90        0.1746
   1811  O4'       21.4840  -19.3080    1.4980 O.3    90  DG90       -0.3327
   1812  C3'       22.0670  -19.4880    3.7820 C.3    90  DG90        0.1558
   1813  O3'       22.3770  -20.4300    4.8020 O.3    90  DG90       -0.3138
   1814  C2'       23.3060  -19.0070    3.0230 C.3    90  DG90        0.0865
   1815  C1'       22.7740  -18.7380    1.6110 C.3    90  DG90        0.2094
   1816  N9        22.6110  -17.2620    1.4150 N.ar   90  DG90       -0.2713
   1817  C8        21.4510  -16.6310    1.0340 C.ar   90  DG90        0.1816
   1818  N7        21.6000  -15.3480    0.8490 N.ar   90  DG90       -0.2173
   1819  C5        22.9350  -15.1140    1.1200 C.ar   90  DG90        0.1748
   1820  C6        23.6860  -13.9110    1.0910 C.ar   90  DG90        0.3023
   1821  O6        23.2970  -12.7720    0.8060 O.2    90  DG90       -0.2633
   1822  N1        25.0180  -14.1200    1.4380 N.ar   90  DG90       -0.1709
   1823  C2        25.5590  -15.3390    1.7720 C.ar   90  DG90        0.2606
   1824  N2        26.8640  -15.3420    2.0770 N.pl3  90  DG90       -0.0859
   1825  N3        24.8740  -16.4640    1.8040 N.ar   90  DG90       -0.1918
   1826  C4        23.5780  -16.2850    1.4720 C.ar   90  DG90        0.1722
   1827  P         22.9910  -20.1130    6.3220 P.3    91  DC91        0.2141
   1828  OP1       23.3970  -21.3690    7.0590 O.2    91  DC91       -0.5172
   1829  OP2       22.0410  -19.2720    7.1000 O.3    91  DC91       -0.4373
   1830  O5'       24.2910  -19.3530    5.7840 O.3    91  DC91       -0.3114
   1831  C5'       25.5300  -20.1000    5.9710 C.3    91  DC91        0.1811
   1832  C4'       26.6540  -19.0970    5.9620 C.3    91  DC91        0.1746
   1833  O4'       26.5210  -18.2620    4.8220 O.3    91  DC91       -0.3327
   1834  C3'       26.7420  -18.1470    7.1280 C.3    91  DC91        0.1558
   1835  O3'       27.3190  -18.6540    8.3380 O.3    91  DC91       -0.3138
   1836  C2'       27.5760  -17.0080    6.5370 C.3    91  DC91        0.0866
   1837  C1'       27.0650  -16.9610    5.1040 C.3    91  DC91        0.2106
   1838  N1        26.0260  -15.8490    5.1780 N.ar   91  DC91       -0.2556
   1839  C2        26.4390  -14.5170    5.0670 C.ar   91  DC91        0.3531
   1840  O2        27.6570  -14.2680    5.0610 O.2    91  DC91       -0.2443
   1841  N3        25.5040  -13.5420    4.9720 N.ar   91  DC91       -0.1739
   1842  C4        24.2080  -13.8570    4.9840 C.ar   91  DC91        0.1759
   1843  N4        23.3230  -12.8620    4.8880 N.pl3  91  DC91       -0.1070
   1844  C5        23.7690  -15.2000    5.0950 C.ar   91  DC91        0.0566
   1845  C6        24.6950  -16.1600    5.1890 C.ar   91  DC91        0.0849
   1846  P         26.3630  -18.5540    9.6180 P.3    92  DA92        0.2141
   1847  OP1       26.6650  -19.5580   10.6600 O.3    92  DA92       -0.4373
   1848  OP2       24.9740  -18.3170    9.1540 O.2    92  DA92       -0.5172
   1849  O5'       26.9490  -17.1490   10.1010 O.3    92  DA92       -0.3114
   1850  C5'       28.3120  -17.0510   10.4840 C.3    92  DA92        0.1811
   1851  C4'       28.6660  -15.5880   10.6160 C.3    92  DA92        0.1746
   1852  O4'       28.3270  -14.8700    9.4060 O.3    92  DA92       -0.3327
   1853  C3'       27.8270  -14.8700   11.6470 C.3    92  DA92        0.1558
   1854  O3'       28.2610  -15.1850   12.9670 O.3    92  DA92       -0.3138
   1855  C2'       28.1440  -13.4410   11.2430 C.3    92  DA92        0.0865
   1856  C1'       28.0260  -13.5280    9.7310 C.3    92  DA92        0.2094
   1857  N9        26.7690  -13.1490    9.1600 N.ar   92  DA92       -0.2714
   1858  C8        25.7350  -13.9700    8.7940 C.ar   92  DA92        0.1815
   1859  N7        24.7190  -13.3350    8.2580 N.ar   92  DA92       -0.2193
   1860  C5        25.1130  -12.0070    8.2750 C.ar   92  DA92        0.1518
   1861  C6        24.4790  -10.8270    7.8450 C.ar   92  DA92        0.1919
   1862  N6        23.2650  -10.8000    7.2920 N.pl3  92  DA92       -0.1054
   1863  N1        25.1450   -9.6640    8.0060 N.ar   92  DA92       -0.2040
   1864  C2        26.3630   -9.6930    8.5600 C.ar   92  DA92        0.2016
   1865  N3        27.0620  -10.7360    9.0010 N.ar   92  DA92       -0.2048
   1866  C4        26.3720  -11.8760    8.8280 C.ar   92  DA92        0.1691
   1867  P         27.2260  -15.4540   14.0700 P.3    93  DA93        0.2141
   1868  OP1       27.7420  -15.9070   15.3810 O.3    93  DA93       -0.4373
   1869  OP2       25.9470  -15.9810   13.5460 O.2    93  DA93       -0.5172
   1870  O5'       27.0150  -13.8650   14.0960 O.3    93  DA93       -0.3114
   1871  C5'       27.8440  -13.0330   14.9000 C.3    93  DA93        0.1811
   1872  C4'       27.6170  -11.5580   14.6430 C.3    93  DA93        0.1746
   1873  O4'       27.5250  -11.3130   13.2130 O.3    93  DA93       -0.3327
   1874  C3'       26.3340  -10.9410   15.1910 C.3    93  DA93        0.1558
   1875  O3'       26.3660  -10.6470   16.5780 O.3    93  DA93       -0.3138
   1876  C2'       26.1970   -9.7000   14.3190 C.3    93  DA93        0.0865
   1877  C1'       26.6160  -10.2620   12.9640 C.3    93  DA93        0.2094
   1878  N9        25.4710  -10.7660   12.2480 N.ar   93  DA93       -0.2714
   1879  C8        25.1360  -12.0920   12.1610 C.ar   93  DA93        0.1815
   1880  N7        24.1260  -12.3310   11.3580 N.ar   93  DA93       -0.2193
   1881  C5        23.7740  -11.0760   10.8860 C.ar   93  DA93        0.1518
   1882  C6        22.7750  -10.6470    9.9940 C.ar   93  DA93        0.1919
   1883  N6        21.9130  -11.4730    9.3960 N.pl3  93  DA93       -0.1054
   1884  N1        22.6910   -9.3240    9.7360 N.ar   93  DA93       -0.2040
   1885  C2        23.5560   -8.4970   10.3360 C.ar   93  DA93        0.2016
   1886  N3        24.5370   -8.7810   11.1900 N.ar   93  DA93       -0.2048
   1887  C4        24.5930  -10.1030   11.4260 C.ar   93  DA93        0.1691
   1888  P         24.9570  -10.5910   17.4710 P.3    94  DT94        0.2141
   1889  OP1       25.3780   -9.9370   18.7330 O.3    94  DT94       -0.4373
   1890  OP2       23.8880  -11.6110   17.4330 O.2    94  DT94       -0.5172
   1891  O5'       24.4240   -9.4640   16.4790 O.3    94  DT94       -0.3114
   1892  C5'       24.9970   -8.1740   16.6030 C.3    94  DT94        0.1811
   1893  C4'       24.2960   -7.2130   15.6890 C.3    94  DT94        0.1746
   1894  O4'       24.4760   -7.6840   14.3350 O.3    94  DT94       -0.3327
   1895  C3'       22.7870   -7.1520   15.8510 C.3    94  DT94        0.1558
   1896  O3'       22.3670   -6.3190   16.9190 O.3    94  DT94       -0.3138
   1897  C2'       22.3570   -6.6520   14.4850 C.3    94  DT94        0.0866
   1898  C1'       23.2980   -7.4520   13.5950 C.3    94  DT94        0.2106
   1899  N1        22.6490   -8.7670   13.1470 N.ar   94  DT94       -0.2559
   1900  C2        21.7090   -8.6730   12.1380 C.ar   94  DT94        0.3545
   1901  O2        21.4720   -7.6360   11.5450 O.2    94  DT94       -0.2443
   1902  N3        21.0510   -9.8440   11.8460 N.ar   94  DT94       -0.1533
   1903  C4        21.2340  -11.0710   12.4480 C.ar   94  DT94        0.2804
   1904  O4        20.5680  -12.0330   12.0760 O.2    94  DT94       -0.2654
   1905  C5        22.2260  -11.0870   13.4870 C.ar   94  DT94        0.0534
   1906  C6        22.8810   -9.9630   13.7910 C.ar   94  DT94        0.0824
   1907  C7        22.4980  -12.3760   14.2040 C.3    94  DT94        0.0377
   1908  P         20.8530   -6.6550   17.8270 P.3    95  DC95        0.2141
   1909  OP1       20.7280   -5.9000   19.0920 O.3    95  DC95       -0.4373
   1910  OP2       21.0140   -8.1360   17.8620 O.2    95  DC95       -0.5172
   1911  O5'       19.5800   -6.3240   16.9250 O.3    95  DC95       -0.3114
   1912  C5'       19.0250   -5.0100   16.9030 C.3    95  DC95        0.1811
   1913  C4'       18.1100   -4.8310   15.7100 C.3    95  DC95        0.1767
   1914  O4'       18.6980   -5.4730   14.5440 O.3    95  DC95       -0.3327
   1915  C3'       16.7160   -5.4390   15.7590 C.3    95  DC95        0.0659
   1916  O3'       15.8150   -4.6280   16.5130 O.3    95  DC95       -0.1741
   1917  C2'       16.3470   -5.4220   14.2830 C.3    95  DC95        0.0586
   1918  C1'       17.6690   -5.8470   13.6460 C.3    95  DC95        0.2082
   1919  N1        17.7120   -7.2940   13.4520 N.ar   95  DC95       -0.2557
   1920  C2        16.9880   -7.9330   12.4390 C.ar   95  DC95        0.3531
   1921  O2        16.1740   -7.2680   11.7760 O.2    95  DC95       -0.2443
   1922  N3        17.1940   -9.2520   12.2120 N.ar   95  DC95       -0.1739
   1923  C4        18.0770   -9.9260   12.9500 C.ar   95  DC95        0.1759
   1924  N4        18.2470  -11.2240   12.6900 N.pl3  95  DC95       -0.1070
   1925  C5        18.8210   -9.2970   13.9810 C.ar   95  DC95        0.0566
   1926  C6        18.6140   -7.9940   14.2020 C.ar   95  DC95        0.0849
   1927  P         15.5250   -5.2560   16.3930 P.3    96  DT96        0.1397
   1928  OP1       15.2020   -3.9520   17.0330 O.3    96  DT96       -0.0314
   1929  OP2       15.5610   -6.4940   17.2200 O.3    96  DT96        0.0000
   1930  O5'       14.5230   -5.5140   15.1800 O.3    96  DT96       -0.2176
   1931  C5'       13.1210   -5.4870   15.3960 C.3    96  DT96        0.2140
   1932  C4'       12.3780   -5.3240   14.0920 C.3    96  DT96        0.1783
   1933  O4'       12.3000   -6.6070   13.4080 O.3    96  DT96       -0.3509
   1934  C3'       10.9280   -4.9260   14.3100 C.3    96  DT96        0.1840
   1935  O3'       10.8010   -3.5200   14.4640 O.3    96  DT96       -0.2204
   1936  C2'       10.2260   -5.4960   13.0860 C.3    96  DT96        0.0676
   1937  C1'       10.9910   -6.8060   12.8930 C.3    96  DT96        0.1450
   1938  N1        13.1120   -8.5760   13.2590 N.2    96  DT96       -0.1608
   1939  C2        12.6890   -9.7550   12.6770 C.1    96  DT96        0.2395
   1940  O2        11.8220   -9.8000   11.8220 O.2    96  DT96       -0.2041
   1941  N3        13.3180  -10.8880   13.1340 N.am   96  DT96       -0.0881
   1942  C4        14.3070  -10.9570   14.0930 C.2    96  DT96        0.2768
   1943  O4        14.7770  -12.0500   14.3990 O.2    96  DT96       -0.2676
   1944  C5        14.6910   -9.6910   14.6510 C.2    96  DT96        0.0541
   1945  C6        14.0950   -8.5740   14.2240 C.2    96  DT96        0.1126
   1946  C7        15.7590   -9.6610   15.7040 C.3    96  DT96        0.0376
@<TRIPOS>BOND
     1   546   545    2
     2   526   525    2
     3   545   547    1
     4   545   533    1
     5   545   548    1
     6   567   566    2
     7   533   532    1
     8   549   548    1
     9   549   550    1
    10   568   566    1
    11   525   528    1
    12   525   527    1
    13   525   513    1
    14   529   528    1
    15   529   530    1
    16   566   553    1
    17   566   569    1
    18   532   530    1
    19   532   534    1
    20   506   505    2
    21   553   552    1
    22   530   531    1
    23   513   512    1
    24   550   552    1
    25   550   551    1
    26   552   554    1
    27   569   570    1
    28   534   535    1
    29   551   555    1
    30   505   507    1
    31   505   508    1
    32   505   492    1
    33   570   571    1
    34   531   535    1
    35   512   510    1
    36   512   514    1
    37   509   508    1
    38   509   510    1
    39   510   511    1
    40   544   542    1
    41   554   555    1
    42   535   536    1
    43   492   491    1
    44   543   542   ar
    45   543   536   ar
    46   514   515    1
    47   555   556    1
    48   557   556   ar
    49   557   558   ar
    50   573   571    1
    51   573   575    1
    52   573   574    1
    53   571   572    1
    54   542   540   ar
    55   536   537   ar
    56   575   576    1
    57   583   584   ar
    58   583   581   ar
    59   556   565   ar
    60   485   484    2
    61   584   577   ar
    62   558   559   ar
    63   586   585    2
    64   511   515    1
    65   491   489    1
    66   491   493    1
    67   572   576    1
    68   587   585    1
    69   515   516    1
    70   574   585    1
    71   585   588    1
    72   488   489    1
    73   488   487    1
    74   540   539   ar
    75   540   541    2
    76   489   490    1
    77   576   577    1
    78   537   539   ar
    79   537   538    2
    80   582   581    1
    81   523   516   ar
    82   523   522   ar
    83   581   580   ar
    84   524   522    1
    85   565   559   ar
    86   565   564   ar
    87   577   578   ar
    88   493   494    1
    89   516   517   ar
    90   559   560   ar
    91   484   487    1
    92   484   486    1
    93   484   473    1
    94   522   520   ar
    95   564   563   ar
    96   602   600   ar
    97   602   603   ar
    98   517   518    2
    99   517   519   ar
   100   601   600    1
   101   473   472    1
   102   588   589    1
   103   580   578   ar
   104   490   494    1
   105   520   519   ar
   106   520   521    2
   107   578   579    2
   108   560   561    1
   109   560   562   ar
   110   494   495    1
   111   600   599   ar
   112   603   596   ar
   113   466   465    2
   114   563   562   ar
   115   589   590    1
   116   495   496   ar
   117   495   504   ar
   118   472   474    1
   119   472   470    1
   120   468   465    1
   121   468   469    1
   122   496   497   ar
   123   662   661   ar
   124   662   663   ar
   125   503   504   ar
   126   503   502   ar
   127   661   659   ar
   128   591   590    1
   129   591   595    1
   130   504   498   ar
   131   474   475    1
   132   599   597   ar
   133   465   467    1
   134   465   451    1
   135   596   597   ar
   136   596   595    1
   137   470   469    1
   138   470   471    1
   139   497   498   ar
   140   590   592    1
   141   663   664   ar
   142   502   501   ar
   143   498   499   ar
   144   597   598    2
   145   595   594    1
   146   640   639    2
   147   638   639   ar
   148   638   636   ar
   149   637   636    2
   150   659   660    1
   151   659   658   ar
   152   451   450    1
   153   501   499   ar
   154   499   500    1
   155   639   641   ar
   156   636   635   ar
   157   444   443    2
   158   592   594    1
   159   592   593    1
   160   475   471    1
   161   475   476    1
   162   664   658   ar
   163   664   655   ar
   164   678   677    2
   165   658   657   ar
   166   594   608    1
   167  1253  1251    2
   168   450   448    1
   169   450   452    1
   170   476   483   ar
   171   476   477   ar
   172   677   679   ar
   173   677   676   ar
   174   593   604    1
   175   635   642   ar
   176   635   634    1
   177   641   642   ar
   178   641   643    1
   179   655   654    1
   180   655   656   ar
   181   483   482   ar
   182   478   477    2
   183   675   671    1
   184   675   676    1
   185   675   674    1
   186   606   604    2
   187   654   650    1
   188   654   653    1
   189   443   445    1
   190   443   446    1
   191   443   432    1
   192   477   479   ar
   193   679   680   ar
   194   447   448    1
   195   447   446    1
   196   704   703   ar
   197   704   705   ar
   198   657   656   ar
   199   671   670    1
   200   703   702   ar
   201   676   683   ar
   202   634   630    1
   203   634   633    1
   204   482   480   ar
   205   448   449    1
   206   608   607    1
   207   608   609    1
   208   604   607    1
   209   604   605    1
   210   452   453    1
   211   479   480   ar
   212   695   691    1
   213   695   696    1
   214   695   694    1
   215   691   690    1
   216  1257  1261    1
   217  1257  1256    1
   218   650   649    1
   219   480   481    1
   220  1261  1260    1
   221  1261  1262    1
   222  1251  1252    1
   223  1251  1254    1
   224  1251  1239    1
   225   674   672    1
   226   653   651    1
   227   702   700   ar
   228   705   696   ar
   229   705   699   ar
   230  1254  1255    1
   231   680   681    2
   232   680   682   ar
   233   630   629    1
   234   696   697   ar
   235   432   431    1
   236   683   682   ar
   237  1256  1255    1
   238  1256  1258    1
   239   633   631    1
   240   670   672    1
   241   670   669    1
   242   609   610    1
   243   609   611    1
   244   610   614    1
   245  1260  1258    1
   246   682   684    1
   247   700   699   ar
   248   700   701    1
   249   694   692    1
   250   699   698   ar
   251   690   689    1
   252   690   692    1
   253   449   453    1
   254   697   698   ar
   255   649   651    1
   256   649   648    1
   257   453   454    1
   258   672   673    1
   259  1262  1263   ar
   260  1262  1271   ar
   261  1263  1264   ar
   262  1258  1259    1
   263  1259  1272    1
   264   651   652    1
   265   669   668    1
   266   689   688    1
   267   629   631    1
   268   629   628    1
   269   431   433    1
   270   431   429    1
   271   692   693    1
   272   631   632    1
   273   454   464   ar
   274   454   455   ar
   275   614   613    1
   276   614   615    1
   277  1264  1265   ar
   278  1271  1270   ar
   279  1271  1265   ar
   280  1239  1238    1
   281   463   464   ar
   282   463   461   ar
   283   673   685    1
   284   611   612    1
   285   611   613    1
   286   668   665    1
   287   738   737    2
   288   648   647    1
   289  1270  1269   ar
   290   464   457   ar
   291   455   456   ar
   292   688   685    1
   293   712   716    1
   294   712   711    1
   295   719   718    1
   296   719   736    1
   297   612   624    1
   298   462   461    1
   299  1265  1266   ar
   300   647   632    1
   301   652   665    1
   302   627   628    1
   303   627   624    1
   304   716   717    1
   305   716   715    1
   306   433   434    1
   307   461   460   ar
   308   693   706    1
   309   622   615   ar
   310   622   621   ar
   311   429   428    1
   312   429   430    1
   313   718   717    1
   314   718   720    2
   315   428   427    1
   316   735   731    1
   317   735   734    1
   318   735   736    1
   319   717   724    1
   320   457   456   ar
   321   457   458   ar
   322   731   730    1
   323   615   616   ar
   324  1269  1268   ar
   325  1273  1272    2
   326  1238  1240    1
   327  1238  1236    1
   328   623   621    1
   329  1266  1268   ar
   330  1266  1267    1
   331   720   721    1
   332   460   458   ar
   333   737   736    1
   334   737   739    1
   335   724   723    1
   336  1722  1721    2
   337  1272  1274    1
   338  1272  1275    1
   339   711   710    1
   340   711   713    1
   341   621   619   ar
   342   626   624    2
   343   458   459    2
   344   734   732    1
   345  1240  1241    1
   346   685   686    2
   347   685   687    1
   348   665   667    2
   349   665   666    1
   350  1278  1277    1
   351  1278  1282    1
   352   624   625    1
   353   715   713    1
   354  1233  1231    2
   355   721   723    2
   356   721   722    1
   357  1232  1231    1
   358   736   743    1
   359   425   424    2
   360   730   732    1
   361   730   729    1
   362   754   750    1
   363   754   753    1
   364   754   755    1
   365   646   644    1
   366  1276  1277    1
   367  1276  1275    1
   368  1727  1731    1
   369  1727  1726    1
   370   750   749    1
   371   710   709    1
   372   784   783    1
   373   739   740    2
   374   616   617    2
   375   616   618   ar
   376   644   645    2
   377   434   430    1
   378   434   435    1
   379  1234  1231    1
   380  1234  1235    1
   381   706   709    1
   382   706   708    2
   383   706   707    1
   384  1732  1733   ar
   385  1732  1741   ar
   386  1732  1731    1
   387  1733  1734   ar
   388  1231  1218    1
   389  1250  1248    1
   390  1277  1279    1
   391   775   774    1
   392   775   771    1
   393   775   776    1
   394  1741  1740   ar
   395  1741  1735   ar
   396   427   424    1
   397  1734  1735   ar
   398  1740  1739   ar
   399   774   772    1
   400   763   762    1
   401   763   764    2
   402  1248  1246   ar
   403  1248  1249   ar
   404  1735  1736   ar
   405  1247  1246    2
   406   753   751    1
   407   437   436    2
   408   771   770    1
   409  1282  1283    1
   410  1282  1281    1
   411  1246  1245   ar
   412   749   748    1
   413   749   751    1
   414  1249  1242   ar
   415  1739  1738   ar
   416  1236  1235    1
   417  1236  1237    1
   418   793   792    1
   419   793   797    1
   420   785   783    1
   421   785   786    2
   422   713   714    1
   423  1736  1738   ar
   424  1736  1737    1
   425  1731  1730    1
   426   619   618   ar
   427   619   620    2
   428  1245  1243   ar
   429  1242  1243   ar
   430  1242  1241    1
   431   792   791    1
   432   792   794    1
   433   732   733    1
   434  1243  1244    1
   435  1290  1283   ar
   436  1290  1289   ar
   437   729   728    1
   438   424   426    1
   439   424   412    1
   440   435   436   ar
   441   435   442   ar
   442  1721  1723    1
   443  1721  1709    1
   444  1721  1724    1
   445  1244  1760    1
   446   783   782    2
   447   755   764   ar
   448   755   756   ar
   449  1283  1284   ar
   450   743   742    2
   451   762   761    1
   452   762   779    1
   453  1725  1726    1
   454  1725  1724    1
   455   436   438   ar
   456  1241  1237    1
   457   770   772    1
   458   770   769    1
   459   797   796    1
   460   797   798    1
   461   791   790    1
   462  1289  1287   ar
   463  1726  1728    1
   464   733   744    1
   465   764   758   ar
   466   740   742    1
   467   740   741    1
   468  1212  1210    1
   469   442   441   ar
   470   796   794    1
   471   748   747    1
   472  1709  1708    1
   473  1284  1285    2
   474  1284  1286   ar
   475   751   752    1
   476   714   725    1
   477   810   811    1
   478   810   809    1
   479   773   772    1
   480   773   787    1
   481  1760  1761    2
   482  1760  1759    2
   483   786   776    1
   484   786   779    1
   485   776   777    1
   486  1761  1762    1
   487  1287  1286   ar
   488  1287  1288    1
   489   795   794    1
   490   795   806    1
   491   438   439   ar
   492   752   765    1
   493   756   757   ar
   494   761   759    1
   495   761   780    1
   496  1281  1279    1
   497   412   411    1
   498   811   812    1
   499   811   813    1
   500   782   780    1
   501   800   799    2
   502  1279  1280    1
   503   441   439   ar
   504   728   725    1
   505   768   769    1
   506   768   765    1
   507   758   759    2
   508   758   757   ar
   509   807   806    2
   510  1759  1757    1
   511   439   440    1
   512  1218  1217    1
   513  1748  1752    1
   514  1748  1747    1
   515  1730  1728    1
   516  1762  1753   ar
   517  1762  1756   ar
   518   790   787    1
   519  1752  1753    1
   520  1752  1751    1
   521   747   744    1
   522   759   760    1
   523   798   799   ar
   524   798   805   ar
   525  1710  1708    1
   526  1710  1711    1
   527  1217  1219    1
   528  1217  1215    1
   529  1753  1754   ar
   530   812   816    1
   531  1728  1729    1
   532   788   787    2
   533  1226  1225    1
   534  1219  1220    1
   535   779   780    1
   536   779   778    1
   537   777   778    2
   538  1708  1706    1
   539   787   789    1
   540   809   806    1
   541  1213  1210    1
   542  1213  1214    1
   543   799   801   ar
   544  1210  1211    1
   545  1729  1744    1
   546  1757  1756    1
   547  1757  1227    1
   548  1757  1758    1
   549  1280  1291    1
   550   744   745    2
   551   744   746    1
   552   806   808    1
   553  1756  1755   ar
   554   780   781    1
   555   725   726    2
   556   725   727    1
   557   814   813    1
   558   814   826    1
   559  1747  1746    1
   560  1747  1749    1
   561  1225  1227    1
   562  1225  1758    1
   563  1225  1224    1
   564   413   411    1
   565   413   414    1
   566   411   409    1
   567   813   815    1
   568  1754  1755   ar
   569  1223  1224   ar
   570  1223  1222   ar
   571   816   815    1
   572   816   817    1
   573   765   766    2
   574   765   767    1
   575   805   804   ar
   576  1227  1758    1
   577  1227  1228    1
   578  1746  1745    1
   579  1224  1230   ar
   580  1706  1705    1
   581  1706  1707    1
   582  1211  1199    1
   583   827   826    2
   584  1751  1749    1
   585  1222  1221   ar
   586  1214  1215    1
   587  1228  1229    2
   588  1711  1707    1
   589  1711  1712    1
   590  1215  1216    1
   591  1230  1221   ar
   592  1230  1229    1
   593   801   802   ar
   594   417   416    2
   595  1220  1221    1
   596  1220  1216    1
   597  1714  1713    2
   598  1199  1198    1
   599   817   824   ar
   600   817   818   ar
   601  1705  1704    1
   602  1749  1750    1
   603  1744  1742    1
   604   826   828    1
   605   826   829    1
   606  1742  1745    1
   607  1742  1743    1
   608   819   818    2
   609   804   802   ar
   610   409   408    1
   611   409   410    1
   612  1291  1293    2
   613  1291  1294    1
   614  1291  1292    1
   615  1297  1296    1
   616  1297  1301    1
   617   414   415    1
   618   414   410    1
   619   802   803    1
   620   824   823   ar
   621   416   415   ar
   622   416   418   ar
   623   818   820   ar
   624   830   831    1
   625   830   829    1
   626  1712  1713   ar
   627  1712  1719   ar
   628  1295  1294    1
   629  1295  1296    1
   630  1713  1715   ar
   631   832   831    1
   632   832   836    1
   633  1704  1701    1
   634  1750  1763    1
   635   408   407    1
   636  1309  1308   ar
   637  1309  1302   ar
   638   831   833    1
   639  1769  1773    1
   640  1769  1768    1
   641  1308  1306   ar
   642   415   422   ar
   643  1702  1701    2
   644  1198  1200    1
   645  1198  1196    1
   646   418   419   ar
   647  1296  1298    1
   648  1302  1301    1
   649  1302  1303   ar
   650  1301  1300    1
   651  1306  1307    1
   652  1306  1305   ar
   653  1773  1774    1
   654  1773  1772    1
   655  1719  1718   ar
   656   407   404    1
   657   823   825    1
   658   823   821   ar
   659   242   241    2
   660   222   221    2
   661  1715  1716   ar
   662  1303  1305   ar
   663  1303  1304    2
   664   836   835    1
   665   836   837    1
   666   820   821   ar
   667  1194  1195    1
   668  1194  1191    1
   669  1701  1703    1
   670  1701  1687    1
   671  1774  1775   ar
   672  1774  1784   ar
   673   422   421   ar
   674  1195  1196    1
   675  1768  1767    1
   676  1768  1770    1
   677  1767  1766    1
   678  1200  1201    1
   679   419   421   ar
   680   419   420    2
   681  1192  1191    2
   682  1783  1784   ar
   683  1783  1781   ar
   684  1775  1776   ar
   685  1784  1777   ar
   686   405   404    2
   687  1196  1197    1
   688   833   834    1
   689   833   835    1
   690   834   846    1
   691   821   822    2
   692   421   423    1
   693  1193  1191    1
   694  1782  1781    1
   695  1781  1780   ar
   696  1718  1716   ar
   697  1718  1720    1
   698  1776  1777   ar
   699  1191  1178    1
   700  1777  1778   ar
   701  1716  1717    2
   702  1204  1203    2
   703  1772  1770    1
   704  1766  1763    1
   705  1298  1300    1
   706  1298  1299    1
   707  1763  1764    2
   708  1763  1765    1
   709   844   837   ar
   710   844   843   ar
   711   404   406    1
   712   404   391    1
   713  1203  1205   ar
   714  1203  1202   ar
   715   837   838   ar
   716   225   224    1
   717   225   226    1
   718  1205  1206   ar
   719  1780  1778   ar
   720  1202  1209   ar
   721  1202  1201    1
   722   241   229    1
   723   241   243    1
   724   241   244    1
   725  1778  1779    2
   726  1206  1207    1
   727  1206  1208   ar
   728   221   208    1
   729   221   224    1
   730   221   223    1
   731   229   228    1
   732  1209  1208   ar
   733  1201  1197    1
   734  1698  1697    1
   735   208   207    1
   736  1770  1771    1
   737   845   843    1
   738  1687  1686    1
   739   843   841   ar
   740   401   400   ar
   741   401   402   ar
   742   847   846    2
   743   226   228    1
   744   226   227    1
   745   400   398   ar
   746  1299  1310    1
   747   838   839    2
   748   838   840   ar
   749   846   849    1
   750   846   848    1
   751   204   205    1
   752   204   203    1
   753  1697  1696   ar
   754  1697  1699   ar
   755   402   403   ar
   756   201   200    2
   757  1312  1310    2
   758  1771  1785    1
   759   244   245    1
   760   205   207    1
   761   205   206    1
   762  1688  1686    1
   763  1688  1689    1
   764   228   230    1
   765  1696  1694   ar
   766   245   246    1
   767  1178  1177    1
   768   392   390    1
   769   392   393    1
   770   391   390    1
   771  1686  1684    1
   772   207   209    1
   773   841   840   ar
   774   841   842    2
   775  1699  1700   ar
   776   398   399    1
   777   398   397   ar
   778   849   850    1
   779  1310  1313    1
   780  1310  1311    1
   781   262   261    2
   782   403   397   ar
   783   403   394   ar
   784   227   231    1
   785  1030  1029    2
   786  1791  1795    1
   787  1791  1790    1
   788   209   210    1
   789  1694  1695    2
   790  1694  1693   ar
   791   390   388    1
   792   263   261    1
   793   397   396   ar
   794   203   200    1
   795  1177  1179    1
   796  1177  1175    1
   797  1700  1693   ar
   798  1700  1690   ar
   799  1171  1170    1
   800   200   188    1
   801   200   202    1
   802  1313  1314    1
   803   230   231    1
   804   206   210    1
   805   249   261    1
   806   249   248    1
   807  1795  1796    1
   808  1795  1794    1
   809   394   393    1
   810   394   395   ar
   811  1693  1692   ar
   812  1016  1029    1
   813  1016  1015    1
   814  1804  1802    1
   815   393   389    1
   816  1803  1802   ar
   817  1803  1796   ar
   818  1179  1180    1
   819  1802  1800   ar
   820   261   264    1
   821  1796  1797   ar
   822  1689  1690    1
   823  1689  1685    1
   824   246   248    1
   825   246   247    1
   826  1800  1801    2
   827  1800  1799   ar
   828  1033  1034    1
   829  1033  1032    1
   830  1797  1799   ar
   831  1797  1798    2
   832  1785  1787    2
   833  1785  1788    1
   834  1785  1786    1
   835   188   187    1
   836  1316  1320    1
   837  1316  1315    1
   838  1172  1170    1
   839  1172  1159    1
   840  1684  1685    1
   841  1684  1683    1
   842  1690  1691   ar
   843  1789  1790    1
   844  1789  1788    1
   845  1323  1322   ar
   846  1323  1324   ar
   847  1322  1321   ar
   848   850   851    1
   849   210   211    1
   850   231   232    1
   851   396   395   ar
   852  1790  1792    1
   853  1013  1015    1
   854  1013  1012    1
   855  1013  1014    1
   856  1049  1048    2
   857  1017  1015    1
   858  1017  1018    1
   859  1173  1170    1
   860  1173  1174    1
   861  1186  1185    1
   862   852   851    1
   863   852   856    1
   864   248   250    1
   865  1314  1315    1
   866  1034  1035    1
   867  1034  1036    1
   868  1029  1032    1
   869  1029  1031    1
   870  1692  1691   ar
   871  1185  1187   ar
   872  1185  1184   ar
   873  1037  1048    1
   874  1037  1036    1
   875  1187  1188   ar
   876   189   187    1
   877   189   190    1
   878  1326  1325    1
   879   858   859   ar
   880   858   857   ar
   881  1320  1321    1
   882  1320  1319    1
   883  1050  1048    1
   884  1324  1325   ar
   885  1324  1330   ar
   886  1175  1174    1
   887  1175  1176    1
   888  1321  1330   ar
   889   388   389    1
   890   388   387    1
   891  1012  1011    1
   892  1183  1184   ar
   893  1183  1182   ar
   894  1315  1317    1
   895  1184  1190   ar
   896  1014  1018    1
   897   859   860   ar
   898   247   251    1
   899   851   853    1
   900  1683  1682    1
   901  1188  1189   ar
   902  1325  1327   ar
   903   187   185    1
   904  1182  1181   ar
   905  1018  1019    1
   906  1190  1189   ar
   907  1190  1181   ar
   908  1330  1329   ar
   909   379   380   ar
   910   379   377   ar
   911  1794  1792    1
   912  1159  1158    1
   913  1181  1180    1
   914  1180  1176    1
   915  1048  1051    1
   916   239   232   ar
   917   239   238   ar
   918  1682  1679    1
   919   185   184    1
   920   185   186    1
   921   264   265    1
   922  1035  1039    1
   923   232   233   ar
   924   378   377    1
   925   856   857    1
   926   856   855    1
   927  1036  1038    1
   928  1680  1679    2
   929   380   381   ar
   930  1792  1793    1
   931   211   212   ar
   932   211   220   ar
   933   857   866   ar
   934  1327  1328   ar
   935   260   258    1
   936  1329  1328   ar
   937   377   376   ar
   938   387   386    1
   939   250   251    1
   940   190   186    1
   941   190   191    1
   942   860   866   ar
   943   860   861   ar
   944   184   183    1
   945  1679  1681    1
   946  1679  1666    1
   947   259   258   ar
   948   259   252   ar
   949   265   266    1
   950   386   383    1
   951   240   238    1
   952  1319  1317    1
   953   251   252    1
   954   862   861    1
   955  1317  1318    1
   956  1011  1008    1
   957   212   213   ar
   958   238   236   ar
   959   219   220   ar
   960   219   218   ar
   961  1009  1008    2
   962   866   865   ar
   963   193   192    2
   964   853   855    1
   965   853   854    1
   966   381   382   ar
   967  1038  1039    1
   968  1019  1028   ar
   969  1019  1020   ar
   970   861   863   ar
   971   220   214   ar
   972  1039  1040    1
   973  1158  1160    1
   974  1158  1156    1
   975   258   256   ar
   976   233   234    2
   977   233   235   ar
   978  1051  1052    1
   979   282   280    2
   980  1793  1805    1
   981  1674  1673    1
   982  1027  1028   ar
   983  1027  1026   ar
   984  1001  1000    2
   985   376   382   ar
   986   376   375   ar
   987  1675  1673    2
   988  1675  1676    1
   989   252   253   ar
   990  1008   996    1
   991  1008  1010    1
   992   281   280    1
   993   183   180    1
   994   385   383    2
   995   382   373   ar
   996   997   998    1
   997   997   995    1
   998  1160  1161    1
   999  1673  1672    1
  1000   191   192   ar
  1001   191   198   ar
  1002   338   337    2
  1003  1318  1331    1
  1004  1676  1167    1
  1005  1028  1022   ar
  1006   192   194   ar
  1007   383   384    1
  1008   383   370    1
  1009   854   867    1
  1010   996   995    1
  1011  1821  1820    2
  1012  1020  1021   ar
  1013   865   864   ar
  1014  1818  1817   ar
  1015  1818  1819   ar
  1016   218   217   ar
  1017   213   214   ar
  1018   280   269    1
  1019   280   283    1
  1020  1052  1053    1
  1021  1047  1040   ar
  1022  1047  1046   ar
  1023   317   316    1
  1024  1666  1665    1
  1025   266   268    1
  1026   266   267    1
  1027   863   864   ar
  1028  1152  1151    2
  1029   375   374   ar
  1030   236   235   ar
  1031   236   237    2
  1032  1154  1155    1
  1033  1154  1151    1
  1034   998   994    1
  1035   998   999    1
  1036  1817  1816   ar
  1037  1156  1155    1
  1038  1156  1157    1
  1039   886   884    1
  1040   214   215   ar
  1041  1820  1819   ar
  1042  1820  1822   ar
  1043   869   867    2
  1044  1807  1805    2
  1045  1618  1617    2
  1046  1040  1041   ar
  1047  1026  1025   ar
  1048  1819  1826   ar
  1049   181   180    2
  1050  1333  1331    2
  1051   278   279   ar
  1052   278   276   ar
  1053   269   268    1
  1054  1672  1678   ar
  1055  1672  1671   ar
  1056   358   357    2
  1057  1677  1167    1
  1058  1167  1166    1
  1059  1000   999   ar
  1060  1000  1002   ar
  1061  1106  1105    1
  1062   279   272   ar
  1063  1331  1332    1
  1064  1331  1334    1
  1065   371   369    1
  1066   371   372    1
  1067   268   270    1
  1068   995   993    1
  1069  1168  1166   ar
  1070  1168  1169   ar
  1071   256   257    2
  1072   256   255   ar
  1073  1816  1826   ar
  1074  1816  1815    1
  1075  1639  1638    2
  1076  1153  1151    1
  1077  1822  1823   ar
  1078   373   374   ar
  1079   373   372    1
  1080  1826  1825   ar
  1081  1166  1165   ar
  1082  1811  1815    1
  1083  1811  1810    1
  1084   883   882    2
  1085  1660  1658    2
  1086  1072  1070    2
  1087  1805  1808    1
  1088  1805  1806    1
  1089  1151  1137    1
  1090   198   197   ar
  1091   303   301    2
  1092  1089  1087    1
  1093   253   255   ar
  1094   253   254    2
  1095   267   271    1
  1096  1169  1162   ar
  1097  1678  1669   ar
  1098  1815  1814    1
  1099   180   168    1
  1100   180   182    1
  1101  1665  1667    1
  1102  1665  1663    1
  1103   337   336   ar
  1104   337   339   ar
  1105   994   993    1
  1106  1344  1343   ar
  1107  1344  1345   ar
  1108   341   339    1
  1109  1671  1670   ar
  1110  1165  1163   ar
  1111   867   868    1
  1112   867   870    1
  1113   993   992    1
  1114  1808  1809    1
  1115  1086  1085    2
  1116  1823  1825   ar
  1117  1823  1824    1
  1118  1667  1668    1
  1119   370   369    1
  1120  1343  1342   ar
  1121  1596  1595    2
  1122  1162  1163   ar
  1123  1162  1161    1
  1124   999  1006   ar
  1125  1347  1346    2
  1126   194   195   ar
  1127  1022  1021   ar
  1128  1022  1023   ar
  1129  1640  1638    1
  1130  1659  1658    1
  1131   369   367    1
  1132  1163  1164    2
  1133  1161  1157    1
  1134  1046  1044   ar
  1135  1061  1060   ar
  1136  1061  1062   ar
  1137   884   882   ar
  1138   884   885   ar
  1139   217   215   ar
  1140  1337  1341    1
  1141  1337  1336    1
  1142   283   284    1
  1143   168   167    1
  1144   882   881   ar
  1145  1345  1346   ar
  1146  1345  1352   ar
  1147  1060  1059   ar
  1148   314   315   ar
  1149   314   313   ar
  1150   372   368    1
  1151   173   172    2
  1152   169   167    1
  1153   169   170    1
  1154   215   216    1
  1155   316   315   ar
  1156   316   318   ar
  1157  1002  1003   ar
  1158  1617  1619    1
  1159  1617  1603    1
  1160  1617  1620    1
  1161   277   276    1
  1162  1346  1348   ar
  1163   357   356   ar
  1164   357   359   ar
  1165  1669  1670   ar
  1166  1669  1668    1
  1167   276   275   ar
  1168  1342  1352   ar
  1169  1342  1341    1
  1170  1658  1661    1
  1171  1658  1646    1
  1172  1053  1055    1
  1173  1053  1054    1
  1174   336   334   ar
  1175  1334  1335    1
  1176   361   359    1
  1177  1041  1042    2
  1178  1041  1043   ar
  1179   339   340   ar
  1180  1638  1625    1
  1181  1638  1641    1
  1182   296   295    1
  1183  1025  1023   ar
  1184  1105  1107   ar
  1185  1105  1104   ar
  1186   293   292   ar
  1187   293   294   ar
  1188  1661  1662    1
  1189  1352  1351   ar
  1190    55    54    1
  1191   272   271    1
  1192   272   273   ar
  1193  1341  1340    1
  1194  1137  1136    1
  1195  1071  1070    1
  1196    20    19    2
  1197  1810  1809    1
  1198  1810  1812    1
  1199  1085  1087   ar
  1200  1085  1084   ar
  1201   271   270    1
  1202  1055  1056    1
  1203  1055  1057    1
  1204   315   321   ar
  1205  1348  1349   ar
  1206   197   195   ar
  1207   197   199    1
  1208  1603  1602    1
  1209   885   878   ar
  1210  1087  1088   ar
  1211  1070  1056    1
  1212  1070  1073    1
  1213  1107  1108   ar
  1214   356   354   ar
  1215  1054  1058    1
  1216  1023  1024    1
  1217   870   871    1
  1218  1335  1336    1
  1219  1130  1129    2
  1220   359   360   ar
  1221  1668  1664    1
  1222   981   980    2
  1223   167   165    1
  1224   301   302    1
  1225   301   304    1
  1226   301   288    1
  1227   195   196    2
  1228   318   319   ar
  1229  1351  1349   ar
  1230  1814  1812    1
  1231  1131  1129    1
  1232   881   879   ar
  1233   292   291   ar
  1234  1064  1063    2
  1235  1663  1662    1
  1236  1663  1664    1
  1237   992   991    1
  1238  1349  1350    1
  1239  1336  1338    1
  1240   313   312   ar
  1241  1599  1598    1
  1242  1599  1600    1
  1243  1062  1063   ar
  1244  1062  1069   ar
  1245  1104  1102   ar
  1246   170   171    1
  1247   170   166    1
  1248  1006  1005   ar
  1249  1044  1043   ar
  1250  1044  1045    1
  1251    52    53   ar
  1252    52    51   ar
  1253  1595  1597    1
  1254  1595  1598    1
  1255  1595  1582    1
  1256   284   285    1
  1257  1625  1624    1
  1258   172   171   ar
  1259   172   174   ar
  1260   368   367    1
  1261  1059  1058    1
  1262  1059  1069   ar
  1263   367   366    1
  1264   294   295   ar
  1265   294   300   ar
  1266   295   297   ar
  1267   364   362    2
  1268   275   273   ar
  1269  1136  1138    1
  1270  1136  1134    1
  1271    21    19    1
  1272  1641  1642    1
  1273  1620  1621    1
  1274  1003  1005   ar
  1275  1003  1004    2
  1276   365   366    1
  1277   365   362    1
  1278  1092  1090    2
  1279   903   902    2
  1280  1621  1622    1
  1281    54    53   ar
  1282    54    56   ar
  1283   878   879   ar
  1284   878   877    1
  1285   873   877    1
  1286   873   872    1
  1287  1129  1132    1
  1288  1129  1117    1
  1289   340   333   ar
  1290   273   274    2
  1291   334   335    2
  1292   334   333   ar
  1293  1063  1065   ar
  1294   964   965   ar
  1295   964   962   ar
  1296   965   966   ar
  1297   165   166    1
  1298   165   164    1
  1299    19    22    1
  1300    19     6    1
  1301  1812  1813    1
  1302  1073  1074    1
  1303   304   305    1
  1304   879   880    2
  1305  1058  1057    1
  1306    41    39    2
  1307  1084  1082   ar
  1308  1088  1081   ar
  1309   871   872    1
  1310   287   288    1
  1311   287   285    1
  1312   287   289    1
  1313  1132  1133    1
  1314  1602  1600    1
  1315  1602  1604    1
  1316  1108  1101   ar
  1317   354   355    2
  1318   354   353   ar
  1319  1111  1109    2
  1320   171   178   ar
  1321    40    39    1
  1322    53    59   ar
  1323   324   322    2
  1324   360   353   ar
  1325  1646  1645    1
  1326  1600  1601    1
  1327   321   312   ar
  1328   321   320   ar
  1329  1340  1338    1
  1330    51    50   ar
  1331   174   175   ar
  1332  1005  1007    1
  1333   344   342    2
  1334  1069  1068   ar
  1335   980   982   ar
  1336   980   979   ar
  1337   991   988    1
  1338  1145  1144    2
  1339  1138  1139    1
  1340   319   320   ar
  1341   291   300   ar
  1342   291   290    1
  1343   333   332    1
  1344   877   876    1
  1345   312   311    1
  1346  1624  1622    1
  1347  1624  1626    1
  1348  1642  1643    1
  1349  1133  1134    1
  1350  1582  1581    1
  1351   285   286    1
  1352  1338  1339    1
  1353   362   363    1
  1354   362   350    1
  1355  1102  1101   ar
  1356  1102  1103    2
  1357  1142  1143   ar
  1358  1142  1141   ar
  1359   977   978    1
  1360   977   975    1
  1361   906   904    1
  1362    56    57   ar
  1363  1657  1655    1
  1364  1144  1143   ar
  1365  1144  1146   ar
  1366   297   298   ar
  1367   353   352    1
  1368   300   299   ar
  1369   902   904   ar
  1370   902   901   ar
  1371   982   983   ar
  1372  1622  1623    1
  1373  1143  1150   ar
  1374   872   874    1
  1375    39    42    1
  1376    39    27    1
  1377  1110  1109    1
  1378  1141  1140   ar
  1379  1645  1643    1
  1380  1645  1647    1
  1381  1134  1135    1
  1382  1101  1100    1
  1383   978   979    1
  1384   978   974    1
  1385  1146  1147   ar
  1386    76    75    1
  1387   966   967   ar
  1388    22    23    1
  1389  1813  1827    1
  1390  1833  1837    1
  1391  1833  1832    1
  1392   286   290    1
  1393   289   290    1
  1394   305   306    1
  1395  1843  1842    1
  1396  1150  1140   ar
  1397  1150  1149   ar
  1398  1140  1139    1
  1399   943   944   ar
  1400   943   941   ar
  1401   963   962    1
  1402   962   961   ar
  1403  1081  1082   ar
  1404  1081  1080    1
  1405  1090  1091    1
  1406  1090  1093    1
  1407  1090  1078    1
  1408  1082  1083    2
  1409  1841  1842   ar
  1410  1841  1839   ar
  1411   164   163    1
  1412  1842  1844   ar
  1413  1109  1112    1
  1414  1109  1098    1
  1415  1065  1066   ar
  1416     6     5    1
  1417  1147  1149   ar
  1418  1147  1148    1
  1419  1840  1839    2
  1420  1839  1838   ar
  1421    59    50   ar
  1422    59    58   ar
  1423   904   905   ar
  1424  1844  1845   ar
  1425  1837  1838    1
  1426  1837  1836    1
  1427   979   986   ar
  1428  1604  1605    1
  1429   942   941    1
  1430  1074  1075    1
  1431    50    49    1
  1432  1838  1845   ar
  1433    42    43    1
  1434   901   899   ar
  1435    23    24    1
  1436   178   177   ar
  1437  1117  1116    1
  1438  1128  1647    1
  1439  1128  1126    1
  1440  1643  1644    1
  1441   138   137    1
  1442   154   153    2
  1443   322   325    1
  1444   322   323    1
  1445   322   309    1
  1446   349   351    1
  1447   349   350    1
  1448   349   347    1
  1449  1139  1135    1
  1450   308   306    1
  1451   308   310    1
  1452   308   309    1
  1453   325   326    1
  1454  1093  1094    1
  1455   175   177   ar
  1456   175   176    2
  1457   351   352    1
  1458  1068  1066   ar
  1459  1601  1605    1
  1460   944   945   ar
  1461   298   299   ar
  1462  1339  1353    1
  1463  1077  1078    1
  1464  1077  1075    1
  1465  1077  1079    1
  1466   307   311    1
  1467   307   306    1
  1468    57    58   ar
  1469   342   345    1
  1470   342   330    1
  1471   342   343    1
  1472  1369  1368    1
  1473  1655  1656   ar
  1474  1655  1653   ar
  1475   332   331    1
  1476   332   328    1
  1477   345   346    1
  1478   923   922    1
  1479   311   310    1
  1480   989   988    2
  1481   874   876    1
  1482   874   875    1
  1483  1626  1627    1
  1484   331   329    1
  1485   941   940   ar
  1486   988   976    1
  1487   988   990    1
  1488   976   975    1
  1489  1581  1579    1
  1490  1581  1583    1
  1491  1656  1649   ar
  1492  1099  1097    1
  1493  1099  1100    1
  1494  1097  1098    1
  1495  1097  1095    1
  1496    27    26    1
  1497  1830  1831    1
  1498  1830  1827    1
  1499   974   973    1
  1500   352   348    1
  1501  1112  1113    1
  1502  1066  1067    1
  1503   975   973    1
  1504  1125  1124    2
  1505    75    74   ar
  1506    75    77   ar
  1507  1647  1648    1
  1508   983   984    2
  1509   983   985   ar
  1510   329   330    1
  1511   329   327    1
  1512  1623  1627    1
  1513   967   961   ar
  1514   967   958   ar
  1515   177   179    1
  1516  1370  1368   ar
  1517  1370  1371   ar
  1518  1832  1831    1
  1519  1832  1834    1
  1520  1075  1076    1
  1521  1076  1080    1
  1522  1100  1096    1
  1523  1116  1118    1
  1524  1116  1114    1
  1525  1126  1124   ar
  1526  1126  1127   ar
  1527  1368  1367   ar
  1528   905   898   ar
  1529   961   960   ar
  1530  1605  1606    1
  1531  1080  1079    1
  1532   163   160    1
  1533    43    44    1
  1534     2     1    1
  1535     2     3    1
  1536  1579  1578    1
  1537  1579  1580    1
  1538     5     3    1
  1539     5     7    1
  1540   328   327    1
  1541   973   972    1
  1542   899   898   ar
  1543   899   900    2
  1544  1124  1123   ar
  1545  1355  1353    2
  1546    26    24    1
  1547    26    28    1
  1548   348   347    1
  1549    45    49    1
  1550    45    44    1
  1551  1578  1577    1
  1552  1827  1828    2
  1553  1827  1829    1
  1554  1654  1653    2
  1555  1644  1648    1
  1556  1629  1630   ar
  1557  1629  1628   ar
  1558  1575  1574    2
  1559    74    72   ar
  1560    77    78   ar
  1561  1653  1652   ar
  1562   986   985   ar
  1563    24    25    1
  1564    49    48    1
  1565   889   887    2
  1566   137   136   ar
  1567   137   139   ar
  1568  1371  1364   ar
  1569   153   155   ar
  1570   153   152   ar
  1571  1836  1834    1
  1572  1583  1584    1
  1573   347   346    1
  1574    38    36    1
  1575  1127  1120   ar
  1576   136   134   ar
  1577  1627  1628    1
  1578   150   151    1
  1579   150   148    1
  1580  1113  1114    1
  1581  1094  1095    1
  1582   898   897    1
  1583  1367  1365   ar
  1584  1096  1095    1
  1585     3     4    1
  1586  1649  1648    1
  1587  1649  1650   ar
  1588   945   946   ar
  1589  1353  1354    1
  1590  1353  1356    1
  1591   327   326    1
  1592   985   987    1
  1593  1630  1631   ar
  1594   922   921   ar
  1595   922   924   ar
  1596  1118  1119    1
  1597    95    94    1
  1598   875   887    1
  1599   151   152    1
  1600   151   147    1
  1601  1628  1637   ar
  1602   155   156   ar
  1603  1123  1121   ar
  1604    44    46    1
  1605   940   946   ar
  1606   940   939   ar
  1607  1834  1835    1
  1608  1114  1115    1
  1609  1606  1607   ar
  1610  1606  1616   ar
  1611  1364  1365   ar
  1612  1364  1363    1
  1613   958   957    1
  1614   958   959   ar
  1615   921   919   ar
  1616   114   113    1
  1617  1365  1366    2
  1618  1862  1861    1
  1619  1120  1121   ar
  1620  1120  1119    1
  1621  1607  1608   ar
  1622  1652  1650   ar
  1623     7     8    1
  1624  1577  1574    1
  1625   152   159   ar
  1626    37    36   ar
  1627    37    30   ar
  1628   960   959   ar
  1629  1359  1363    1
  1630  1359  1358    1
  1631    36    34   ar
  1632    25    29    1
  1633   946   937   ar
  1634  1580  1584    1
  1635   887   890    1
  1636   887   888    1
  1637    72    73    2
  1638    72    71   ar
  1639   139   140   ar
  1640    78    71   ar
  1641  1574  1562    1
  1642  1574  1576    1
  1643   160   149    1
  1644   160   161    2
  1645   160   162    1
  1646   957   956    1
  1647   957   953    1
  1648  1121  1122    2
  1649  1650  1651    2
  1650  1562  1561    1
  1651  1356  1357    1
  1652    46    48    1
  1653    46    47    1
  1654    93    94   ar
  1655    93    91   ar
  1656  1584  1585    1
  1657   149   148    1
  1658    28    29    1
  1659   115   113   ar
  1660   115   116   ar
  1661   972   971    1
  1662    94    96   ar
  1663   135   134    2
  1664   134   133   ar
  1665   924   925   ar
  1666  1631  1637   ar
  1667  1631  1632   ar
  1668  1861  1863   ar
  1669  1861  1860   ar
  1670    62    60    2
  1671   956   954    1
  1672   148   146    1
  1673  1119  1115    1
  1674  1363  1362    1
  1675  1637  1636   ar
  1676   897   893    1
  1677   897   896    1
  1678   147   146    1
  1679  1863  1864   ar
  1680   893   892    1
  1681  1388  1387    2
  1682  1616  1615   ar
  1683  1616  1609   ar
  1684   939   938   ar
  1685    71    70    1
  1686  1357  1358    1
  1687   113   112   ar
  1688   890   891    1
  1689     4     8    1
  1690    30    29    1
  1691    30    31   ar
  1692  1615  1613   ar
  1693  1859  1860   ar
  1694  1859  1858   ar
  1695   156   157    1
  1696   156   158   ar
  1697  1860  1866   ar
  1698   146   145    1
  1699  1835  1846    1
  1700  1608  1609   ar
  1701    34    35    2
  1702    34    33   ar
  1703    92    91    2
  1704   919   920    2
  1705   919   918   ar
  1706    91    90   ar
  1707   971   968    1
  1708  1864  1865   ar
  1709  1358  1360    1
  1710   116   117   ar
  1711     8     9    1
  1712  1391  1389    1
  1713   140   133   ar
  1714   140   130   ar
  1715    96    97   ar
  1716  1632  1633    1
  1717  1632  1634   ar
  1718   953   952    1
  1719   159   158   ar
  1720  1858  1857   ar
  1721  1636  1635   ar
  1722   937   938   ar
  1723   937   936    1
  1724  1866  1865   ar
  1725  1866  1857   ar
  1726  1609  1610   ar
  1727  1585  1594   ar
  1728  1585  1586   ar
  1729   133   132   ar
  1730  1561  1563    1
  1731  1561  1559    1
  1732    47    60    1
  1733  1387  1389   ar
  1734  1387  1386   ar
  1735   891   892    1
  1736   925   918   ar
  1737    10     9   ar
  1738    10    11   ar
  1739    31    33   ar
  1740    31    32    2
  1741  1848  1846    2
  1742    70    66    1
  1743    70    69    1
  1744  1857  1856    1
  1745   896   894    1
  1746  1563  1564    1
  1747  1593  1594   ar
  1748  1593  1592   ar
  1749   892   894    1
  1750  1613  1614    1
  1751  1613  1612   ar
  1752    60    63    1
  1753    60    61    1
  1754     9    18   ar
  1755  1559  1558    1
  1756  1559  1560    1
  1757  1883  1882    1
  1758  1852  1856    1
  1759  1852  1851    1
  1760   918   917    1
  1761   954   952    1
  1762   954   955    1
  1763  1362  1360    1
  1764  1389  1390   ar
  1765    90    97   ar
  1766    90    89    1
  1767    66    65    1
  1768   112   111   ar
  1769   112   118   ar
  1770  1594  1588   ar
  1771   894   895    1
  1772  1586  1587   ar
  1773  1558  1557    1
  1774  1635  1634   ar
  1775  1846  1849    1
  1776  1846  1847    1
  1777  1360  1361    1
  1778   936   935    1
  1779   936   932    1
  1780    11    12   ar
  1781  1856  1855    1
  1782  1884  1882   ar
  1783  1884  1885   ar
  1784   145   144    1
  1785  1386  1384   ar
  1786   952   951    1
  1787   117   118   ar
  1788    63    64    1
  1789  1610  1612   ar
  1790  1610  1611    2
  1791   130   129    1
  1792   130   131   ar
  1793  1882  1881   ar
  1794   955   968    1
  1795   128   129    1
  1796   128   126    1
  1797   129   125    1
  1798  1592  1591   ar
  1799    18    12   ar
  1800    18    17   ar
  1801   968   970    2
  1802   968   969    1
  1803  1849  1850    1
  1804   111   110   ar
  1805   935   933    1
  1806   132   131   ar
  1807   118   109   ar
  1808    12    13   ar
  1809  1885  1886   ar
  1810  1408  1407    2
  1811    89    85    1
  1812    89    88    1
  1813    69    67    1
  1814  1850  1851    1
  1815  1390  1383   ar
  1816  1560  1564    1
  1817    17    16   ar
  1818  1564  1565    1
  1819   909   907    2
  1820  1557  1554    1
  1821  1555  1554    2
  1822  1588  1587   ar
  1823  1588  1589   ar
  1824  1851  1853    1
  1825   144   141    1
  1826   932   931    1
  1827    65    64    1
  1828    65    67    1
  1829  1384  1383   ar
  1830  1384  1385    2
  1831  1881  1880   ar
  1832  1881  1887   ar
  1833   917   916    1
  1834   917   913    1
  1835  1361  1372    1
  1836   895   907    1
  1837  1374  1372    2
  1838    67    68    1
  1839   951   950    1
  1840  1429  1430   ar
  1841  1429  1427   ar
  1842  1591  1589   ar
  1843    13    14    1
  1844    13    15   ar
  1845   950   947    1
  1846    85    84    1
  1847  1886  1887   ar
  1848  1428  1567    1
  1849  1428  1427    2
  1850  1383  1382    1
  1851  1855  1853    1
  1852    16    15   ar
  1853   125   124    1
  1854  1567  1566    1
  1855  1880  1879   ar
  1856  1407  1406   ar
  1857  1407  1409   ar
  1858  1589  1590    1
  1859  1554  1542    1
  1860  1554  1556    1
  1861  1887  1878   ar
  1862    88    86    1
  1863   110   109   ar
  1864  1406  1404   ar
  1865   933   931    1
  1866   933   934    1
  1867   109   108    1
  1868  1901  1900    2
  1869   916   914    1
  1870   126   127    1
  1871   126   124    1
  1872  1430  1431   ar
  1873   910   907    1
  1874   910   911    1
  1875  1853  1854    1
  1876   913   912    1
  1877  1565  1566   ar
  1878  1565  1572   ar
  1879  1427  1426   ar
  1880   907   908    1
  1881  1921  1920    2
  1882  1372  1375    1
  1883  1372  1373    1
  1884  1940  1939    2
  1885  1902  1900   ar
  1886  1902  1903   ar
  1887   127   141    1
  1888   141   142    2
  1889   141   143    1
  1890   931   930    1
  1891  1566  1568   ar
  1892  1904  1903    2
  1893    81    79    2
  1894   124   123    1
  1895  1900  1899   ar
  1896  1879  1878   ar
  1897  1922  1920   ar
  1898  1922  1923   ar
  1899   914   912    1
  1900   914   915    1
  1901   928   926    2
  1902   949   947    2
  1903  1878  1877    1
  1904   929   930    1
  1905   929   926    1
  1906    82    79    1
  1907    82    83    1
  1908  1542  1541    1
  1909  1378  1382    1
  1910  1378  1377    1
  1911  1382  1381    1
  1912  1572  1571   ar
  1913  1920  1919   ar
  1914  1375  1376    1
  1915  1411  1409    1
  1916  1903  1905   ar
  1917    68    79    1
  1918  1409  1410   ar
  1919   934   947    1
  1920   947   948    1
  1921  1543  1541    1
  1922  1543  1544    1
  1923  1404  1405    2
  1924  1404  1403   ar
  1925    84    86    1
  1926    84    83    1
  1927  1431  1432   ar
  1928    86    87    1
  1929   912   911    1
  1930  1939  1941   am
  1931  1939  1938    2
  1932  1924  1923    1
  1933  1426  1432   ar
  1934  1426  1425   ar
  1935   108   107    1
  1936   108   104    1
  1937    79    80    1
  1938  1937  1936    1
  1939  1937  1933    1
  1940  1923  1925   ar
  1941  1877  1873    1
  1942  1877  1876    1
  1943  1854  1867    1
  1944  1547  1546    2
  1945  1432  1423   ar
  1946  1936  1934    1
  1947  1568  1569   ar
  1948   107   105    1
  1949  1941  1942   am
  1950  1899  1898    1
  1951  1899  1906   ar
  1952   926   915    1
  1953   926   927    1
  1954   100    98    2
  1955  1873  1872    1
  1956  1541  1539    1
  1957  1938  1945    1
  1958  1376  1377    1
  1959  1446  1445    2
  1960  1449  1448    2
  1961  1933  1932    1
  1962  1447  1445   ar
  1963  1447  1448   ar
  1964  1425  1424   ar
  1965  1919  1918    1
  1966  1919  1926   ar
  1967  1905  1906   ar
  1968  1905  1907    1
  1969  1410  1403   ar
  1970  1571  1569   ar
  1971  1571  1573    1
  1972  1403  1402    1
  1973  1869  1867    2
  1974  1377  1379    1
  1975  1898  1894    1
  1976  1898  1897    1
  1977   123   122    1
  1978  1544  1545    1
  1979  1544  1540    1
  1980  1918  1917    1
  1981  1918  1914    1
  1982  1381  1379    1
  1983   104   103    1
  1984    87    98    1
  1985  1445  1444   ar
  1986  1448  1450   ar
  1987  1569  1570    2
  1988   122   119    1
  1989  1925  1926   ar
  1990  1546  1545   ar
  1991  1546  1548   ar
  1992  1867  1870    1
  1993  1867  1868    1
  1994  1423  1424   ar
  1995  1423  1422    1
  1996  1932  1934    1
  1997  1932  1931    1
  1998  1942  1943    2
  1999  1942  1944    1
  2000  1870  1871    1
  2001  1379  1380    1
  2002  1539  1540    1
  2003  1539  1538    1
  2004  1945  1944    2
  2005   101    98    1
  2006   101   102    1
  2007    98    99    1
  2008  1934  1935    1
  2009  1876  1874    1
  2010  1894  1893    1
  2011   105   103    1
  2012   105   106    1
  2013  1545  1552   ar
  2014  1897  1895    1
  2015  1914  1913    1
  2016  1872  1871    1
  2017  1872  1874    1
  2018  1944  1946    1
  2019  1402  1398    1
  2020  1402  1401    1
  2021  1422  1418    1
  2022  1422  1421    1
  2023  1531  1530   ar
  2024  1531  1532   ar
  2025  1548  1549   ar
  2026   103   102    1
  2027  1444  1443    1
  2028  1444  1451   ar
  2029  1450  1451   ar
  2030  1450  1452    1
  2031  1394  1392    2
  2032  1530  1528   ar
  2033  1398  1397    1
  2034  1930  1931    1
  2035  1874  1875    1
  2036  1538  1537    1
  2037   106   119    1
  2038   119   121    2
  2039   119   120    1
  2040  1443  1442    1
  2041  1443  1439    1
  2042  1532  1533   ar
  2043  1418  1417    1
  2044  1380  1392    1
  2045  1552  1551   ar
  2046  1893  1895    1
  2047  1893  1892    1
  2048  1913  1912    1
  2049  1421  1419    1
  2050  1915  1927    1
  2051  1401  1399    1
  2052  1895  1896    1
  2053  1549  1551   ar
  2054  1549  1550    2
  2055  1489  1488    1
  2056  1509  1510   ar
  2057  1509  1507   ar
  2058  1508  1507    1
  2059  1392  1395    1
  2060  1392  1393    1
  2061  1395  1396    1
  2062  1442  1440    1
  2063  1439  1438    1
  2064  1537  1534    1
  2065  1528  1529    1
  2066  1528  1527   ar
  2067  1551  1553    1
  2068  1927  1916    1
  2069  1891  1892    1
  2070  1891  1888    1
  2071  1397  1399    1
  2072  1397  1396    1
  2073  1916  1928    1
  2074  1399  1400    1
  2075  1875  1888    1
  2076  1533  1527   ar
  2077  1533  1524   ar
  2078  1510  1511   ar
  2079  1507  1506   ar
  2080  1417  1419    1
  2081  1417  1416    1
  2082  1912  1911    1
  2083  1896  1908    1
  2084  1911  1908    1
  2085  1419  1420    1
  2086  1522  1523    1
  2087  1522  1520    1
  2088  1527  1526   ar
  2089  1414  1412    2
  2090  1488  1487   ar
  2091  1488  1490   ar
  2092  1466  1465    2
  2093  1890  1888    2
  2094  1459  1463    1
  2095  1459  1458    1
  2096  1888  1889    1
  2097  1467  1465   ar
  2098  1467  1468   ar
  2099  1465  1464   ar
  2100  1535  1534    2
  2101  1469  1468    2
  2102  1438  1440    1
  2103  1438  1437    1
  2104  1468  1470   ar
  2105  1464  1471   ar
  2106  1464  1463    1
  2107  1440  1441    1
  2108  1524  1523    1
  2109  1524  1525   ar
  2110  1415  1416    1
  2111  1415  1412    1
  2112  1470  1471   ar
  2113  1470  1472    1
  2114  1534  1521    1
  2115  1534  1536    1
  2116  1523  1519    1
  2117  1521  1520    1
  2118  1463  1462    1
  2119  1400  1412    1
  2120  1908  1910    2
  2121  1908  1909    1
  2122  1487  1485   ar
  2123  1511  1512   ar
  2124  1520  1518    1
  2125  1490  1491   ar
  2126  1420  1433    1
  2127  1506  1512   ar
  2128  1506  1505   ar
  2129  1412  1413    1
  2130  1456  1457    1
  2131  1456  1453    1
  2132  1457  1458    1
  2133  1526  1525   ar
  2134  1441  1453    1
  2135  1436  1437    1
  2136  1436  1433    1
  2137  1458  1460    1
  2138  1512  1503   ar
  2139  1435  1433    2
  2140  1519  1518    1
  2141  1505  1504   ar
  2142  1462  1460    1
  2143  1485  1486    2
  2144  1485  1484   ar
  2145  1433  1434    1
  2146  1518  1517    1
  2147  1491  1484   ar
  2148  1453  1455    2
  2149  1453  1454    1
  2150  1460  1461    1
  2151  1484  1483    1
  2152  1503  1504   ar
  2153  1503  1502    1
  2154  1517  1516    1
  2155  1501  1502    1
  2156  1501  1499    1
  2157  1461  1475    1
  2158  1516  1513    1
  2159  1502  1498    1
  2160  1475  1473    1
  2161  1515  1513    2
  2162  1483  1479    1
  2163  1483  1482    1
  2164  1513  1514    1
  2165  1513  1500    1
  2166  1499  1500    1
  2167  1499  1497    1
  2168  1498  1497    1
  2169  1479  1478    1
  2170  1482  1480    1
  2171  1473  1476    1
  2172  1473  1474    1
  2173  1477  1476    1
  2174  1477  1478    1
  2175  1480  1478    1
  2176  1480  1481    1
  2177  1494  1492    2
  2178  1497  1496    1
  2179  1495  1492    1
  2180  1495  1496    1
  2181  1492  1481    1
  2182  1492  1493    1
