@<TRIPOS>MOLECULE
dna.pdb
 1642 1844 0 0 0
SMALL
GASTEIGER

@<TRIPOS>ATOM
      1  O5'        4.4900  -22.4400  -10.8740 O.3     1  DA1        -0.2176
      2  C5'        3.5380  -23.2090  -11.6300 C.3     1  DA1         0.2140
      3  C4'        2.4540  -23.7430  -10.7150 C.3     1  DA1         0.1774
      4  O4'        3.0110  -24.6890   -9.7550 O.3     1  DA1        -0.3348
      5  C3'        1.7920  -22.7020   -9.8370 C.3     1  DA1         0.1556
      6  O3'        0.8220  -21.9660  -10.5530 O.3     1  DA1        -0.3139
      7  C2'        1.2020  -23.5580   -8.7310 C.3     1  DA1         0.0835
      8  C1'        2.3250  -24.5680   -8.5160 C.3     1  DA1         0.1974
      9  N9         3.1830  -24.0390   -7.3710 N.pl3   1  DA1        -0.2458
     10  C8         4.4620  -23.5850   -7.5670 C.2     1  DA1         0.1669
     11  N7         5.1360  -23.4090   -6.4550 N.2     1  DA1        -0.2207
     12  C5         4.2400  -23.7710   -5.4620 C.2     1  DA1         0.1919
     13  C6         4.3450  -23.8080   -4.0610 C.2     1  DA1         0.4325
     14  N6         5.4480  -23.4630   -3.3930 N.pl3   1  DA1         0.2176
     15  N1         3.2640  -24.2170   -3.3620 N.4     1  DA1         0.0026
     16  C2         2.1600  -24.5640   -4.0330 C.2     1  DA1         0.3341
     17  N3         1.9410  -24.5720   -5.3460 N.2     1  DA1        -0.2009
     18  C4         3.0320  -24.1600   -6.0110 C.3     1  DA1         0.2335
     19  P          1.2260  -20.3900  -10.9050 P.3     2  DG2         0.2141
     20  OP1        0.9360  -19.5230  -12.0750 O.2     2  DG2        -0.5172
     21  OP2        2.6070  -20.8880  -10.6870 O.3     2  DG2        -0.4373
     22  O5'        0.7490  -19.6150   -9.5930 O.3     2  DG2        -0.3114
     23  C5'       -0.5920  -19.1170   -9.4910 C.3     2  DG2         0.1811
     24  C4'       -1.1460  -19.3310   -8.0990 C.3     2  DG2         0.1746
     25  O4'       -0.5870  -20.5380   -7.5100 O.3     2  DG2        -0.3327
     26  C3'       -0.8650  -18.2660   -7.0560 C.3     2  DG2         0.1558
     27  O3'       -1.7480  -17.1610   -7.1730 O.3     2  DG2        -0.3138
     28  C2'       -1.0970  -19.0260   -5.7540 C.3     2  DG2         0.0865
     29  C1'       -0.5470  -20.4060   -6.0970 C.3     2  DG2         0.2094
     30  N9         0.9210  -20.4890   -5.7500 N.ar    2  DG2        -0.2713
     31  C8         1.9690  -20.4770   -6.6380 C.ar    2  DG2         0.1816
     32  N7         3.1270  -20.6820   -6.0710 N.ar    2  DG2        -0.2173
     33  C5         2.8290  -20.8410   -4.7310 C.ar    2  DG2         0.1748
     34  C6         3.6760  -21.0880   -3.6200 C.ar    2  DG2         0.3023
     35  O6         4.9060  -21.2210   -3.6090 O.2     2  DG2        -0.2633
     36  N1         2.9600  -21.1800   -2.4290 N.ar    2  DG2        -0.1709
     37  C2         1.5960  -21.0500   -2.3220 C.ar    2  DG2         0.2606
     38  N2         1.0860  -21.1710   -1.0890 N.pl3   2  DG2        -0.0859
     39  N3         0.7970  -20.8190   -3.3450 N.ar    2  DG2        -0.1918
     40  C4         1.4700  -20.7250   -4.5110 C.ar    2  DG2         0.1722
     41  P         -1.3720  -15.7070   -6.4550 P.3     3  DC3         0.2141
     42  OP1       -2.2580  -14.6340   -6.9640 O.2     3  DC3        -0.5172
     43  OP2       -0.0610  -15.3710   -5.8500 O.3     3  DC3        -0.4373
     44  O5'       -2.1240  -16.5400   -5.3200 O.3     3  DC3        -0.3114
     45  C5'       -2.6460  -15.8420   -4.2110 C.3     3  DC3         0.1811
     46  C4'       -2.4340  -16.5800   -2.9170 C.3     3  DC3         0.1746
     47  O4'       -1.4990  -17.6820   -3.0580 O.3     3  DC3        -0.3327
     48  C3'       -1.8120  -15.7200   -1.8420 C.3     3  DC3         0.1558
     49  O3'       -2.7340  -14.8000   -1.2940 O.3     3  DC3        -0.3138
     50  C2'       -1.2500  -16.7550   -0.8780 C.3     3  DC3         0.0866
     51  C1'       -0.7520  -17.8150   -1.8630 C.3     3  DC3         0.2106
     52  N1         0.7810  -17.5870   -2.0720 N.ar    3  DC3        -0.2556
     53  C2         1.6510  -17.8510   -1.0080 C.ar    3  DC3         0.3531
     54  O2         1.1760  -18.0000    0.1300 O.2     3  DC3        -0.2443
     55  N3         2.9810  -17.9360   -1.2500 N.ar    3  DC3        -0.1739
     56  C4         3.4460  -17.7690   -2.4890 C.ar    3  DC3         0.1759
     57  N4         4.7640  -17.8620   -2.6790 N.pl3   3  DC3        -0.1070
     58  C5         2.5810  -17.5000   -3.5800 C.ar    3  DC3         0.0566
     59  C6         1.2680  -17.4170   -3.3370 C.ar    3  DC3         0.0849
     60  P         -2.1380  -13.6700   -1.1150 P.3     4  DA4         0.2141
     61  OP1       -3.0860  -12.7180   -0.4880 O.3     4  DA4        -0.4373
     62  OP2       -1.4610  -13.3050   -2.3850 O.2     4  DA4        -0.5172
     63  O5'       -0.9980  -14.0040   -0.0500 O.3     4  DA4        -0.3114
     64  C5'       -1.3380  -14.4180    1.2860 C.3     4  DA4         0.1811
     65  C4'       -0.0920  -14.6240    2.1020 C.3     4  DA4         0.1744
     66  O4'        0.6670  -15.7200    1.5430 O.3     4  DA4        -0.3349
     67  C3'        0.8820  -13.4620    2.0960 C.3     4  DA4         0.1555
     68  O3'        0.5590  -12.4700    3.0420 O.3     4  DA4        -0.3139
     69  C2'        2.2100  -14.1290    2.4030 C.3     4  DA4         0.0835
     70  C1'        2.0530  -15.4530    1.6650 C.3     4  DA4         0.1974
     71  N9         2.6230  -15.3770    0.3260 N.pl3   4  DA4        -0.2458
     72  C8         1.9630  -15.2740   -0.8700 C.2     4  DA4         0.1669
     73  N7         2.7580  -15.2580   -1.9140 N.2     4  DA4        -0.2207
     74  C5         4.0270  -15.3560   -1.3650 C.2     4  DA4         0.1919
     75  C6         5.3080  -15.3930   -1.9440 C.2     4  DA4         0.4324
     76  N6         5.5260  -15.3330   -3.2600 N.pl3   4  DA4         0.2176
     77  N1         6.3680  -15.4950   -1.1140 N.4     4  DA4         0.0013
     78  C2         6.1480  -15.5560    0.2040 C.2     4  DA4         0.3340
     79  N3         4.9930  -15.5320    0.8660 N.2     4  DA4        -0.2009
     80  C4         3.9600  -15.4290    0.0130 C.3     4  DA4         0.2335
     81  P          0.8720  -10.9600    2.7210 P.3     5  DG5         0.2141
     82  OP1        0.2710   -9.9960    3.6710 O.3     5  DG5        -0.4373
     83  OP2        0.0990  -11.4060    1.5380 O.2     5  DG5        -0.5172
     84  O5'        2.2680  -10.3790    2.2090 O.3     5  DG5        -0.3114
     85  C5'        3.2420   -9.9540    3.1510 C.3     5  DG5         0.1811
     86  C4'        4.6370  -10.0580    2.5720 C.3     5  DG5         0.1746
     87  O4'        4.8440  -11.3750    1.9960 O.3     5  DG5        -0.3327
     88  C3'        4.9330   -9.1070    1.4310 C.3     5  DG5         0.1558
     89  O3'        5.2410   -7.7980    1.9160 O.3     5  DG5        -0.3138
     90  C2'        6.1190   -9.7940    0.7720 C.3     5  DG5         0.0865
     91  C1'        5.7130  -11.2670    0.8730 C.3     5  DG5         0.2094
     92  N9         5.0510  -11.7480   -0.3190 N.ar    5  DG5        -0.2713
     93  C8         3.7170  -12.0580   -0.4300 C.ar    5  DG5         0.1816
     94  N7         3.3930  -12.5300   -1.6030 N.ar    5  DG5        -0.2173
     95  C5         4.5810  -12.5350   -2.3100 C.ar    5  DG5         0.1748
     96  C6         4.8610  -12.9370   -3.6420 C.ar    5  DG5         0.3023
     97  O6         4.0770  -13.3870   -4.4870 O.2     5  DG5        -0.2633
     98  N1         6.2060  -12.7760   -3.9630 N.ar    5  DG5        -0.1709
     99  C2         7.1630  -12.2870   -3.1060 C.ar    5  DG5         0.2606
    100  N2         8.4080  -12.2050   -3.5960 N.pl3   5  DG5        -0.0859
    101  N3         6.9180  -11.9080   -1.8670 N.ar    5  DG5        -0.1918
    102  C4         5.6180  -12.0550   -1.5340 C.ar    5  DG5         0.1722
    103  P          4.8170   -6.6080    1.1200 P.3     6  DC6         0.2141
    104  OP1        5.3960   -5.5840    2.0310 O.3     6  DC6        -0.4373
    105  OP2        3.5200   -6.3480    0.4450 O.2     6  DC6        -0.5172
    106  O5'        5.9160   -6.9560    0.0280 O.3     6  DC6        -0.3114
    107  C5'        7.2870   -6.9560    0.3810 C.3     6  DC6         0.1811
    108  C4'        8.1310   -6.9480   -0.8560 C.3     6  DC6         0.1746
    109  O4'        8.0630   -8.2570   -1.4840 O.3     6  DC6        -0.3327
    110  C3'        7.6510   -6.0120   -1.9470 C.3     6  DC6         0.1558
    111  O3'        7.9400   -4.6460   -1.7340 O.3     6  DC6        -0.3138
    112  C2'        8.2810   -6.6210   -3.1860 C.3     6  DC6         0.0866
    113  C1'        8.0740   -8.1100   -2.9000 C.3     6  DC6         0.2106
    114  N1         6.6880   -8.5740   -3.4390 N.ar    6  DC6        -0.2556
    115  C2         6.6160   -8.8360   -4.8120 C.ar    6  DC6         0.3531
    116  O2         7.6310   -8.6600   -5.5080 O.2     6  DC6        -0.2443
    117  N3         5.4470   -9.2690   -5.3400 N.ar    6  DC6        -0.1739
    118  C4         4.3830   -9.4420   -4.5550 C.ar    6  DC6         0.1759
    119  N4         3.2520   -9.8710   -5.1200 N.pl3   6  DC6        -0.1070
    120  C5         4.4350   -9.1830   -3.1610 C.ar    6  DC6         0.0566
    121  C6         5.5920   -8.7550   -2.6440 C.ar    6  DC6         0.0849
    122  P          6.8260   -3.5900   -2.1430 P.3     7  DA7         0.2141
    123  OP1        7.6320   -2.4160   -1.7280 O.3     7  DA7        -0.4373
    124  OP2        5.4010   -3.6990   -1.7560 O.2     7  DA7        -0.5172
    125  O5'        6.9340   -3.7350   -3.7340 O.3     7  DA7        -0.3114
    126  C5'        7.9310   -3.0390   -4.4630 C.3     7  DA7         0.1811
    127  C4'        8.1090   -3.6880   -5.8150 C.3     7  DA7         0.1746
    128  O4'        7.6260   -5.0510   -5.7930 O.3     7  DA7        -0.3327
    129  C3'        7.2880   -3.0300   -6.9020 C.3     7  DA7         0.1558
    130  O3'        8.0090   -1.9100   -7.3860 O.3     7  DA7        -0.3138
    131  C2'        7.1320   -4.1430   -7.9350 C.3     7  DA7         0.0865
    132  C1'        7.0670   -5.3820   -7.0520 C.3     7  DA7         0.2094
    133  N9         5.7010   -5.8860   -6.8620 N.ar    7  DA7        -0.2714
    134  C8         4.9170   -5.7680   -5.7450 C.ar    7  DA7         0.1815
    135  N7         3.7360   -6.3280   -5.8650 N.ar    7  DA7        -0.2193
    136  C5         3.7460   -6.8490   -7.1500 C.ar    7  DA7         0.1518
    137  C6         2.7870   -7.5660   -7.8870 C.ar    7  DA7         0.1919
    138  N6         1.5830   -7.8940   -7.4120 N.pl3   7  DA7        -0.1054
    139  N1         3.1120   -7.9370   -9.1430 N.ar    7  DA7        -0.2040
    140  C2         4.3190   -7.6080   -9.6180 C.ar    7  DA7         0.2016
    141  N3         5.3030   -6.9390   -9.0220 N.ar    7  DA7        -0.2048
    142  C4         4.9490   -6.5840   -7.7760 C.ar    7  DA7         0.1691
    143  P          7.2490   -0.8110   -7.6020 P.3     8  DC8         0.2141
    144  OP1        8.2800    0.1930   -7.5530 O.2     8  DC8        -0.5172
    145  OP2        5.8710   -0.5420   -7.1100 O.3     8  DC8        -0.4373
    146  O5'        6.9150   -1.2880   -9.0430 O.3     8  DC8        -0.3114
    147  C5'        7.9070   -1.8720   -9.7810 C.3     8  DC8         0.1811
    148  C4'        7.1810   -2.5100  -10.9460 C.3     8  DC8         0.1746
    149  O4'        6.4800   -3.6760  -10.4950 O.3     8  DC8        -0.3327
    150  C3'        6.0210   -1.6750  -11.4210 C.3     8  DC8         0.1558
    151  O3'        6.4280   -0.5640  -12.1300 O.3     8  DC8        -0.3138
    152  C2'        5.2260   -2.6970  -12.2310 C.3     8  DC8         0.0866
    153  C1'        5.3510   -3.9010  -11.3290 C.3     8  DC8         0.2106
    154  N1         4.1120   -3.9920  -10.5860 N.ar    8  DC8        -0.2556
    155  C2         2.9840   -4.5660  -11.1820 C.ar    8  DC8         0.3531
    156  O2         3.0910   -5.0520  -12.3210 O.2     8  DC8        -0.2443
    157  N3         1.8120   -4.5750  -10.5030 N.ar    8  DC8        -0.1739
    158  C4         1.7440   -4.0410   -9.2830 C.ar    8  DC8         0.1759
    159  N4         0.5670   -4.0730   -8.6520 N.pl3   8  DC8        -0.1070
    160  C5         2.8760   -3.4540   -8.6620 C.ar    8  DC8         0.0566
    161  C6         4.0310   -3.4480   -9.3360 C.ar    8  DC8         0.0849
    162  P          5.5940    0.7900  -12.0490 P.3     9  DA9         0.2141
    163  OP1        6.4120    2.0160  -11.8630 O.2     9  DA9        -0.5172
    164  OP2        4.5060    0.4820  -11.0880 O.3     9  DA9        -0.4373
    165  O5'        4.9680    0.8250  -13.5150 O.3     9  DA9        -0.3114
    166  C5'        3.8890    1.7040  -13.8250 C.3     9  DA9         0.1811
    167  C4'        2.9220    1.0350  -14.7730 C.3     9  DA9         0.1746
    168  O4'        2.5910   -0.2840  -14.2680 O.3     9  DA9        -0.3327
    169  C3'        1.5870    1.7460  -14.9330 C.3     9  DA9         0.1558
    170  O3'        1.6570    2.7480  -15.9440 O.3     9  DA9        -0.3138
    171  C2'        0.6470    0.6080  -15.3100 C.3     9  DA9         0.0865
    172  C1'        1.2120   -0.5430  -14.4740 C.3     9  DA9         0.2094
    173  N9         0.8060   -0.7780  -12.8740 N.ar    9  DA9        -0.2714
    174  C8         1.5550   -0.7840  -11.7260 C.ar    9  DA9         0.1815
    175  N7         0.8970   -1.1950  -10.6680 N.ar    9  DA9        -0.2193
    176  C5        -0.3700   -1.4770  -11.1530 C.ar    9  DA9         0.1518
    177  C6        -1.5370   -1.9540  -10.5310 C.ar    9  DA9         0.1919
    178  N6        -1.6160   -2.2410   -9.2300 N.pl3   9  DA9        -0.1054
    179  N1        -2.6320   -2.1260  -11.3010 N.ar    9  DA9        -0.2040
    180  C2        -2.5520   -1.8380  -12.6050 C.ar    9  DA9         0.2016
    181  N3        -1.5130   -1.3860  -13.3040 N.ar    9  DA9        -0.2048
    182  C4        -0.4410   -1.2240  -12.5100 C.ar    9  DA9         0.1691
    183  P          0.5680    3.9780  -16.0910 P.3    10  DG10        0.2141
    184  OP1        0.5180    4.8240  -17.3100 O.2    10  DG10       -0.5172
    185  OP2        0.6140    4.6220  -14.7500 O.3    10  DG10       -0.4373
    186  O5'       -0.6910    3.0030  -16.1230 O.3    10  DG10       -0.3114
    187  C5'       -1.2420    2.5690  -17.3630 C.3    10  DG10        0.1811
    188  C4'       -2.6570    2.0810  -17.1640 C.3    10  DG10        0.1746
    189  O4'       -2.6460    0.9660  -16.2320 O.3    10  DG10       -0.3327
    190  C3'       -3.6360    3.0580  -16.5300 C.3    10  DG10        0.1558
    191  O3'       -4.1720    3.9820  -17.4750 O.3    10  DG10       -0.3138
    192  C2'       -4.7100    2.1120  -16.0090 C.3    10  DG10        0.0865
    193  C1'       -3.8600    0.9490  -15.4970 C.3    10  DG10        0.2094
    194  N9        -3.5380    1.0320  -14.0600 N.ar   10  DG10       -0.2713
    195  C8        -2.4390    1.5890  -13.4520 C.ar   10  DG10        0.1816
    196  N7        -2.5400    1.6370  -12.1510 N.ar   10  DG10       -0.2173
    197  C5        -3.7750    1.0790  -11.8820 C.ar   10  DG10        0.1748
    198  C6        -4.4400    0.8600  -10.6480 C.ar   10  DG10        0.3023
    199  O6        -4.0450    1.1300   -9.5070 O.2    10  DG10       -0.2633
    200  N1        -5.6860    0.2650  -10.8260 N.ar   10  DG10       -0.1709
    201  C2        -6.2250   -0.0780  -12.0430 C.ar   10  DG10        0.2606
    202  N2        -7.4390   -0.6440  -12.0140 N.pl3  10  DG10       -0.0859
    203  N3        -5.6190    0.1200  -13.1980 N.ar   10  DG10       -0.1918
    204  C4        -4.4080    0.6980  -13.0490 C.ar   10  DG10        0.1722
    205  P         -4.9610    5.3460  -16.9450 P.3    11  DA11        0.2141
    206  OP1       -5.2680    6.4170  -17.9300 O.2    11  DA11       -0.5172
    207  OP2       -3.8860    5.5290  -15.9260 O.3    11  DA11       -0.4373
    208  O5'       -6.3320    4.9310  -16.2140 O.3    11  DA11       -0.3114
    209  C5'       -7.4260    4.5040  -17.0260 C.3    11  DA11        0.1811
    210  C4'       -8.5620    3.9380  -16.2080 C.3    11  DA11        0.1746
    211  O4'       -8.1120    2.8540  -15.3700 O.3    11  DA11       -0.3327
    212  C3'       -9.1300    4.9370  -15.2380 C.3    11  DA11        0.1558
    213  O3'      -10.1120    5.6990  -15.8600 O.3    11  DA11       -0.3138
    214  C2'       -9.7570    4.0460  -14.1810 C.3    11  DA11        0.0865
    215  C1'       -8.7890    2.8810  -14.1330 C.3    11  DA11        0.2094
    216  N9        -7.8290    3.1310  -13.0280 N.ar   11  DA11       -0.2714
    217  C8        -6.5760    3.6850  -13.0780 C.ar   11  DA11        0.1815
    218  N7        -5.9950    3.7870  -11.9060 N.ar   11  DA11       -0.2193
    219  C5        -6.9300    3.2660  -11.0260 C.ar   11  DA11        0.1518
    220  C6        -6.9210    3.0900   -9.6310 C.ar   11  DA11        0.1919
    221  N6        -5.8960    3.4350   -8.8490 N.pl3  11  DA11       -0.1054
    222  N1        -8.0150    2.5410   -9.0620 N.ar   11  DA11       -0.2040
    223  C2        -9.0420    2.1950   -9.8470 C.ar   11  DA11        0.2016
    224  N3        -9.1680    2.3100  -11.1670 N.ar   11  DA11       -0.2048
    225  C4        -8.0650    2.8590  -11.7020 C.ar   11  DA11        0.1691
    226  P        -10.4620    6.9510  -15.0410 P.3    12  DG12        0.2141
    227  OP1      -11.4460    7.8040  -15.7440 O.2    12  DG12       -0.5172
    228  OP2       -9.1320    7.5160  -14.7620 O.3    12  DG12       -0.4373
    229  O5'      -11.0340    6.4740  -13.6370 O.3    12  DG12       -0.3114
    230  C5'      -12.3230    5.9050  -13.5640 C.3    12  DG12        0.1811
    231  C4'      -12.6160    5.5330  -12.1280 C.3    12  DG12        0.1746
    232  O4'      -11.7520    4.4230  -11.7590 O.3    12  DG12       -0.3327
    233  C3'      -12.3130    6.6400  -11.1190 C.3    12  DG12        0.1558
    234  O3'      -13.4040    7.5570  -10.9350 O.3    12  DG12       -0.3138
    235  C2'      -12.0280    5.8310   -9.8620 C.3    12  DG12        0.0865
    236  C1'      -11.2940    4.6120  -10.4310 C.3    12  DG12        0.2094
    237  N9        -9.8350    4.7930  -10.4280 N.ar   12  DG12       -0.2713
    238  C8        -9.0040    5.0990  -11.4780 C.ar   12  DG12        0.1816
    239  N7        -7.7750    5.3370  -11.1100 N.ar   12  DG12       -0.2173
    240  C5        -7.7910    5.1780   -9.7370 C.ar   12  DG12        0.1748
    241  C6        -6.7520    5.3080   -8.7800 C.ar   12  DG12        0.3023
    242  O6        -5.5650    5.6010   -8.9730 O.2    12  DG12       -0.2633
    243  N1        -7.2010    5.0600   -7.4860 N.ar   12  DG12       -0.1709
    244  C2        -8.4930    4.7280   -7.1550 C.ar   12  DG12        0.2606
    245  N2        -8.7360    4.5250   -5.8530 N.pl3  12  DG12       -0.0859
    246  N3        -9.4690    4.6040   -8.0320 N.ar   12  DG12       -0.1918
    247  C4        -9.0560    4.8410   -9.2950 C.ar   12  DG12        0.1722
    248  P        -13.0930    9.1840  -10.5670 P.3    13  DG13        0.2141
    249  OP1      -14.4610    9.6720  -10.8450 O.3    13  DG13       -0.4373
    250  OP2      -11.9360    9.8750  -11.1750 O.2    13  DG13       -0.5172
    251  O5'      -12.8020    9.3050   -9.0000 O.3    13  DG13       -0.3114
    252  C5'      -13.7180    8.7520   -8.0690 C.3    13  DG13        0.1811
    253  C4'      -13.0660    8.4750   -6.7390 C.3    13  DG13        0.1746
    254  O4'      -12.0200    7.4800   -6.8860 O.3    13  DG13       -0.3327
    255  C3'      -12.3270    9.6400   -6.1150 C.3    13  DG13        0.1558
    256  O3'      -13.1930   10.5910   -5.5340 O.3    13  DG13       -0.3138
    257  C2'      -11.4150    8.9310   -5.1270 C.3    13  DG13        0.0865
    258  C1'      -10.9730    7.7450   -5.9770 C.3    13  DG13        0.2094
    259  N9        -9.7560    8.0220   -6.8450 N.ar   13  DG13       -0.2713
    260  C8        -9.7010    8.0820   -8.2160 C.ar   13  DG13        0.1816
    261  N7        -8.5100    8.3560   -8.6730 N.ar   13  DG13       -0.2173
    262  C5        -7.7290    8.4840   -7.5400 C.ar   13  DG13        0.1748
    263  C6        -6.3480    8.7790   -7.3980 C.ar   13  DG13        0.3023
    264  O6        -5.5150    8.9920   -8.2880 O.2    13  DG13       -0.2633
    265  N1        -5.9580    8.8150   -6.0620 N.ar   13  DG13       -0.1709
    266  C2        -6.7950    8.5950   -4.9940 C.ar   13  DG13        0.2606
    267  N2        -6.2350    8.6710   -3.7790 N.pl3  13  DG13       -0.0859
    268  N3        -8.0790    8.3200   -5.1100 N.ar   13  DG13       -0.1918
    269  C4        -8.4810    8.2810   -6.3990 C.ar   13  DG13        0.1722
    270  P        -13.0300   11.9240   -6.0980 P.3    14  DT14        0.2141
    271  OP1      -14.3770   12.5150   -5.9270 O.3    14  DT14       -0.4373
    272  OP2      -12.2930   12.1210   -7.3680 O.2    14  DT14       -0.5172
    273  O5'      -12.0180   12.4900   -4.9850 O.3    14  DT14       -0.3114
    274  C5'      -12.3640   12.5280   -3.6060 C.3    14  DT14        0.1811
    275  C4'      -11.1730   12.3530   -2.6880 C.3    14  DT14        0.1746
    276  O4'      -10.3410   11.2450   -3.1340 O.3    14  DT14       -0.3327
    277  C3'      -10.1720   13.4950   -2.6200 C.3    14  DT14        0.1558
    278  O3'      -10.5930   14.6250   -1.8820 O.3    14  DT14       -0.3138
    279  C2'       -8.9610   12.7980   -2.0220 C.3    14  DT14        0.0866
    280  C1'       -8.9820   11.5220   -2.8540 C.3    14  DT14        0.2106
    281  N1        -8.2780   11.6930   -4.1650 N.ar   14  DT14       -0.2559
    282  C2        -6.8960   11.6730   -4.1490 C.ar   14  DT14        0.3545
    283  O2        -6.2470   11.4570   -3.1410 O.2    14  DT14       -0.2443
    284  N3        -6.2980   11.9180   -5.3610 N.ar   14  DT14       -0.1533
    285  C4        -6.9280   12.1750   -6.5610 C.ar   14  DT14        0.2804
    286  O4        -6.2530   12.3750   -7.5680 O.2    14  DT14       -0.2654
    287  C5        -8.3620   12.1790   -6.4960 C.ar   14  DT14        0.0534
    288  C6        -8.9700   11.9450   -5.3300 C.ar   14  DT14        0.0824
    289  C7        -9.1390   12.4490   -7.7500 C.3    14  DT14        0.0377
    290  P        -10.1140   15.7290   -2.5460 P.3    15  DC15        0.2141
    291  OP1      -10.3310   16.5960   -1.3610 O.3    15  DC15       -0.4373
    292  OP2      -10.8830   15.9210   -3.7940 O.2    15  DC15       -0.5172
    293  O5'       -8.6050   15.8600   -3.0440 O.3    15  DC15       -0.3114
    294  C5'       -7.5340   15.8950   -2.1190 C.3    15  DC15        0.1811
    295  C4'       -6.2850   16.3460   -2.8240 C.3    15  DC15        0.1746
    296  O4'       -6.0050   15.4180   -3.9010 O.3    15  DC15       -0.3327
    297  C3'       -6.3900   17.6960   -3.5180 C.3    15  DC15        0.1558
    298  O3'       -6.1930   18.7990   -2.6520 O.3    15  DC15       -0.3138
    299  C2'       -5.3610   17.5920   -4.6330 C.3    15  DC15        0.0866
    300  C1'       -5.4470   16.1100   -4.9950 C.3    15  DC15        0.2106
    301  N1        -6.2740   15.9810   -6.1650 N.ar   15  DC15       -0.2556
    302  C2        -5.7530   16.3050   -7.4230 C.ar   15  DC15        0.3531
    303  O2        -4.5770   16.7010   -7.4990 O.2    15  DC15       -0.2443
    304  N3        -6.5420   16.1780   -8.5160 N.ar   15  DC15       -0.1739
    305  C4        -7.7990   15.7500   -8.3860 C.ar   15  DC15        0.1759
    306  N4        -8.5390   15.6410   -9.4920 N.pl3  15  DC15       -0.1070
    307  C5        -8.3460   15.4170   -7.1210 C.ar   15  DC15        0.0566
    308  C6        -7.5630   15.5430   -6.0430 C.ar   15  DC15        0.0849
    309  P         -7.3760   19.9700   -2.6630 P.3    16  DA16        0.2141
    310  OP1       -7.4750   20.7340   -1.4000 O.3    16  DA16       -0.4373
    311  OP2       -8.5880   19.3600   -3.2600 O.2    16  DA16       -0.5172
    312  O5'       -6.7120   20.9060   -3.7820 O.3    16  DA16       -0.3114
    313  C5'       -5.5230   21.6540   -3.5020 C.3    16  DA16        0.1811
    314  C4'       -4.7390   21.9180   -4.7770 C.3    16  DA16        0.1746
    315  O4'       -4.5920   20.6880   -5.5330 O.3    16  DA16       -0.3327
    316  C3'       -5.3780   22.8870   -5.7620 C.3    16  DA16        0.1558
    317  O3'       -5.0510   24.2130   -5.4160 O.3    16  DA16       -0.3138
    318  C2'       -4.6570   22.4990   -7.0350 C.3    16  DA16        0.0865
    319  C1'       -4.6230   20.9770   -6.9130 C.3    16  DA16        0.2094
    320  N9        -5.7220   20.3610   -7.5150 N.ar   16  DA16       -0.2714
    321  C8        -6.8060   19.8800   -6.8290 C.ar   16  DA16        0.1815
    322  N7        -7.7060   19.3090   -7.5940 N.ar   16  DA16       -0.2193
    323  C5        -7.1760   19.4230   -8.8700 C.ar   16  DA16        0.1518
    324  C6        -7.6470   19.0120  -10.1290 C.ar   16  DA16        0.1919
    325  N6        -8.8070   18.3770  -10.3140 N.pl3  16  DA16       -0.1054
    326  N1        -6.8760   19.2800  -11.2040 N.ar   16  DA16       -0.2040
    327  C2        -5.7130   19.9160  -11.0180 C.ar   16  DA16        0.2016
    328  N3        -5.1650   20.3500   -9.8860 N.ar   16  DA16       -0.2048
    329  C4        -5.9560   20.0700   -8.8370 C.ar   16  DA16        0.1691
    330  P         -6.0120   25.4670   -5.7050 P.3    17  DG17        0.2141
    331  OP1       -5.5680   26.6460   -4.9280 O.3    17  DG17       -0.4373
    332  OP2       -7.2520   24.7450   -5.3420 O.2    17  DG17       -0.5172
    333  O5'       -6.2250   25.8640   -7.2350 O.3    17  DG17       -0.3114
    334  C5'       -5.0840   25.7850   -8.0730 C.3    17  DG17        0.1811
    335  C4'       -5.4580   25.5120   -9.5060 C.3    17  DG17        0.1746
    336  O4'       -5.9960   24.1720   -9.6590 O.3    17  DG17       -0.3327
    337  C3'       -6.5400   26.3980  -10.1010 C.3    17  DG17        0.1558
    338  O3'       -6.0750   27.6970  -10.4340 O.3    17  DG17       -0.3138
    339  C2'       -6.9600   25.5750  -11.3090 C.3    17  DG17        0.0865
    340  C1'       -6.9130   24.1610  -10.7350 C.3    17  DG17        0.2094
    341  N9        -8.1600   23.6950  -10.3120 N.ar   17  DG17       -0.2713
    342  C8        -8.5050   23.5200   -8.9940 C.ar   17  DG17        0.1816
    343  N7        -9.7140   23.0540   -8.8350 N.ar   17  DG17       -0.2173
    344  C5       -10.1980   22.9110  -10.1220 C.ar   17  DG17        0.1748
    345  C6       -11.4550   22.4490  -10.5900 C.ar   17  DG17        0.3025
    346  O6       -12.4240   22.0610   -9.9250 O.2    17  DG17       -0.2633
    347  N1       -11.5320   22.4650  -11.9800 N.ar   17  DG17       -0.1696
    348  C2       -10.5210   22.8750  -12.8160 C.ar   17  DG17        0.2614
    349  N2       -10.7810   22.8170  -14.1300 N.4    17  DG17       -0.1419
    350  N3        -9.3480   23.3070  -12.3970 N.ar   17  DG17       -0.1905
    351  C4        -9.2520   23.3010  -11.0500 C.ar   17  DG17        0.1724
    352  P         -7.0050   28.9770  -10.3830 P.3    18  DA18        0.2141
    353  OP1       -6.5220   30.2280  -11.0080 O.2    18  DA18       -0.5172
    354  OP2       -7.4270   28.9470   -8.9650 O.3    18  DA18       -0.4373
    355  O5'       -8.2890   28.4630  -11.1830 O.3    18  DA18       -0.3114
    356  C5'       -8.2760   28.4450  -12.6030 C.3    18  DA18        0.1811
    357  C4'       -9.6810   28.5270  -13.1340 C.3    18  DA18        0.1746
    358  O4'      -10.3280   27.2370  -12.9820 O.3    18  DA18       -0.3327
    359  C3'      -10.5780   29.4980  -12.3840 C.3    18  DA18        0.1558
    360  O3'      -10.4370   30.8400  -12.8230 O.3    18  DA18       -0.3138
    361  C2'      -11.9640   28.9160  -12.6140 C.3    18  DA18        0.0865
    362  C1'      -11.6710   27.4150  -12.5880 C.3    18  DA18        0.2094
    363  N9       -11.8300   26.6510  -11.2780 N.ar   18  DA18       -0.2714
    364  C8       -10.8570   26.0560  -10.5180 C.ar   18  DA18        0.1815
    365  N7       -11.3190   25.4410   -9.4550 N.ar   18  DA18       -0.2193
    366  C5       -12.6880   25.6470   -9.5210 C.ar   18  DA18        0.1518
    367  C6       -13.7460   25.2460   -8.6870 C.ar   18  DA18        0.1919
    368  N6       -13.5790   24.5240   -7.5760 N.pl3  18  DA18       -0.1054
    369  N1       -14.9960   25.6180   -9.0370 N.ar   18  DA18       -0.2040
    370  C2       -15.1620   26.3410  -10.1510 C.ar   18  DA18        0.2016
    371  N3       -14.2480   26.7760  -11.0150 N.ar   18  DA18       -0.2048
    372  C4       -13.0170   26.3910  -10.6380 C.ar   18  DA18        0.1691
    373  P        -10.2840   32.0730  -11.6460 P.3    19  DT19        0.2141
    374  OP1       -9.8170   33.4490  -11.9230 O.2    19  DT19       -0.5172
    375  OP2       -9.5150   31.1950  -10.7350 O.3    19  DT19       -0.4373
    376  O5'      -11.7670   32.1140  -11.0290 O.3    19  DT19       -0.3114
    377  C5'      -12.8020   32.7790  -11.7440 C.3    19  DT19        0.1811
    378  C4'      -14.1850   32.5220  -11.1890 C.3    19  DT19        0.1746
    379  O4'      -14.4950   31.1050  -11.2120 O.3    19  DT19       -0.3327
    380  C3'      -14.4050   32.9000   -9.7380 C.3    19  DT19        0.1558
    381  O3'      -14.5740   34.2890   -9.5450 O.3    19  DT19       -0.3138
    382  C2'      -15.6280   32.0760   -9.3680 C.3    19  DT19        0.0866
    383  C1'      -15.3120   30.7810  -10.1050 C.3    19  DT19        0.2106
    384  N1       -14.5610   29.8490   -9.1540 N.ar   19  DT19       -0.2559
    385  C2       -15.2500   29.1780   -8.1620 C.ar   19  DT19        0.3545
    386  O2       -16.4210   29.3940   -7.9040 O.2    19  DT19       -0.2443
    387  N3       -14.5150   28.2420   -7.4750 N.ar   19  DT19       -0.1533
    388  C4       -13.1900   27.9150   -7.6780 C.ar   19  DT19        0.2804
    389  O4       -12.6670   27.0500   -6.9800 O.2    19  DT19       -0.2654
    390  C5       -12.5440   28.6550   -8.7250 C.ar   19  DT19        0.0534
    391  C6       -13.2350   29.5720   -9.4080 C.ar   19  DT19        0.0824
    392  C7       -11.1010   28.3720   -9.0220 C.3    19  DT19        0.0377
    393  P        -13.7190   34.8560   -8.4580 P.3    20  DG20        0.2141
    394  OP1      -13.6880   36.2150   -7.8770 O.3    20  DG20       -0.4373
    395  OP2      -12.6110   33.9370   -8.1350 O.2    20  DG20       -0.5172
    396  O5'      -15.1030   34.1820   -8.0620 O.3    20  DG20       -0.3114
    397  C5'      -16.2880   34.9460   -8.1030 C.3    20  DG20        0.1811
    398  C4'      -17.3230   34.3770   -7.1460 C.3    20  DG20        0.1746
    399  O4'      -17.3410   32.9320   -7.2140 O.3    20  DG20       -0.3327
    400  C3'      -17.0620   34.6260   -5.6730 C.3    20  DG20        0.1558
    401  O3'      -17.4610   35.9160   -5.2790 O.3    20  DG20       -0.3138
    402  C2'      -18.0130   33.6200   -5.0740 C.3    20  DG20        0.0865
    403  C1'      -17.7430   32.4230   -5.9600 C.3    20  DG20        0.2094
    404  N9       -16.7150   31.5360   -5.5040 N.ar   20  DG20       -0.2713
    405  C8       -15.4220   31.4690   -5.9640 C.ar   20  DG20        0.1816
    406  N7       -14.6920   30.5970   -5.3230 N.ar   20  DG20       -0.2173
    407  C5       -15.5500   30.0540   -4.3850 C.ar   20  DG20        0.1748
    408  C6       -15.3290   29.0590   -3.3990 C.ar   20  DG20        0.3023
    409  O6       -14.2860   28.4390   -3.1560 O.2    20  DG20       -0.2633
    410  N1       -16.4760   28.8030   -2.6520 N.ar   20  DG20       -0.1709
    411  C2       -17.6860   29.4290   -2.8330 C.ar   20  DG20        0.2606
    412  N2       -18.6770   29.0480   -2.0150 N.pl3  20  DG20       -0.0859
    413  N3       -17.9060   30.3560   -3.7440 N.ar   20  DG20       -0.1918
    414  C4       -16.8060   30.6210   -4.4810 C.ar   20  DG20        0.1722
    415  P        -16.8140   36.4020   -4.3720 P.3    21  DC21        0.2141
    416  OP1      -16.7120   37.8830   -4.4430 O.2    21  DC21       -0.5172
    417  OP2      -15.7840   35.6350   -3.6370 O.3    21  DC21       -0.4373
    418  O5'      -18.2200   35.9730   -3.7750 O.3    21  DC21       -0.3114
    419  C5'      -18.4870   36.2340   -2.4330 C.3    21  DC21        0.1811
    420  C4'      -19.0560   35.0260   -1.7500 C.3    21  DC21        0.1746
    421  O4'      -18.5830   33.7520   -2.2820 O.3    21  DC21       -0.3327
    422  C3'      -18.5980   34.9790   -0.3150 C.3    21  DC21        0.1558
    423  O3'      -19.1590   36.0060    0.4630 O.3    21  DC21       -0.3138
    424  C2'      -18.8760   33.5380    0.0750 C.3    21  DC21        0.0866
    425  C1'      -18.4850   32.8020   -1.2130 C.3    21  DC21        0.2106
    426  N1       -17.0340   32.3600   -1.0010 N.ar   21  DC21       -0.2556
    427  C2       -16.7650   31.3540   -0.0650 C.ar   21  DC21        0.3531
    428  O2       -17.6940   30.9380    0.6480 O.2    21  DC21       -0.2443
    429  N3       -15.5060   30.8680    0.0370 N.ar   21  DC21       -0.1739
    430  C4       -14.5400   31.3460   -0.7490 C.ar   21  DC21        0.1759
    431  N4       -13.3140   30.8360   -0.6120 N.pl3  21  DC21       -0.1070
    432  C5       -14.7920   32.3650   -1.7030 C.ar   21  DC21        0.0566
    433  C6       -16.0370   32.8420   -1.8010 C.ar   21  DC21        0.0849
    434  P        -18.2570   36.6900    1.3600 P.3    22  DG22        0.2141
    435  OP1      -19.0580   37.9020    1.7000 O.3    22  DG22       -0.4373
    436  OP2      -16.8940   36.8540    0.7760 O.2    22  DG22       -0.5172
    437  O5'      -18.1300   35.7370    2.6430 O.3    22  DG22       -0.3114
    438  C5'      -19.2820   35.1630    3.2800 C.3    22  DG22        0.1811
    439  C4'      -18.8700   34.0970    4.2770 C.3    22  DG22        0.1746
    440  O4'      -18.3020   32.9690    3.5590 O.3    22  DG22       -0.3327
    441  C3'      -17.8020   34.4720    5.2980 C.3    22  DG22        0.1558
    442  O3'      -18.2990   35.1490    6.4480 O.3    22  DG22       -0.3138
    443  C2'      -17.2120   33.1190    5.6720 C.3    22  DG22        0.0865
    444  C1'      -17.2980   32.3600    4.3470 C.3    22  DG22        0.2093
    445  N9       -16.0640   32.4810    3.6100 N.ar   22  DG22       -0.2728
    446  C8       -15.7860   33.3730    2.6030 C.ar   22  DG22        0.1814
    447  N7       -14.5500   33.3130    2.1880 N.ar   22  DG22       -0.2177
    448  C5       -13.9760   32.3230    2.9630 C.ar   22  DG22        0.1711
    449  C6       -12.6530   31.8090    2.9730 C.2    22  DG22        0.2986
    450  O6       -11.6950   32.1470    2.2670 O.2    22  DG22       -0.2655
    451  N1       -12.4920   30.8050    3.9230 N.am   22  DG22       -0.1040
    452  C2       -13.4830   30.3500    4.7600 C.1    22  DG22        0.1480
    453  N2       -13.1380   29.3740    5.6100 N.2    22  DG22       -0.0125
    454  N3       -14.7160   30.8180    4.7620 N.pl3  22  DG22       -0.1257
    455  C4       -14.8950   31.7950    3.8480 C.ar   22  DG22        0.1688
    456  P        -17.1630   35.9030    7.5670 P.3    23  DA23        0.2141
    457  OP1      -17.8970   36.5600    8.6850 O.3    23  DA23       -0.4373
    458  OP2      -16.2910   36.7180    6.6690 O.2    23  DA23       -0.5172
    459  O5'      -16.3100   34.7390    8.2330 O.3    23  DA23       -0.3114
    460  C5'      -16.9990   33.7580    8.9850 C.3    23  DA23        0.1811
    461  C4'      -16.0540   32.9670    9.8270 C.3    23  DA23        0.1746
    462  O4'      -15.2220   32.1540    8.9800 O.3    23  DA23       -0.3327
    463  C3'      -15.1330   33.7600   10.7250 C.3    23  DA23        0.1558
    464  O3'      -15.0840   32.9720   11.9030 O.3    23  DA23       -0.3138
    465  C2'      -13.8350   33.7900    9.9280 C.3    23  DA23        0.0865
    466  C1'      -13.8700   32.4320    9.2420 C.3    23  DA23        0.2094
    467  N9       -13.2120   32.2030    8.1400 N.ar   23  DA23       -0.2714
    468  C8       -13.2470   33.2510    7.2580 C.ar   23  DA23        0.1815
    469  N7       -12.1270   33.4250    6.5980 N.ar   23  DA23       -0.2193
    470  C5       -11.2990   32.4240    7.0800 C.ar   23  DA23        0.1518
    471  C6        -9.9720   32.0670    6.7800 C.ar   23  DA23        0.1919
    472  N6        -9.2190   32.7080    5.8830 N.pl3  23  DA23       -0.1054
    473  N1        -9.4410   31.0160    7.4410 N.ar   23  DA23       -0.2040
    474  C2       -10.1980   30.3730    8.3380 C.ar   23  DA23        0.2016
    475  N3       -11.4540   30.6140    8.7050 N.ar   23  DA23       -0.2048
    476  C4       -11.9530   31.6640    8.0310 C.ar   23  DA23        0.1691
    477  P        -13.9800   33.5370   13.5830 P.3    24  DT24        0.2141
    478  OP1      -14.5480   33.3140   14.9280 O.3    24  DT24       -0.4373
    479  OP2      -13.6180   34.9060   13.1510 O.2    24  DT24       -0.5172
    480  O5'      -12.6730   32.6300   13.4660 O.3    24  DT24       -0.3114
    481  C5'      -12.6290   31.3420   14.1140 C.3    24  DT24        0.1811
    482  C4'      -11.2620   30.7270   13.9740 C.3    24  DT24        0.1746
    483  O4'      -10.9570   30.5570   12.5660 O.3    24  DT24       -0.3327
    484  C3'      -10.1410   31.5840   14.5260 C.3    24  DT24        0.1558
    485  O3'       -9.9810   31.3670   15.9310 O.3    24  DT24       -0.3138
    486  C2'       -8.9440   31.1590   13.6820 C.3    24  DT24        0.0866
    487  C1'       -9.6060   30.8970   12.3270 C.3    24  DT24        0.2106
    488  N1        -9.5820   32.0210   11.3710 N.ar   24  DT24       -0.2559
    489  C2        -8.4360   32.1520   10.6100 C.ar   24  DT24        0.3545
    490  O2        -7.5330   31.3340   10.6240 O.2    24  DT24       -0.2443
    491  N3        -8.3840   33.2800    9.8280 N.ar   24  DT24       -0.1533
    492  C4        -9.3410   34.2690    9.7340 C.ar   24  DT24        0.2804
    493  O4        -9.1510   35.2250    8.9850 O.2    24  DT24       -0.2654
    494  C5       -10.5000   34.0620   10.5550 C.ar   24  DT24        0.0534
    495  C6       -10.5770   32.9730   11.3250 C.ar   24  DT24        0.0824
    496  C7       -11.5980   35.0840   10.5230 C.3    24  DT24        0.0377
    497  P         -9.2900   32.5800   16.9240 P.3    25  DC25        0.2141
    498  OP1       -9.4270   32.6820   18.4010 O.3    25  DC25       -0.4373
    499  OP2       -9.2640   33.8270   16.1150 O.2    25  DC25       -0.5172
    500  O5'       -8.0290   31.6620   16.5670 O.3    25  DC25       -0.3114
    501  C5'       -6.7400   31.9840   17.0470 C.3    25  DC25        0.1811
    502  C4'       -5.6680   31.6250   16.0400 C.3    25  DC25        0.1746
    503  O4'       -6.1950   31.4150   14.7020 O.3    25  DC25       -0.3327
    504  C3'       -4.6440   32.7320   15.8720 C.3    25  DC25        0.1558
    505  O3'       -3.6900   32.7220   16.9180 O.3    25  DC25       -0.3138
    506  C2'       -4.0570   32.4560   14.4950 C.3    25  DC25        0.0866
    507  C1'       -5.2860   31.9420   13.7440 C.3    25  DC25        0.2106
    508  N1        -5.9280   33.0270   12.9770 N.ar   25  DC25       -0.2556
    509  C2        -5.2670   33.6400   11.9060 C.ar   25  DC25        0.3531
    510  O2        -4.1350   33.2330   11.5910 O.2    25  DC25       -0.2443
    511  N3        -5.8760   34.6540   11.2480 N.ar   25  DC25       -0.1739
    512  C4        -7.0910   35.0580   11.6220 C.ar   25  DC25        0.1759
    513  N4        -7.6530   36.0610   10.9430 N.pl3  25  DC25       -0.1070
    514  C5        -7.7780   34.4500   12.7040 C.ar   25  DC25        0.0566
    515  C6        -7.1720   33.4490   13.3520 C.ar   25  DC25        0.0849
    516  P         -2.6760   34.4060   17.3750 P.3    26  DT26        0.2141
    517  OP1       -1.8750   34.5480   18.6120 O.3    26  DT26       -0.4373
    518  OP2       -4.1130   34.7620   17.3470 O.2    26  DT26       -0.5172
    519  O5'       -2.0450   35.3550   16.2520 O.3    26  DT26       -0.3114
    520  C5'       -0.6440   35.5800   16.1820 C.3    26  DT26        0.1811
    521  C4'       -0.2190   35.8210   14.7550 C.3    26  DT26        0.1746
    522  O4'       -1.3050   35.4100   13.8860 O.3    26  DT26       -0.3327
    523  C3'        0.0500   37.2620   14.3420 C.3    26  DT26        0.1558
    524  O3'        1.3540   37.7020   14.6790 O.3    26  DT26       -0.3138
    525  C2'       -0.1720   37.2020   12.8400 C.3    26  DT26        0.0866
    526  C1'       -1.3490   36.2340   12.7470 C.3    26  DT26        0.2106
    527  N1        -2.7250   36.9760   12.8570 N.ar   26  DT26       -0.2560
    528  C2        -3.1320   37.6940   11.7480 C.ar   26  DT26        0.3530
    529  O2        -2.4130   37.8940   10.7860 O.3    26  DT26       -0.2443
    530  N3        -4.4190   38.1720   11.8070 N.ar   26  DT26       -0.1535
    531  C4        -5.3190   38.0090   12.8390 C.ar   26  DT26        0.2804
    532  O4        -6.4420   38.4980   12.7450 O.2    26  DT26       -0.2654
    533  C5        -4.8210   37.2540   13.9540 C.ar   26  DT26        0.0534
    534  C6        -3.5740   36.7770   13.9240 C.ar   26  DT26        0.0824
    535  C7        -5.7250   37.0220   15.1280 C.3    26  DT26        0.0377
    536  P          1.9560   39.1580   14.4920 P.3    27  DG27        0.2141
    537  OP1        3.1280   38.6300   15.2260 O.3    27  DG27       -0.4373
    538  OP2        1.0490   40.1710   15.0830 O.2    27  DG27       -0.5172
    539  O5'        2.4700   39.8190   13.1240 O.3    27  DG27       -0.3114
    540  C5'        1.6450   39.7820   11.9590 C.3    27  DG27        0.1812
    541  C4'        2.4330   39.4960   10.7010 C.3    27  DG27        0.1775
    542  O4'        2.8450   38.1020   10.7280 O.3    27  DG27       -0.3326
    543  C3'        1.6560   39.6970    9.3980 C.3    27  DG27        0.1859
    544  O3'        2.2150   40.6850    8.5410 O.3    27  DG27       -0.2203
    545  C2'        1.6730   38.3540    8.6700 C.3    27  DG27        0.0895
    546  C1'        2.5500   37.4410    9.5110 C.3    27  DG27        0.2104
    547  N9         2.2960   36.1630    9.7130 N.ar   27  DG27       -0.2593
    548  C8         2.9370   34.9490    9.6730 C.ar   27  DG27        0.1826
    549  N7         2.1340   33.9360    9.8560 N.ar   27  DG27       -0.2149
    550  C5         0.8890   34.5120   10.0250 C.ar   27  DG27        0.2004
    551  C6        -0.3780   33.9190   10.2610 C.2    27  DG27        0.3265
    552  O6        -0.6530   32.7170   10.3700 O.2    27  DG27       -0.2506
    553  N1        -1.3870   34.8720   10.3720 N.am   27  DG27       -0.1133
    554  C2        -1.1980   36.2290   10.2680 C.2    27  DG27        0.4525
    555  N2        -2.2920   36.9900   10.4030 N.2    27  DG27        0.1239
    556  N3        -0.0270   36.7950   10.0500 N.pl3  27  DG27       -0.0175
    557  C4         0.9670   35.8890    9.9390 C.ar   27  DG27        0.2387
    558  P          0.3890   41.5110    6.8860 P.3    28  DG28        0.5411
    559  OP1        1.3690   42.5250    6.4330 O.2    28  DG28       -0.2272
    560  OP2       -0.7530   41.9070    7.7390 O.2    28  DG28       -0.2272
    561  O5'       -0.3120   40.7490    5.6590 O.3    28  DG28       -0.2722
    562  C5'        0.4380   40.0710    4.6620 C.3    28  DG28        0.1850
    563  C4'        0.4670   38.5750    4.8800 C.3    28  DG28        0.1748
    564  O4'        0.2420   38.2630    6.2760 O.3    28  DG28       -0.3327
    565  C3'       -0.5600   37.7280    4.1400 C.3    28  DG28        0.1558
    566  O3'       -0.1640   37.4890    2.7990 O.3    28  DG28       -0.3138
    567  C2'       -0.6040   36.4580    4.9810 C.3    28  DG28        0.0865
    568  C1'       -0.3620   36.9930    6.3900 C.3    28  DG28        0.2093
    569  N9        -1.6590   37.2820    6.7880 N.ar   28  DG28       -0.2735
    570  C8        -2.4810   38.2480    6.2600 C.ar   28  DG28        0.1814
    571  N7        -3.6640   38.2740    6.8110 N.ar   28  DG28       -0.2178
    572  C5        -3.6240   37.2700    7.7600 C.ar   28  DG28        0.1694
    573  C6        -4.6130   36.8210    8.6720 C.2    28  DG28        0.2903
    574  O6        -5.7660   37.2450    8.8220 O.2    28  DG28       -0.2664
    575  N1        -4.1550   35.7700    9.4610 N.am   28  DG28       -0.1346
    576  C2        -2.8980   35.2190    9.3820 C.3    28  DG28        0.3626
    577  N2        -2.6390   34.2130   10.2280 N.3    28  DG28       -0.0115
    578  N3        -1.9690   35.6250    8.5390 N.pl3  28  DG28       -0.1553
    579  C4        -2.3920   36.6440    7.7620 C.ar   28  DG28        0.1594
    580  P         -0.6500   36.2040    1.7710 P.3    29  DA29        0.2141
    581  OP1        0.4360   36.1170    0.7630 O.2    29  DA29       -0.5172
    582  OP2       -1.9730   36.7390    1.3590 O.3    29  DA29       -0.4373
    583  O5'       -0.8770   34.7730    2.5340 O.3    29  DA29       -0.3115
    584  C5'        0.0360   33.6370    2.5770 C.3    29  DA29        0.1785
    585  C4'       -0.0230   32.8790    3.9090 C.3    29  DA29        0.1473
    586  O4'       -0.6430   33.7120    4.9520 O.3    29  DA29       -0.3353
    587  C3'       -0.8070   31.5580    3.9460 C.3    29  DA29        0.0368
    588  O3'       -0.0310   30.3740    3.5290 O.3    29  DA29       -0.1670
    589  C2'       -1.3390   31.5200    5.4080 C.3    29  DA29        0.0566
    590  C1'       -1.5340   32.9810    5.8000 C.3    29  DA29        0.2069
    591  N9        -2.7380   33.4290    5.7390 N.ar   29  DA29       -0.2715
    592  C8        -3.2960   34.2970    4.8370 C.ar   29  DA29        0.1815
    593  N7        -4.5690   34.5330    5.0490 N.ar   29  DA29       -0.2193
    594  C5        -4.8680   33.7680    6.1650 C.ar   29  DA29        0.1518
    595  C6        -6.0560   33.5810    6.8940 C.ar   29  DA29        0.1919
    596  N6        -7.2110   34.1780    6.5910 N.pl3  29  DA29       -0.1054
    597  N1        -6.0150   32.7490    7.9560 N.ar   29  DA29       -0.2040
    598  C2        -4.8570   32.1520    8.2600 C.ar   29  DA29        0.2016
    599  N3        -3.6760   32.2490    7.6530 N.ar   29  DA29       -0.2048
    600  C4        -3.7500   33.0820    6.6010 C.ar   29  DA29        0.1691
    601  P         -0.5510   29.1290    3.4550 P.3    30  DT30        0.1980
    602  OP1        0.5620   30.0800    3.6880 O.3    30  DT30       -0.0310
    603  OP2       -0.2540   27.7870    2.8790 O.3    30  DT30        0.0000
    604  O5'       -1.2720   28.8490    4.8710 O.3    30  DT30       -0.2176
    605  C5'       -0.9380   27.6820    5.6360 C.3    30  DT30        0.2140
    606  C4'       -2.1430   27.1740    6.4100 C.3    30  DT30        0.1776
    607  O4'       -2.6810   28.2320    7.2310 O.3    30  DT30       -0.3326
    608  C3'       -3.3620   26.6630    5.6420 C.3    30  DT30        0.1559
    609  O3'       -3.2160   25.3030    5.2290 O.3    30  DT30       -0.3138
    610  C2'       -4.4200   26.7280    6.7200 C.3    30  DT30        0.0866
    611  C1'       -4.0680   28.0250    7.4370 C.3    30  DT30        0.2106
    612  N1        -4.8620   29.1420    6.5480 N.ar   30  DT30       -0.2559
    613  C2        -6.0770   29.5410    7.0700 C.ar   30  DT30        0.3545
    614  O2        -6.4840   29.1790    8.1600 O.2    30  DT30       -0.2443
    615  N3        -6.8060   30.3850    6.2660 N.ar   30  DT30       -0.1533
    616  C4        -6.4480   30.8580    5.0210 C.ar   30  DT30        0.2804
    617  O4        -7.2090   31.6120    4.4190 O.2    30  DT30       -0.2654
    618  C5        -5.1730   30.3970    4.5480 C.ar   30  DT30        0.0534
    619  C6        -4.4440   29.5770    5.3090 C.ar   30  DT30        0.0824
    620  C7        -4.6950   30.8560    3.2020 C.3    30  DT30        0.0377
    621  P         -4.2060   24.7200    4.3000 P.3    31  DA31        0.2141
    622  OP1       -3.7570   23.5770    3.4740 O.2    31  DA31       -0.5172
    623  OP2       -4.3760   26.0550    3.6790 O.3    31  DA31       -0.4373
    624  O5'       -5.6430   24.3920    4.9330 O.3    31  DA31       -0.3114
    625  C5'       -5.9060   23.1610    5.5990 C.3    31  DA31        0.1811
    626  C4'       -6.9360   23.3210    6.6940 C.3    31  DA31        0.1744
    627  O4'       -6.9790   24.7110    7.1190 O.3    31  DA31       -0.3349
    628  C3'       -8.3820   23.0310    6.3200 C.3    31  DA31        0.1555
    629  O3'       -8.7070   21.6540    6.2800 O.3    31  DA31       -0.3139
    630  C2'       -9.1360   23.8120    7.3870 C.3    31  DA31        0.0835
    631  C1'       -8.3130   25.0940    7.3810 C.3    31  DA31        0.1974
    632  N9        -8.8160   26.0630    6.3750 N.pl3  31  DA31       -0.2458
    633  C8        -8.1050   26.5140    5.2930 C.2    31  DA31        0.1669
    634  N7        -8.6780   27.5110    4.6630 N.2    31  DA31       -0.2209
    635  C5        -9.8450   27.7300    5.3780 C.2    31  DA31        0.1887
    636  C6       -10.8930   28.6530    5.2200 C.2    31  DA31        0.4115
    637  N6       -10.9330   29.5670    4.2470 N.pl3  31  DA31        0.2140
    638  N1       -11.9110   28.6050    6.1060 N.pl3  31  DA31       -0.0204
    639  C2       -11.8700   27.6890    7.0810 C.2    31  DA31        0.3068
    640  N3       -10.9400   26.7710    7.3330 N.2    31  DA31       -0.2039
    641  C4        -9.9440   26.8440    6.4350 C.3    31  DA31        0.2331
    642  P         -9.6790   21.1300    5.2770 P.3    32  DT32        0.2141
    643  OP1       -9.7030   19.7350    5.7680 O.3    32  DT32       -0.4373
    644  OP2       -9.2800   21.4040    3.8800 O.2    32  DT32       -0.5172
    645  O5'      -11.1550   21.7380    5.3560 O.3    32  DT32       -0.3114
    646  C5'      -11.8860   21.6580    6.5680 C.3    32  DT32        0.1811
    647  C4'      -12.9700   22.7030    6.6390 C.3    32  DT32        0.1746
    648  O4'      -12.3920   24.0330    6.6270 O.3    32  DT32       -0.3327
    649  C3'      -13.9180   22.7450    5.4590 C.3    32  DT32        0.1558
    650  O3'      -14.8710   21.7040    5.4830 O.3    32  DT32       -0.3138
    651  C2'      -14.5070   24.1410    5.5890 C.3    32  DT32        0.0866
    652  C1'      -13.2520   24.9260    5.9530 C.3    32  DT32        0.2106
    653  N1       -12.5670   25.4600    4.7670 N.ar   32  DT32       -0.2559
    654  C2       -13.1350   26.4700    4.0130 C.ar   32  DT32        0.3545
    655  O2       -14.2710   26.8720    4.1910 O.2    32  DT32       -0.2443
    656  N3       -12.3210   26.9950    3.0380 N.ar   32  DT32       -0.1533
    657  C4       -11.0260   26.6200    2.7470 C.ar   32  DT32        0.2804
    658  O4       -10.4220   27.1860    1.8400 O.2    32  DT32       -0.2654
    659  C5       -10.5080   25.5650    3.5720 C.ar   32  DT32        0.0534
    660  C6       -11.2780   25.0370    4.5280 C.ar   32  DT32        0.0824
    661  C7        -9.1070   25.0860    3.3330 C.3    32  DT32        0.0377
    662  P        -14.8480   20.7540    4.2440 P.3    33  DT33        0.2141
    663  OP1      -15.6030   19.4920    4.4470 O.3    33  DT33       -0.4373
    664  OP2      -13.6350   20.7560    3.3870 O.2    33  DT33       -0.5172
    665  O5'      -15.8700   21.8400    3.6860 O.3    33  DT33       -0.3114
    666  C5'      -17.0150   22.2260    4.4660 C.3    33  DT33        0.1811
    667  C4'      -17.7470   23.3750    3.8130 C.3    33  DT33        0.1746
    668  O4'      -16.8860   24.5410    3.7120 O.3    33  DT33       -0.3327
    669  C3'      -18.2260   23.1320    2.3930 C.3    33  DT33        0.1558
    670  O3'      -19.4540   22.4190    2.3710 O.3    33  DT33       -0.3138
    671  C2'      -18.3670   24.5460    1.8470 C.3    33  DT33        0.0866
    672  C1'      -17.1980   25.2590    2.5290 C.3    33  DT33        0.2106
    673  N1       -15.9810   25.2010    1.6030 N.ar   33  DT33       -0.2559
    674  C2       -15.9440   26.1650    0.6130 C.ar   33  DT33        0.3545
    675  O2       -16.8570   26.9460    0.4110 O.2    33  DT33       -0.2443
    676  N3       -14.7930   26.1820   -0.1370 N.ar   33  DT33       -0.1533
    677  C4       -13.7010   25.3510   -0.0000 C.ar   33  DT33        0.2804
    678  O4       -12.7370   25.4890   -0.7500 O.2    33  DT33       -0.2654
    679  C5       -13.8160   24.3770    1.0480 C.ar   33  DT33        0.0534
    680  C6       -14.9250   24.3380    1.7930 C.ar   33  DT33        0.0824
    681  C7       -12.6790   23.4260    1.2760 C.3    33  DT33        0.0377
    682  P        -19.8850   21.7730    1.1150 P.3    34  DA34        0.2141
    683  OP1      -21.2110   21.1620    1.3600 O.3    34  DA34       -0.4373
    684  OP2      -18.8410   21.0330    0.3690 O.2    34  DA34       -0.5172
    685  O5'      -20.0740   23.1240    0.2790 O.3    34  DA34       -0.3114
    686  C5'      -21.2850   23.8620    0.3320 C.3    34  DA34        0.1811
    687  C4'      -21.5580   24.5190   -0.9960 C.3    34  DA34        0.1746
    688  O4'      -20.6150   25.6030   -1.2070 O.3    34  DA34       -0.3327
    689  C3'      -21.3480   23.6350   -2.2150 C.3    34  DA34        0.1558
    690  O3'      -22.4040   22.7250   -2.4680 O.3    34  DA34       -0.3138
    691  C2'      -21.1300   24.6610   -3.3180 C.3    34  DA34        0.0865
    692  C1'      -20.2700   25.6800   -2.5750 C.3    34  DA34        0.2094
    693  N9       -18.8020   25.4190   -2.7080 N.ar   34  DA34       -0.2714
    694  C8       -17.9340   24.6010   -2.0340 C.ar   34  DA34        0.1815
    695  N7       -16.7300   24.5640   -2.5540 N.ar   34  DA34       -0.2193
    696  C5       -16.8130   25.4150   -3.6450 C.ar   34  DA34        0.1518
    697  C6       -15.8720   25.8090   -4.6120 C.ar   34  DA34        0.1919
    698  N6       -14.6090   25.3770   -4.6330 N.pl3  34  DA34       -0.1054
    699  N1       -16.2790   26.6710   -5.5680 N.ar   34  DA34       -0.2040
    700  C2       -17.5440   27.1040   -5.5450 C.ar   34  DA34        0.2016
    701  N3       -18.5190   26.8080   -4.6890 N.ar   34  DA34       -0.2048
    702  C4       -18.0840   25.9480   -3.7530 C.ar   34  DA34        0.1691
    703  P        -21.9180   21.1150   -3.0410 P.3    35  DT35        0.2141
    704  OP1      -23.0320   20.1970   -2.7960 O.3    35  DT35       -0.4373
    705  OP2      -20.5050   20.6420   -2.9840 O.2    35  DT35       -0.5172
    706  O5'      -22.1380   21.8190   -4.4480 O.3    35  DT35       -0.3114
    707  C5'      -23.3400   22.2280   -4.9570 C.3    35  DT35        0.1811
    708  C4'      -23.0280   23.0820   -6.1580 C.3    35  DT35        0.1746
    709  O4'      -22.0270   24.0840   -5.8550 O.3    35  DT35       -0.3327
    710  C3'      -22.3850   22.3530   -7.3100 C.3    35  DT35        0.1558
    711  O3'      -23.4010   21.7400   -7.9980 O.3    35  DT35       -0.3138
    712  C2'      -21.7450   23.4870   -8.1000 C.3    35  DT35        0.0866
    713  C1'      -21.2390   24.3700   -7.0060 C.3    35  DT35        0.2106
    714  N1       -19.8620   24.0260   -6.8770 N.ar   35  DT35       -0.2559
    715  C2       -18.9300   24.7390   -7.6070 C.ar   35  DT35        0.3545
    716  O2       -19.2350   25.5970   -8.4160 O.2    35  DT35       -0.2443
    717  N3       -17.6200   24.4080   -7.3580 N.ar   35  DT35       -0.1533
    718  C4       -17.1580   23.4580   -6.4710 C.ar   35  DT35        0.2804
    719  O4       -15.9490   23.2750   -6.3560 O.2    35  DT35       -0.2654
    720  C5       -18.1860   22.7600   -5.7510 C.ar   35  DT35        0.0534
    721  C6       -19.4680   23.0620   -5.9750 C.ar   35  DT35        0.0824
    722  C7       -17.7840   21.7060   -4.7620 C.3    35  DT35        0.0377
    723  P        -23.1630   20.4290   -8.8100 P.3    36  DT36        0.2141
    724  OP1      -24.2020   19.3810   -8.9220 O.2    36  DT36       -0.5172
    725  OP2      -21.7360   20.0390   -8.7470 O.3    36  DT36       -0.4373
    726  O5'      -23.2420   21.4770  -10.0270 O.3    36  DT36       -0.3114
    727  C5'      -22.7380   21.1990  -11.3320 C.3    36  DT36        0.1811
    728  C4'      -22.0760   22.4070  -11.9580 C.3    36  DT36        0.1746
    729  O4'      -21.2860   23.0910  -10.9470 O.3    36  DT36       -0.3327
    730  C3'      -21.0870   22.1290  -13.0880 C.3    36  DT36        0.1558
    731  O3'      -21.6790   21.9630  -14.3680 O.3    36  DT36       -0.3138
    732  C2'      -20.1280   23.3120  -13.0180 C.3    36  DT36        0.0866
    733  C1'      -20.0940   23.5970  -11.5120 C.3    36  DT36        0.2106
    734  N1       -18.8800   23.0310  -10.8430 N.ar   36  DT36       -0.2559
    735  C2       -17.6710   23.6890  -10.9720 C.ar   36  DT36        0.3545
    736  O2       -17.5090   24.6400  -11.7170 O.2    36  DT36       -0.2443
    737  N3       -16.6530   23.1920  -10.1950 N.ar   36  DT36       -0.1533
    738  C4       -16.7200   22.1270   -9.3220 C.ar   36  DT36        0.2804
    739  O4       -15.7190   21.7980   -8.6910 O.2    36  DT36       -0.2654
    740  C5       -18.0080   21.4950   -9.2450 C.ar   36  DT36        0.0534
    741  C6       -19.0150   21.9590   -9.9890 C.ar   36  DT36        0.0824
    742  C7       -18.1830   20.3250   -8.3230 C.3    36  DT36        0.0377
    743  P        -20.9870   21.0370  -15.4000 P.3    37  DT37        0.2141
    744  OP1      -21.5700   21.1570  -16.7560 O.2    37  DT37       -0.5172
    745  OP2      -20.8280   19.7170  -14.7520 O.3    37  DT37       -0.4373
    746  O5'      -19.5130   21.6540  -15.4070 O.3    37  DT37       -0.3114
    747  C5'      -19.3690   23.0060  -15.8040 C.3    37  DT37        0.1811
    748  C4'      -17.9220   23.3930  -15.9440 C.3    37  DT37        0.1746
    749  O4'      -17.3860   23.7690  -14.6530 O.3    37  DT37       -0.3327
    750  C3'      -16.9920   22.3040  -16.4530 C.3    37  DT37        0.1558
    751  O3'      -16.9990   22.2140  -17.8660 O.3    37  DT37       -0.3138
    752  C2'      -15.6440   22.7200  -15.8800 C.3    37  DT37        0.0866
    753  C1'      -16.0460   23.3460  -14.5440 C.3    37  DT37        0.2106
    754  N1       -16.0210   22.4470  -13.3910 N.ar   37  DT37       -0.2559
    755  C2       -14.7750   22.3780  -12.8000 C.ar   37  DT37        0.3545
    756  O2       -13.8610   23.1310  -13.0860 O.2    37  DT37       -0.2443
    757  N3       -14.6330   21.3890  -11.8560 N.ar   37  DT37       -0.1533
    758  C4       -15.5920   20.4820  -11.4550 C.ar   37  DT37        0.2804
    759  O4       -15.3150   19.6510  -10.5930 O.2    37  DT37       -0.2654
    760  C5       -16.8590   20.6180  -12.1160 C.ar   37  DT37        0.0534
    761  C6       -17.0240   21.5710  -13.0370 C.ar   37  DT37        0.0824
    762  C7       -17.9680   19.6770  -11.7490 C.3    37  DT37        0.0377
    763  P        -16.4880   20.8870  -18.6450 P.3    38  DT38        0.2141
    764  OP1      -16.8400   20.7490  -20.0700 O.2    38  DT38       -0.5172
    765  OP2      -16.9620   19.8660  -17.6810 O.3    38  DT38       -0.4373
    766  O5'      -14.9050   20.9340  -18.4640 O.3    38  DT38       -0.3114
    767  C5'      -14.0780   21.7300  -19.3280 C.3    38  DT38        0.1811
    768  C4'      -12.7110   21.9500  -18.7100 C.3    38  DT38        0.1744
    769  O4'      -12.8750   22.3200  -17.3160 O.3    38  DT38       -0.3348
    770  C3'      -11.7370   20.7820  -18.6210 C.3    38  DT38        0.1555
    771  O3'      -11.0540   20.5690  -19.8600 O.3    38  DT38       -0.3139
    772  C2'      -10.7440   21.3190  -17.5970 C.3    38  DT38        0.0836
    773  C1'      -11.6660   22.0660  -16.6280 C.3    38  DT38        0.1990
    774  N1       -11.9610   21.2880  -15.3910 N.pl3  38  DT38       -0.2284
    775  C2       -11.0400   21.2930  -14.3600 C.3    38  DT38        0.3660
    776  O2        -9.9520   21.8340  -14.4460 O.3    38  DT38       -0.1930
    777  N3       -11.4400   20.6390  -13.2200 N.am   38  DT38       -0.1373
    778  C4       -12.6420   19.9950  -13.0110 C.2    38  DT38        0.2668
    779  O4       -12.8570   19.4520  -11.9310 O.2    38  DT38       -0.2685
    780  C5       -13.5440   20.0330  -14.1280 C.2    38  DT38        0.0480
    781  C6       -13.1800   20.6620  -15.2490 C.2    38  DT38        0.0682
    782  C7       -14.8780   19.3600  -14.0000 C.3    38  DT38        0.0372
    783  P        -10.6630   18.9630  -20.3230 P.3    39  DT39        0.2141
    784  OP1      -10.5360   18.8410  -21.7920 O.2    39  DT39       -0.5172
    785  OP2      -11.4750   18.0170  -19.5140 O.3    39  DT39       -0.4373
    786  O5'       -9.1860   18.8590  -19.7150 O.3    39  DT39       -0.3114
    787  C5'       -8.1110   19.4780  -20.4000 C.3    39  DT39        0.1811
    788  C4'       -6.9140   19.6710  -19.5010 C.3    39  DT39        0.1746
    789  O4'       -7.3390   20.2040  -18.2210 O.3    39  DT39       -0.3327
    790  C3'       -6.1310   18.4180  -19.1420 C.3    39  DT39        0.1558
    791  O3'       -5.2190   18.0450  -20.1590 O.3    39  DT39       -0.3138
    792  C2'       -5.4460   18.8140  -17.8420 C.3    39  DT39        0.0866
    793  C1'       -6.4980   19.7170  -17.1990 C.3    39  DT39        0.2106
    794  N1        -7.3040   19.0480  -16.2110 N.ar   39  DT39       -0.2559
    795  C2        -6.8800   19.0550  -14.8960 C.ar   39  DT39        0.3545
    796  O2        -5.8570   19.6070  -14.5310 O.2    39  DT39       -0.2443
    797  N3        -7.7010   18.3890  -14.0180 N.ar   39  DT39       -0.1533
    798  C4        -8.8760   17.7320  -14.3160 C.ar   39  DT39        0.2804
    799  O4        -9.5050   17.1790  -13.4170 O.2    39  DT39       -0.2654
    800  C5        -9.2480   17.7690  -15.7020 C.ar   39  DT39        0.0534
    801  C6        -8.4690   18.4090  -16.5780 C.ar   39  DT39        0.0824
    802  C7       -10.5120   17.0820  -16.1270 C.3    39  DT39        0.0377
    803  P         -4.9590   16.4260  -20.4970 P.3    40  DG40        0.2141
    804  OP1       -4.2980   16.5700  -21.8270 O.2    40  DG40       -0.5172
    805  OP2       -5.7840   15.2290  -20.1820 O.3    40  DG40       -0.4373
    806  O5'       -3.8900   16.4840  -19.2820 O.3    40  DG40       -0.3114
    807  C5'       -2.8700   17.4700  -19.3230 C.3    40  DG40        0.1811
    808  C4'       -2.5510   18.0380  -17.9610 C.3    40  DG40        0.1746
    809  O4'       -3.7450   18.3310  -17.1790 O.3    40  DG40       -0.3327
    810  C3'       -1.8040   17.1110  -17.0410 C.3    40  DG40        0.1558
    811  O3'       -0.4750   16.9920  -17.4200 O.3    40  DG40       -0.3138
    812  C2'       -1.9140   17.8930  -15.7450 C.3    40  DG40        0.0865
    813  C1'       -3.3880   18.2800  -15.8060 C.3    40  DG40        0.2094
    814  N9        -4.0710   17.2190  -15.0890 N.ar   40  DG40       -0.2713
    815  C8        -4.9490   16.4270  -15.7890 C.ar   40  DG40        0.1816
    816  N7        -5.8030   15.8040  -15.0230 N.ar   40  DG40       -0.2173
    817  C5        -5.4740   16.2080  -13.7430 C.ar   40  DG40        0.1748
    818  C6        -6.0470   15.8650  -12.4910 C.ar   40  DG40        0.3023
    819  O6        -6.9970   15.1050  -12.2650 O.2    40  DG40       -0.2633
    820  N1        -5.4050   16.5020  -11.4330 N.ar   40  DG40       -0.1709
    821  C2        -4.3420   17.3640  -11.5640 C.ar   40  DG40        0.2606
    822  N2        -3.8570   17.8820  -10.4280 N.pl3  40  DG40       -0.0859
    823  N3        -3.7990   17.6910  -12.7200 N.ar   40  DG40       -0.1918
    824  C4        -4.4060   17.0840  -13.7620 C.ar   40  DG40        0.1722
    825  P          0.2680   15.6090  -17.1280 P.3    41  DA41        0.2141
    826  OP1        1.7110   15.2890  -17.1260 O.3    41  DA41       -0.4373
    827  OP2       -0.6820   14.5340  -17.4740 O.2    41  DA41       -0.5172
    828  O5'       -0.1060   16.2120  -15.7050 O.3    41  DA41       -0.3114
    829  C5'        0.7730   17.1220  -15.0810 C.3    41  DA41        0.1811
    830  C4'        0.5910   17.0890  -13.5720 C.3    41  DA41        0.1746
    831  O4'       -0.8130   17.0220  -13.2290 O.3    41  DA41       -0.3327
    832  C3'        1.1520   15.8680  -12.8690 C.3    41  DA41        0.1558
    833  O3'        2.5400   15.9720  -12.6630 O.3    41  DA41       -0.3138
    834  C2'        0.4520   15.9970  -11.5390 C.3    41  DA41        0.0865
    835  C1'       -0.9480   16.3460  -11.9970 C.3    41  DA41        0.2094
    836  N9        -1.8370   15.1320  -12.3640 N.ar   41  DA41       -0.2714
    837  C8        -2.0000   14.4260  -13.5270 C.ar   41  DA41        0.1815
    838  N7        -2.7990   13.3920  -13.4100 N.ar   41  DA41       -0.2193
    839  C5        -3.1860   13.4200  -12.0800 C.ar   41  DA41        0.1518
    840  C6        -4.0320   12.5910  -11.3230 C.ar   41  DA41        0.1919
    841  N6        -4.6650   11.5270  -11.8230 N.pl3  41  DA41       -0.1054
    842  N1        -4.2060   12.8960  -10.0190 N.ar   41  DA41       -0.2040
    843  C2        -3.5720   13.9630   -9.5190 C.ar   41  DA41        0.2016
    844  N3        -2.7540   14.8170  -10.1300 N.ar   41  DA41       -0.2048
    845  C4        -2.6010   14.4860  -11.4230 C.ar   41  DA41        0.1691
    846  P          3.3320   14.7000  -12.7770 P.3    42  DT42        0.2141
    847  OP1        4.5520   15.5090  -13.0460 O.3    42  DT42       -0.4373
    848  OP2        3.1260   13.4360  -13.5210 O.2    42  DT42       -0.5172
    849  O5'        3.2680   14.3740  -11.2170 O.3    42  DT42       -0.3114
    850  C5'        3.2880   15.4290  -10.2440 C.3    42  DT42        0.1811
    851  C4'        2.5300   15.0110   -9.0090 C.3    42  DT42        0.1751
    852  O4'        1.1290   14.8340   -9.3420 O.3    42  DT42       -0.3323
    853  C3'        2.9490   13.6780   -8.4130 C.3    42  DT42        0.1627
    854  O3'        4.1000   13.8190   -7.5860 O.3    42  DT42       -0.3134
    855  C2'        1.6950   13.2560   -7.6560 C.3    42  DT42        0.1365
    856  C1'        0.6000   13.7350   -8.6120 C.3    42  DT42        0.2177
    857  N1         0.1120   12.8280   -9.5640 N.ar   42  DT42       -0.2555
    858  C2        -0.8610   11.9060   -9.2290 C.ar   42  DT42        0.3545
    859  O2        -1.3370   11.8190   -8.1110 O.2    42  DT42       -0.2443
    860  N3        -1.2600   11.0830  -10.2540 N.ar   42  DT42       -0.1533
    861  C4        -0.7930   11.0890  -11.5520 C.ar   42  DT42        0.2804
    862  O4        -1.2500   10.2870  -12.3630 O.2    42  DT42       -0.2654
    863  C5         0.2170   12.0740  -11.8210 C.ar   42  DT42        0.0534
    864  C6         0.6230   12.8870  -10.8420 C.ar   42  DT42        0.0824
    865  C7         0.7890   12.1600  -13.2050 C.3    42  DT42        0.0377
    866  P          5.1360   12.5050   -7.3870 P.3    43  DA43        0.2141
    867  OP1        5.8910   13.7690   -7.3110 O.3    43  DA43       -0.4373
    868  OP2        5.8660   11.2210   -7.5150 O.2    43  DA43       -0.5172
    869  O5'        4.2120   12.4070   -6.1030 O.3    43  DA43       -0.3114
    870  C5'        4.7380   12.7120   -4.8180 C.3    43  DA43        0.1811
    871  C4'        3.6630   12.5910   -3.7770 C.3    43  DA43        0.1746
    872  O4'        2.5880   13.5260   -4.0590 O.3    43  DA43       -0.3327
    873  C3'        2.9520   11.2550   -3.6840 C.3    43  DA43        0.1558
    874  O3'        3.7460   10.3160   -2.9700 O.3    43  DA43       -0.3138
    875  C2'        1.7070   11.6560   -2.9080 C.3    43  DA43        0.0865
    876  C1'        1.3690   12.9980   -3.5670 C.3    43  DA43        0.2091
    877  N9         0.4640   12.8190   -4.6770 N.ar   43  DA43       -0.2772
    878  C8         0.7650   12.8280   -6.0140 C.ar   43  DA43        0.1297
    879  N7        -0.2660   12.5940   -6.7900 N.ar   43  DA43       -0.2261
    880  C5        -1.3160   12.4180   -5.9030 C.ar   43  DA43        0.1513
    881  C6        -2.6810   12.1390   -6.0960 C.ar   43  DA43        0.1919
    882  N6        -3.2410   11.9850   -7.2980 N.pl3  43  DA43       -0.1054
    883  N1        -3.4580   12.0240   -4.9980 N.ar   43  DA43       -0.2040
    884  C2        -2.8950   12.1800   -3.7940 C.ar   43  DA43        0.2016
    885  N3        -1.6280   12.4440   -3.4860 N.ar   43  DA43       -0.2048
    886  C4        -0.8820   12.5520   -4.5980 C.ar   43  DA43        0.1688
    887  P          3.4710    8.7220   -3.0520 P.3    44  DC44        0.2141
    888  OP1        4.8590    8.2300   -2.8810 O.3    44  DC44       -0.4373
    889  OP2        2.8090    8.7260   -4.3860 O.2    44  DC44       -0.5172
    890  O5'        2.5080    7.9390   -2.0250 O.3    44  DC44       -0.3114
    891  C5'        2.1410    8.5060   -0.7700 C.3    44  DC44        0.1811
    892  C4'        0.6330    8.5540   -0.6020 C.3    44  DC44        0.1746
    893  O4'        0.0600    9.6350   -1.3840 O.3    44  DC44       -0.3327
    894  C3'       -0.1340    7.3510   -1.1220 C.3    44  DC44        0.1558
    895  O3'       -0.0070    6.2000   -0.2790 O.3    44  DC44       -0.3138
    896  C2'       -1.5470    7.9260   -1.1050 C.3    44  DC44        0.0866
    897  C1'       -1.3030    9.3330   -1.6410 C.3    44  DC44        0.2106
    898  N1        -1.6260    9.3200   -3.0760 N.ar   44  DC44       -0.2556
    899  C2        -2.9520    9.3530   -3.5250 C.ar   44  DC44        0.3531
    900  O2        -3.8660    9.4140   -2.6850 O.2    44  DC44       -0.2443
    901  N3        -3.1990    9.3170   -4.8560 N.ar   44  DC44       -0.1739
    902  C4        -2.1860    9.2500   -5.7210 C.ar   44  DC44        0.1759
    903  N4        -2.4780    9.2170   -7.0230 N.pl3  44  DC44       -0.1070
    904  C5        -0.8360    9.2160   -5.2870 C.ar   44  DC44        0.0566
    905  C6        -0.5960    9.2520   -3.9710 C.ar   44  DC44        0.0849
    906  P         -0.3530    4.6510   -0.8950 P.3    45  DC45        0.2141
    907  OP1        0.7120    4.3280    0.0830 O.3    45  DC45       -0.4373
    908  OP2       -0.1130    4.4510   -2.3430 O.2    45  DC45       -0.5172
    909  O5'       -1.6720    3.8750   -0.4690 O.3    45  DC45       -0.3114
    910  C5'       -2.4020    4.3330    0.6820 C.3    45  DC45        0.1811
    911  C4'       -3.7590    4.8850    0.2930 C.3    45  DC45        0.1746
    912  O4'       -3.6680    5.8940   -0.7510 O.3    45  DC45       -0.3327
    913  C3'       -4.7340    3.8970   -0.3000 C.3    45  DC45        0.1558
    914  O3'       -5.2440    3.0470    0.7060 O.3    45  DC45       -0.3138
    915  C2'       -5.7890    4.8270   -0.8890 C.3    45  DC45        0.0866
    916  C1'       -4.9060    5.9400   -1.4600 C.3    45  DC45        0.2106
    917  N1        -4.6080    5.6280   -2.8410 N.ar   45  DC45       -0.2556
    918  C2        -5.5560    5.6330   -3.8710 C.ar   45  DC45        0.3531
    919  O2        -6.7600    5.7290   -3.5750 O.2    45  DC45       -0.2443
    920  N3        -5.1360    5.5320   -5.1540 N.ar   45  DC45       -0.1739
    921  C4        -3.8340    5.4300   -5.4230 C.ar   45  DC45        0.1759
    922  N4        -3.4660    5.3330   -6.7030 N.pl3  45  DC45       -0.1070
    923  C5        -2.8580    5.4230   -4.3940 C.ar   45  DC45        0.0566
    924  C6        -3.2770    5.5230   -3.1280 C.ar   45  DC45        0.0849
    925  P         -5.6880    1.3870    0.3530 P.3    46  DC46        0.2141
    926  OP1       -5.9770    0.5350    1.5280 O.3    46  DC46       -0.4373
    927  OP2       -4.4630    1.1200   -0.4280 O.2    46  DC46       -0.5172
    928  O5'       -6.9140    1.3440   -0.6790 O.3    46  DC46       -0.3114
    929  C5'       -8.2740    1.2340   -0.2460 C.3    46  DC46        0.1811
    930  C4'       -9.2300    1.3530   -1.4160 C.3    46  DC46        0.1746
    931  O4'       -8.8630    2.5110   -2.2120 O.3    46  DC46       -0.3327
    932  C3'       -9.1670    0.2110   -2.4200 C.3    46  DC46        0.1558
    933  O3'       -9.8920   -0.9420   -2.0180 O.3    46  DC46       -0.3138
    934  C2'       -9.7390    0.8750   -3.6710 C.3    46  DC46        0.0866
    935  C1'       -9.0350    2.2260   -3.5950 C.3    46  DC46        0.2106
    936  N1        -7.7250    2.1560   -4.2810 N.ar   46  DC46       -0.2556
    937  C2        -7.6580    2.1080   -5.6780 C.ar   46  DC46        0.3531
    938  O2        -8.7180    2.0780   -6.3270 O.2    46  DC46       -0.2443
    939  N3        -6.4450    2.0950   -6.2810 N.ar   46  DC46       -0.1739
    940  C4        -5.3340    2.1270   -5.5440 C.ar   46  DC46        0.1759
    941  N4        -4.1610    2.1120   -6.1810 N.pl3  46  DC46       -0.1070
    942  C5        -5.3800    2.1760   -4.1270 C.ar   46  DC46        0.0566
    943  C6        -6.5800    2.1890   -3.5360 C.ar   46  DC46        0.0849
    944  P         -9.2250   -2.2730   -2.2100 P.3    47  DC47        0.2141
    945  OP1       -9.7940   -3.2950   -1.2970 O.3    47  DC47       -0.4373
    946  OP2       -7.7750   -2.0000   -2.1970 O.2    47  DC47       -0.5172
    947  O5'       -9.5370   -2.5960   -3.7480 O.3    47  DC47       -0.3114
    948  C5'      -10.8880   -2.7270   -4.1650 C.3    47  DC47        0.1811
    949  C4'      -11.0870   -2.4140   -5.6270 C.3    47  DC47        0.1746
    950  O4'      -10.4080   -1.1830   -5.9810 O.3    47  DC47       -0.3327
    951  C3'      -10.5540   -3.4340   -6.6200 C.3    47  DC47        0.1558
    952  O3'      -11.4240   -4.5470   -6.7580 O.3    47  DC47       -0.3138
    953  C2'      -10.4160   -2.5950   -7.8890 C.3    47  DC47        0.0866
    954  C1'       -9.9970   -1.2370   -7.3290 C.3    47  DC47        0.2106
    955  N1        -8.5610   -1.0400   -7.4740 N.ar   47  DC47       -0.2556
    956  C2        -8.0470   -0.5800   -8.6920 C.ar   47  DC47        0.3531
    957  O2        -8.8230   -0.4350   -9.6520 O.2    47  DC47       -0.2443
    958  N3        -6.7230   -0.3100   -8.7900 N.ar   47  DC47       -0.1739
    959  C4        -5.9270   -0.4820   -7.7340 C.ar   47  DC47        0.1759
    960  N4        -4.6300   -0.2030   -7.8770 N.pl3  47  DC47       -0.1070
    961  C5        -6.4280   -0.9470   -6.4910 C.ar   47  DC47        0.0566
    962  C6        -7.7360   -1.2120   -6.3990 C.ar   47  DC47        0.0849
    963  P        -10.9390   -6.0130   -7.5170 P.3    48  DT48        0.2141
    964  OP1      -11.9370   -7.0460   -7.1850 O.2    48  DT48       -0.5172
    965  OP2       -9.8560   -5.8120   -6.5310 O.3    48  DT48       -0.4373
    966  O5'      -10.3500   -6.3690   -8.9670 O.3    48  DT48       -0.3114
    967  C5'      -11.2350   -6.3300  -10.0880 C.3    48  DT48        0.1811
    968  C4'      -10.6730   -5.5920  -11.2970 C.3    48  DT48        0.1746
    969  O4'      -10.1090   -4.2840  -10.9850 O.3    48  DT48       -0.3327
    970  C3'       -9.5190   -6.3000  -11.9620 C.3    48  DT48        0.1558
    971  O3'       -9.9830   -7.3310  -12.7310 O.3    48  DT48       -0.3138
    972  C2'       -8.8080   -5.2130  -12.7410 C.3    48  DT48        0.0866
    973  C1'       -8.8910   -4.0890  -11.7010 C.3    48  DT48        0.2106
    974  N1        -7.5840   -4.1950  -10.7560 N.ar   48  DT48       -0.2559
    975  C2        -6.3410   -3.8030  -11.2150 C.ar   48  DT48        0.3545
    976  O2        -6.1000   -3.6040  -12.3930 O.2    48  DT48       -0.2443
    977  N3        -5.3830   -3.6530  -10.2420 N.ar   48  DT48       -0.1533
    978  C4        -5.5400   -3.8500   -8.8860 C.ar   48  DT48        0.2804
    979  O4        -4.5840   -3.6750   -8.1340 O.2    48  DT48       -0.2654
    980  C5        -6.8580   -4.2560   -8.4880 C.ar   48  DT48        0.0534
    981  C6        -7.8090   -4.4100   -9.4140 C.ar   48  DT48        0.0824
    982  C7        -7.1290   -4.4960   -7.0320 C.3    48  DT48        0.0377
    983  P         -9.2980   -8.7530  -12.2470 P.3    49  DT49        0.2141
    984  OP1      -10.0160   -9.8630  -12.9260 O.2    49  DT49       -0.5172
    985  OP2       -8.9960   -8.8480  -10.7910 O.3    49  DT49       -0.4373
    986  O5'       -7.9320   -8.4910  -13.0260 O.3    49  DT49       -0.3114
    987  C5'       -7.9070   -8.4400  -14.4450 C.3    49  DT49        0.1811
    988  C4'       -6.5100   -8.1570  -14.9490 C.3    49  DT49        0.1746
    989  O4'       -6.0290   -6.9250  -14.3320 O.3    49  DT49       -0.3327
    990  C3'       -5.4440   -9.1760  -14.5570 C.3    49  DT49        0.1558
    991  O3'       -5.4170  -10.3010  -15.4330 O.3    49  DT49       -0.3138
    992  C2'       -4.1640   -8.3610  -14.6760 C.3    49  DT49        0.0866
    993  C1'       -4.6220   -7.0000  -14.1610 C.3    49  DT49        0.2106
    994  N1        -4.2660   -6.7200  -12.8110 N.ar   49  DT49       -0.2559
    995  C2        -2.9350   -6.3870  -12.6420 C.ar   49  DT49        0.3545
    996  O2        -2.1710   -6.2120  -13.5750 O.2    49  DT49       -0.2443
    997  N3        -2.5280   -6.2650  -11.3360 N.ar   49  DT49       -0.1533
    998  C4        -3.3000   -6.4390  -10.2060 C.ar   49  DT49        0.2804
    999  O4        -2.7920   -6.2940   -9.0970 O.2    49  DT49       -0.2654
   1000  C5        -4.6700   -6.7840  -10.4640 C.ar   49  DT49        0.0534
   1001  C6        -5.0920   -6.9100  -11.7250 C.ar   49  DT49        0.0824
   1002  C7        -5.5910   -6.9950   -9.2990 C.3    49  DT49        0.0377
   1003  P         -4.2960  -11.8750  -15.0790 P.3    50  DT50        0.2141
   1004  OP1       -4.7810  -13.0780  -15.8080 O.2    50  DT50       -0.5172
   1005  OP2       -4.6620  -11.6870  -13.6560 O.3    50  DT50       -0.4373
   1006  O5'       -2.7050  -11.7970  -15.1600 O.3    50  DT50       -0.3114
   1007  C5'       -2.0350  -11.6860  -16.4250 C.3    50  DT50        0.1811
   1008  C4'       -0.5970  -11.2540  -16.2330 C.3    50  DT50        0.1746
   1009  O4'       -0.5570  -10.0110  -15.4850 O.3    50  DT50       -0.3327
   1010  C3'        0.3260  -12.1690  -15.4420 C.3    50  DT50        0.1558
   1011  O3'        0.8010  -13.2350  -16.2640 O.3    50  DT50       -0.3138
   1012  C2'        1.4540  -11.2120  -15.0780 C.3    50  DT50        0.0866
   1013  C1'        0.6850   -9.9170  -14.8070 C.3    50  DT50        0.2106
   1014  N1         0.3900   -9.7210  -13.3960 N.ar   50  DT50       -0.2559
   1015  C2         1.3820   -9.2330  -12.5660 C.ar   50  DT50        0.3545
   1016  O2         2.5190   -9.0150  -12.9460 O.2    50  DT50       -0.2443
   1017  N3         0.9930   -9.0080  -11.2670 N.ar   50  DT50       -0.1533
   1018  C4        -0.2580   -9.2180  -10.7270 C.ar   50  DT50        0.2804
   1019  O4        -0.4550   -8.9670   -9.5410 O.2    50  DT50       -0.2654
   1020  C5        -1.2320   -9.7260  -11.6520 C.ar   50  DT50        0.0534
   1021  C6        -0.8820   -9.9540  -12.9200 C.ar   50  DT50        0.0824
   1022  C7        -2.6250   -9.9880  -11.1600 C.3    50  DT50        0.0377
   1023  P          1.5850  -14.4980  -15.6090 P.3    51  DG51        0.2141
   1024  OP1        1.8040  -15.4910  -16.6820 O.2    51  DG51       -0.5172
   1025  OP2        0.6590  -14.8060  -14.4970 O.3    51  DG51       -0.4373
   1026  O5'        3.0010  -14.1150  -14.9990 O.3    51  DG51       -0.3114
   1027  C5'        4.0960  -13.7590  -15.8610 C.3    51  DG51        0.1811
   1028  C4'        5.2910  -13.3670  -15.0380 C.3    51  DG51        0.1746
   1029  O4'        5.0730  -12.0510  -14.4610 O.3    51  DG51       -0.3327
   1030  C3'        5.5450  -14.2550  -13.8340 C.3    51  DG51        0.1558
   1031  O3'        6.2020  -15.4680  -14.1700 O.3    51  DG51       -0.3138
   1032  C2'        6.3630  -13.3330  -12.9430 C.3    51  DG51        0.0865
   1033  C1'        5.6380  -12.0050  -13.1610 C.3    51  DG51        0.2094
   1034  N9         4.6090  -11.9060  -12.0830 N.ar   51  DG51       -0.2713
   1035  C8         3.2740  -12.2220  -12.1430 C.ar   51  DG51        0.1816
   1036  N7         2.6390  -11.9920  -11.0260 N.ar   51  DG51       -0.2173
   1037  C5         3.6090  -11.4930  -10.1770 C.ar   51  DG51        0.1748
   1038  C6         3.5230  -11.0650   -8.8270 C.ar   51  DG51        0.3023
   1039  O6         2.5270  -11.0440   -8.0920 O.2    51  DG51       -0.2633
   1040  N1         4.7520  -10.6290   -8.3400 N.ar   51  DG51       -0.1709
   1041  C2         5.9200  -10.6080   -9.0630 C.ar   51  DG51        0.2606
   1042  N2         7.0040  -10.1520   -8.4220 N.pl3  51  DG51       -0.0859
   1043  N3         6.0160  -11.0030  -10.3180 N.ar   51  DG51       -0.1918
   1044  C4         4.8350  -11.4310  -10.8120 C.ar   51  DG51        0.1722
   1045  P          5.9460  -16.6850  -13.3590 P.3    52  DG52        0.2141
   1046  OP1        5.6550  -17.8550  -14.2230 O.2    52  DG52       -0.5172
   1047  OP2        5.0940  -16.4230  -12.1710 O.3    52  DG52       -0.4373
   1048  O5'        7.4560  -16.7830  -12.8490 O.3    52  DG52       -0.3114
   1049  C5'        8.5390  -16.8520  -13.7740 C.3    52  DG52        0.1811
   1050  C4'        9.8700  -16.7420  -13.0570 C.3    52  DG52        0.1746
   1051  O4'        9.8960  -15.5430  -12.2370 O.3    52  DG52       -0.3327
   1052  C3'       10.2380  -17.8290  -12.0590 C.3    52  DG52        0.1558
   1053  O3'       10.7180  -18.9900  -12.7250 O.3    52  DG52       -0.3138
   1054  C2'       11.3530  -17.1520  -11.2660 C.3    52  DG52        0.0865
   1055  C1'       10.8420  -15.7130  -11.1920 C.3    52  DG52        0.2094
   1056  N9        10.0870  -15.5910   -9.8960 N.ar   52  DG52       -0.2713
   1057  C8         8.7330  -15.4320   -9.7240 C.ar   52  DG52        0.1816
   1058  N7         8.3810  -15.3330   -8.4710 N.ar   52  DG52       -0.2173
   1059  C5         9.5700  -15.4310   -7.7720 C.ar   52  DG52        0.1748
   1060  C6         9.8270  -15.3950   -6.3770 C.ar   52  DG52        0.3023
   1061  O6         9.0160  -15.2630   -5.4520 O.2    52  DG52       -0.2633
   1062  N1        11.1830  -15.5320   -6.0940 N.ar   52  DG52       -0.1709
   1063  C2        12.1700  -15.6840   -7.0370 C.ar   52  DG52        0.2606
   1064  N2        13.4210  -15.8000   -6.5710 N.pl3  52  DG52       -0.0859
   1065  N3        11.9470  -15.7210   -8.3360 N.ar   52  DG52       -0.1918
   1066  C4        10.6370  -15.5910   -8.6350 C.ar   52  DG52        0.1722
   1067  P         10.4730  -20.5700  -12.1200 P.3    53  DG53        0.2141
   1068  OP1       10.1870  -21.5690  -13.1750 O.2    53  DG53       -0.5172
   1069  OP2        9.9170  -20.7910  -10.7670 O.3    53  DG53       -0.4373
   1070  O5'       12.0540  -20.3520  -11.9880 O.3    53  DG53       -0.3114
   1071  C5'       12.8050  -21.3100  -11.2750 C.3    53  DG53        0.1811
   1072  C4'       13.4730  -20.7420  -10.0340 C.3    53  DG53        0.1746
   1073  O4'       12.8380  -19.5440   -9.5210 O.3    53  DG53       -0.3327
   1074  C3'       13.4180  -21.6280   -8.8010 C.3    53  DG53        0.1558
   1075  O3'       14.1510  -22.8230   -8.9790 O.3    53  DG53       -0.3138
   1076  C2'       13.9830  -20.6520   -7.7690 C.3    53  DG53        0.0865
   1077  C1'       13.0700  -19.4810   -8.1170 C.3    53  DG53        0.2094
   1078  N9        11.8850  -19.6970   -7.2880 N.ar   53  DG53       -0.2713
   1079  C8        10.7190  -19.5400   -7.9970 C.ar   53  DG53        0.1816
   1080  N7         9.6720  -19.3710   -7.2370 N.ar   53  DG53       -0.2173
   1081  C5        10.1720  -19.4160   -5.9490 C.ar   53  DG53        0.1748
   1082  C6         9.5130  -19.2960   -4.6980 C.ar   53  DG53        0.3023
   1083  O6         8.3080  -19.1160   -4.4810 O.2    53  DG53       -0.2633
   1084  N1        10.4000  -19.4030   -3.6310 N.ar   53  DG53       -0.1709
   1085  C2        11.7540  -19.6030   -3.7530 C.ar   53  DG53        0.2606
   1086  N2        12.4460  -19.6800   -2.6080 N.pl3  53  DG53       -0.0859
   1087  N3        12.3800  -19.7180   -4.9080 N.ar   53  DG53       -0.1918
   1088  C4        11.5390  -19.6170   -5.9590 C.ar   53  DG53        0.1722
   1089  P         13.4660  -24.1260   -9.0630 P.3    54  DG54        0.2141
   1090  OP1       14.3730  -25.1830   -9.5740 O.2    54  DG54       -0.5172
   1091  OP2       11.9990  -24.2470   -9.2680 O.3    54  DG54       -0.4373
   1092  O5'       13.7080  -23.9720   -7.4980 O.3    54  DG54       -0.3113
   1093  C5'       15.0390  -23.9130   -6.9600 C.3    54  DG54        0.1838
   1094  C4'       14.9950  -23.9810   -5.4540 C.3    54  DG54        0.2038
   1095  O4'       14.3270  -22.7990   -4.9370 O.3    54  DG54       -0.3299
   1096  C3'       14.2020  -25.1410   -4.8710 C.3    54  DG54        0.2810
   1097  O3'       14.9290  -26.3550   -4.8150 O.3    54  DG54       -0.1894
   1098  C2'       13.8260  -24.6210   -3.4920 C.3    54  DG54        0.1185
   1099  C1'       13.5670  -23.1440   -3.7860 C.3    54  DG54        0.2122
   1100  N9        12.1650  -22.9000   -4.0630 N.ar   54  DG54       -0.2713
   1101  C8        11.5270  -22.9040   -5.2800 C.ar   54  DG54        0.1816
   1102  N7        10.2300  -22.7930   -5.1820 N.ar   54  DG54       -0.2173
   1103  C5         9.9940  -22.7080   -3.8230 C.ar   54  DG54        0.1748
   1104  C6         8.7790  -22.5760   -3.1030 C.ar   54  DG54        0.3023
   1105  O6         7.6280  -22.5040   -3.5500 O.2    54  DG54       -0.2633
   1106  N1         8.9910  -22.5290   -1.7280 N.ar   54  DG54       -0.1709
   1107  C2        10.2220  -22.6000   -1.1210 C.ar   54  DG54        0.2606
   1108  N2        10.2260  -22.5360    0.2170 N.pl3  54  DG54       -0.0859
   1109  N3        11.3600  -22.7240   -1.7760 N.ar   54  DG54       -0.1918
   1110  C4        11.1780  -22.7720   -3.1130 C.ar   54  DG54        0.1722
   1111  P         14.1180  -27.8030   -4.6510 P.3    55  DA55        0.2954
   1112  OP1       13.3920  -28.5680   -5.7000 O.3    55  DA55       -0.1680
   1113  OP2       13.8350  -26.3590   -4.4530 O.3    55  DA55       -0.1894
   1114  O5'       13.8340  -28.4370   -3.2000 O.3    55  DA55       -0.3089
   1115  C5'       14.7170  -28.1380   -2.1150 C.3    55  DA55        0.1810
   1116  C4'       14.0480  -27.4840   -0.9170 C.3    55  DA55        0.1746
   1117  O4'       13.2380  -26.3470   -1.2970 O.3    55  DA55       -0.3327
   1118  C3'       13.0470  -28.3710   -0.1910 C.3    55  DA55        0.1558
   1119  O3'       13.6730  -29.3190    0.6640 O.3    55  DA55       -0.3138
   1120  C2'       12.2730  -27.3690    0.6390 C.3    55  DA55        0.0865
   1121  C1'       12.2010  -26.1770   -0.3290 C.3    55  DA55        0.2094
   1122  N9        11.0640  -26.2010   -0.8930 N.ar   55  DA55       -0.2714
   1123  C8        11.2420  -26.0720   -2.2450 C.ar   55  DA55        0.1815
   1124  N7        10.1320  -25.8360   -2.9040 N.ar   55  DA55       -0.2193
   1125  C5         9.1590  -25.8080   -1.9170 C.ar   55  DA55        0.1518
   1126  C6         7.7700  -25.6010   -1.9630 C.ar   55  DA55        0.1919
   1127  N6         7.0940  -25.3720   -3.0920 N.pl3  55  DA55       -0.1054
   1128  N1         7.0910  -25.6380   -0.7970 N.ar   55  DA55       -0.2040
   1129  C2         7.7700  -25.8660    0.3340 C.ar   55  DA55        0.2016
   1130  N3         9.0730  -26.0740    0.5040 N.ar   55  DA55       -0.2048
   1131  C4         9.7190  -26.0330   -0.6730 C.ar   55  DA55        0.1691
   1132  P         13.1400  -30.8660    0.5800 P.3    56  DG56        0.2141
   1133  OP1       14.1730  -31.9230    0.7370 O.3    56  DG56       -0.4373
   1134  OP2       12.3050  -30.8560   -0.6350 O.2    56  DG56       -0.5172
   1135  O5'       12.1580  -30.8970    1.8420 O.3    56  DG56       -0.3114
   1136  C5'       11.4630  -29.7150    2.2700 C.3    56  DG56        0.1811
   1137  C4'       10.0210  -30.0260    2.5900 C.3    56  DG56        0.1746
   1138  O4'        9.1800  -29.0230    1.9630 O.3    56  DG56       -0.3327
   1139  C3'        9.5030  -31.3500    2.0470 C.3    56  DG56        0.1558
   1140  O3'        9.8160  -32.3950    2.9580 O.3    56  DG56       -0.3138
   1141  C2'        8.0050  -31.1100    1.8830 C.3    56  DG56        0.0865
   1142  C1'        7.9640  -29.6200    1.5510 C.3    56  DG56        0.2094
   1143  N9         7.8010  -29.4650    0.1680 N.ar   56  DG56       -0.2713
   1144  C8         8.7210  -29.7660   -0.8070 C.ar   56  DG56        0.1816
   1145  N7         8.1850  -29.9500   -1.9820 N.ar   56  DG56       -0.2173
   1146  C5         6.8310  -29.7590   -1.7760 C.ar   56  DG56        0.1748
   1147  C6         5.7400  -29.8290   -2.6800 C.ar   56  DG56        0.3023
   1148  O6         5.7640  -30.0830   -3.8910 O.2    56  DG56       -0.2633
   1149  N1         4.5260  -29.5670   -2.0520 N.ar   56  DG56       -0.1709
   1150  C2         4.3800  -29.2740   -0.7170 C.ar   56  DG56        0.2606
   1151  N2         3.1290  -29.0490   -0.2940 N.pl3  56  DG56       -0.0859
   1152  N3         5.3840  -29.2060    0.1350 N.ar   56  DG56       -0.1918
   1153  C4         6.5730  -29.4580   -0.4520 C.ar   56  DG56        0.1722
   1154  P          9.1940  -34.0280    2.7200 P.3    57  DA57        0.2141
   1155  OP1        9.6720  -34.6690    3.9600 O.3    57  DA57       -0.4373
   1156  OP2        9.8820  -34.2550    1.4340 O.2    57  DA57       -0.5172
   1157  O5'        7.6690  -34.4180    2.5260 O.3    57  DA57       -0.3114
   1158  C5'        7.2670  -35.5790    1.8320 C.3    57  DA57        0.1811
   1159  C4'        5.8250  -35.8120    2.2110 C.3    57  DA57        0.1746
   1160  O4'        5.7280  -35.8710    3.6540 O.3    57  DA57       -0.3327
   1161  C3'        4.9070  -34.6530    1.8720 C.3    57  DA57        0.1558
   1162  O3'        4.4580  -34.7830    0.5500 O.3    57  DA57       -0.3138
   1163  C2'        3.7610  -34.8250    2.8600 C.3    57  DA57        0.0865
   1164  C1'        4.5200  -35.2540    4.0930 C.3    57  DA57        0.2094
   1165  N9         4.8960  -34.2420    5.1260 N.ar   57  DA57       -0.2714
   1166  C8         6.1290  -33.6810    5.3310 C.ar   57  DA57        0.1815
   1167  N7         6.1420  -32.7610    6.2670 N.ar   57  DA57       -0.2193
   1168  C5         4.8270  -32.7150    6.7050 C.ar   57  DA57        0.1518
   1169  C6         4.1840  -31.9420    7.6870 C.ar   57  DA57        0.1919
   1170  N6         4.8080  -31.0290    8.4360 N.pl3  57  DA57       -0.1054
   1171  N1         2.8620  -32.1410    7.8750 N.ar   57  DA57       -0.2040
   1172  C2         2.2380  -33.0560    7.1250 C.ar   57  DA57        0.2016
   1173  N3         2.7340  -33.8440    6.1740 N.ar   57  DA57       -0.2048
   1174  C4         4.0480  -33.6210    6.0110 C.ar   57  DA57        0.1691
   1175  P          4.2490  -33.4460   -0.2800 P.3    58  DC58        0.2141
   1176  OP1        3.9560  -33.8200   -1.6810 O.2    58  DC58       -0.5172
   1177  OP2        5.2650  -32.4130    0.0150 O.3    58  DC58       -0.4373
   1178  O5'        2.9180  -32.8960    0.4180 O.3    58  DC58       -0.3114
   1179  C5'        1.7340  -33.6800    0.4250 C.3    58  DC58        0.1811
   1180  C4'        0.7080  -33.1340    1.3850 C.3    58  DC58        0.1746
   1181  O4'        1.2400  -33.1830    2.7340 O.3    58  DC58       -0.3327
   1182  C3'        0.3110  -31.6790    1.1800 C.3    58  DC58        0.1558
   1183  O3'       -0.6800  -31.5150    0.1780 O.3    58  DC58       -0.3138
   1184  C2'       -0.1430  -31.2640    2.5760 C.3    58  DC58        0.0866
   1185  C1'        0.8320  -32.0450    3.4580 C.3    58  DC58        0.2106
   1186  N1         2.0360  -31.3210    3.7880 N.ar   58  DC58       -0.2556
   1187  C2         1.9610  -30.3230    4.7660 C.ar   58  DC58        0.3531
   1188  O2         0.8890  -30.1610    5.3740 O.2    58  DC58       -0.2443
   1189  N3         3.0540  -29.5650    5.0200 N.ar   58  DC58       -0.1739
   1190  C4         4.1830  -29.7750    4.3420 C.ar   58  DC58        0.1759
   1191  N4         5.2350  -29.0040    4.6270 N.pl3  58  DC58       -0.1070
   1192  C5         4.2800  -30.7810    3.3470 C.ar   58  DC58        0.0566
   1193  C6         3.1970  -31.5270    3.0990 C.ar   58  DC58        0.0849
   1194  P         -0.8380  -30.1280   -0.7360 P.3    59  DA59        0.2141
   1195  OP1       -2.0150  -30.0040   -1.6370 O.2    59  DA59       -0.5172
   1196  OP2        0.5310  -29.9150   -1.2960 O.3    59  DA59       -0.4373
   1197  O5'       -1.0100  -29.0920    0.4820 O.3    59  DA59       -0.3114
   1198  C5'       -2.2200  -29.0550    1.2700 C.3    59  DA59        0.1811
   1199  C4'       -2.1330  -28.0350    2.4120 C.3    59  DA59        0.1746
   1200  O4'       -1.1450  -28.4360    3.4050 O.3    59  DA59       -0.3327
   1201  C3'       -1.7760  -26.5890    2.0750 C.3    59  DA59        0.1558
   1202  O3'       -2.9190  -25.8590    1.6500 O.3    59  DA59       -0.3138
   1203  C2'       -1.2570  -26.0530    3.4090 C.3    59  DA59        0.0865
   1204  C1'       -0.5570  -27.2840    3.9930 C.3    59  DA59        0.2094
   1205  N9         0.7670  -27.3580    3.6880 N.ar   59  DA59       -0.2714
   1206  C8         1.3450  -28.0260    2.6400 C.ar   59  DA59        0.1815
   1207  N7         2.6210  -27.7620    2.4840 N.ar   59  DA59       -0.2190
   1208  C5         2.8990  -26.8590    3.4980 C.ar   59  DA59        0.1560
   1209  C6         4.0790  -26.1950    3.8750 C.ar   59  DA59        0.2233
   1210  N6         5.2470  -26.3480    3.2460 N.2    59  DA59       -0.0513
   1211  N1         4.0170  -25.3590    4.9330 N.ar   59  DA59       -0.2004
   1212  C2         2.8460  -25.2070    5.5630 C.ar   59  DA59        0.2018
   1213  N3         1.6720  -25.7760    5.3030 N.ar   59  DA59       -0.2048
   1214  C4         1.7670  -26.6000    4.2470 C.ar   59  DA59        0.1694
   1215  P         -2.8080  -24.5760    0.5400 P.3    60  DT60        0.2141
   1216  OP1       -4.1040  -23.9790    0.9540 O.3    60  DT60       -0.4373
   1217  OP2       -2.4740  -24.6610   -0.9030 O.2    60  DT60       -0.5172
   1218  O5'       -1.6300  -23.7990    1.2750 O.3    60  DT60       -0.3114
   1219  C5'       -1.6980  -23.5660    2.6780 C.3    60  DT60        0.1811
   1220  C4'       -0.3990  -23.9400    3.3510 C.3    60  DT60        0.1744
   1221  O4'        0.1310  -25.1440    2.7450 O.3    60  DT60       -0.3345
   1222  C3'        0.7550  -22.9480    3.2870 C.3    60  DT60        0.1555
   1223  O3'        0.6320  -21.9550    4.3030 O.3    60  DT60       -0.3139
   1224  C2'        1.9580  -23.8480    3.5430 C.3    60  DT60        0.0839
   1225  C1'        1.5470  -25.1270    2.8130 C.3    60  DT60        0.2027
   1226  N1         2.2310  -24.9930    1.5390 N.pl3  60  DT60       -0.2064
   1227  C2         3.5950  -25.0940    1.3380 C.2    60  DT60        0.3782
   1228  O2         4.4030  -25.0910    2.2500 O.2    60  DT60       -0.3040
   1229  N3         3.9820  -25.1990    0.0240 N.2    60  DT60       -0.3131
   1230  C4         3.1610  -25.2120   -1.0840 C.2    60  DT60        0.3318
   1231  O4         3.6570  -25.3130   -2.2040 O.2    60  DT60       -0.2579
   1232  C5         1.7590  -25.1020   -0.7930 C.2    60  DT60        0.0640
   1233  C6         1.3550  -24.9990    0.4760 C.2    60  DT60        0.0740
   1234  C7         0.7840  -25.1060   -1.9330 C.3    60  DT60        0.0387
   1235  P          1.2180  -20.2470    4.0320 P.3    61  DC61        0.2141
   1236  OP1        1.0100  -19.2110    5.0650 O.3    61  DC61       -0.4373
   1237  OP2        1.0980  -19.8730    2.6050 O.2    61  DC61       -0.5172
   1238  O5'        2.6810  -20.8740    4.2330 O.3    61  DC61       -0.3114
   1239  C5'        3.3870  -20.8690    5.4840 C.3    61  DC61        0.1812
   1240  C4'        4.8820  -21.1290    5.2740 C.3    61  DC61        0.1775
   1241  O4'        5.0260  -22.2950    4.4420 O.3    61  DC61       -0.3326
   1242  C3'        5.5630  -20.0470    4.4510 C.3    61  DC61        0.1864
   1243  O3'        5.7910  -18.7610    5.0780 O.3    61  DC61       -0.2133
   1244  C2'        6.7380  -20.7760    3.8180 C.3    61  DC61        0.0895
   1245  C1'        6.1370  -22.1510    3.5250 C.3    61  DC61        0.2107
   1246  N1         6.0360  -22.0900    2.2560 N.ar   61  DC61       -0.2556
   1247  C2         7.0740  -22.2500    1.3320 C.ar   61  DC61        0.3531
   1248  O2         8.2450  -22.2810    1.7470 O.2    61  DC61       -0.2443
   1249  N3         6.7740  -22.3650    0.0160 N.ar   61  DC61       -0.1739
   1250  C4         5.5020  -22.3250   -0.3840 C.ar   61  DC61        0.1759
   1251  N4         5.2550  -22.4430   -1.6910 N.pl3  61  DC61       -0.1070
   1252  C5         4.4360  -22.1630    0.5370 C.ar   61  DC61        0.0566
   1253  C6         4.7370  -22.0500    1.8350 C.ar   61  DC61        0.0849
   1254  P          7.4090  -17.9770    5.9120 P.3    62  DC62        0.3939
   1255  OP1        7.7250  -17.3800    7.2300 O.3    62  DC62       -0.1425
   1256  OP2        6.3720  -17.3550    5.0550 O.3    62  DC62       -0.1496
   1257  O5'        8.7790  -18.1120    5.0920 O.3    62  DC62       -0.2926
   1258  C5'        9.9210  -18.6760    5.7300 C.3    62  DC62        0.1828
   1259  C4'       10.9710  -19.1390    4.7330 C.3    62  DC62        0.1747
   1260  O4'       10.3680  -20.0210    3.7520 O.3    62  DC62       -0.3327
   1261  C3'       11.6110  -18.0580    3.8750 C.3    62  DC62        0.1558
   1262  O3'       12.6090  -17.3370    4.5910 O.3    62  DC62       -0.3138
   1263  C2'       12.2190  -18.9280    2.7820 C.3    62  DC62        0.0866
   1264  C1'       11.0650  -19.8890    2.5250 C.3    62  DC62        0.2106
   1265  N1        10.1440  -19.4410    1.4940 N.ar   62  DC62       -0.2556
   1266  C2        10.4920  -19.5690    0.1450 C.ar   62  DC62        0.3531
   1267  O2        11.6030  -20.0470   -0.1430 O.2    62  DC62       -0.2443
   1268  N3         9.6130  -19.1700   -0.8040 N.ar   62  DC62       -0.1739
   1269  C4         8.4320  -18.6630   -0.4480 C.ar   62  DC62        0.1759
   1270  N4         7.5970  -18.2820   -1.4180 N.pl3  62  DC62       -0.1070
   1271  C5         8.0600  -18.5240    0.9140 C.ar   62  DC62        0.0566
   1272  C6         8.9320  -18.9200    1.8480 C.ar   62  DC62        0.0849
   1273  P         12.6810  -16.0370    4.2150 P.3    63  DT63        0.2141
   1274  OP1       13.7710  -15.8750    5.2090 O.3    63  DT63       -0.4373
   1275  OP2       11.4750  -15.1690    4.2940 O.2    63  DT63       -0.5172
   1276  O5'       13.2990  -15.8680    2.7530 O.3    63  DT63       -0.3114
   1277  C5'       14.3750  -16.6880    2.3030 C.3    63  DT63        0.1811
   1278  C4'       14.6420  -16.4380    0.8310 C.3    63  DT63        0.1746
   1279  O4'       13.4350  -16.7020    0.0690 O.3    63  DT63       -0.3327
   1280  C3'       15.0810  -15.0180    0.4720 C.3    63  DT63        0.1558
   1281  O3'       16.1720  -15.0720   -0.4210 O.3    63  DT63       -0.3138
   1282  C2'       13.8660  -14.4170   -0.2330 C.3    63  DT63        0.0866
   1283  C1'       13.2120  -15.6490   -0.8410 C.3    63  DT63        0.2106
   1284  N1        11.7770  -15.5780   -1.0840 N.ar   63  DT63       -0.2559
   1285  C2        11.4210  -15.5260   -2.4190 C.ar   63  DT63        0.3545
   1286  O2        12.2370  -15.4800   -3.3230 O.2    63  DT63       -0.2443
   1287  N3        10.0690  -15.5280   -2.6600 N.ar   63  DT63       -0.1530
   1288  C4         9.0590  -15.5760   -1.7220 C.ar   63  DT63        0.2833
   1289  O4         7.8880  -15.5720   -2.0920 O.3    63  DT63       -0.2709
   1290  C5         9.5090  -15.6270   -0.3590 C.ar   63  DT63        0.0539
   1291  C6        10.8180  -15.6260   -0.0960 C.ar   63  DT63        0.0824
   1292  C7         8.4850  -15.6810    0.7360 C.3    63  DT63        0.0377
   1293  P         17.7200  -14.5590    0.1740 P.3    64  DA64        0.2141
   1294  OP1       18.1850  -14.2910    1.5650 O.3    64  DA64       -0.4373
   1295  OP2       17.9340  -13.5280   -0.8800 O.2    64  DA64       -0.5172
   1296  O5'       18.3740  -15.9160   -0.3440 O.3    64  DA64       -0.3114
   1297  C5'       18.1990  -16.3550   -1.6890 C.3    64  DA64        0.1811
   1298  C4'       19.1860  -17.4540   -2.0020 C.3    64  DA64        0.1746
   1299  O4'       20.5340  -16.9070   -1.9760 O.3    64  DA64       -0.3327
   1300  C3'       19.2140  -18.5850   -0.9800 C.3    64  DA64        0.1558
   1301  O3'       18.2240  -19.5710   -1.2690 O.3    64  DA64       -0.3138
   1302  C2'       20.6270  -19.1290   -1.1330 C.3    64  DA64        0.0865
   1303  C1'       21.4220  -17.8430   -1.3770 C.3    64  DA64        0.2094
   1304  N9        21.9840  -17.2510   -0.1470 N.ar   64  DA64       -0.2714
   1305  C8        21.6300  -16.0720    0.4560 C.ar   64  DA64        0.1815
   1306  N7        22.2910  -15.8250    1.5620 N.ar   64  DA64       -0.2193
   1307  C5        23.1350  -16.9160    1.6950 C.ar   64  DA64        0.1518
   1308  C6        24.0950  -17.2570    2.6640 C.ar   64  DA64        0.1919
   1309  N6        24.3750  -16.4980    3.7260 N.pl3  64  DA64       -0.1054
   1310  N1        24.7640  -18.4180    2.5020 N.ar   64  DA64       -0.2040
   1311  C2        24.4840  -19.1780    1.4370 C.ar   64  DA64        0.2016
   1312  N3        23.6060  -18.9640    0.4600 N.ar   64  DA64       -0.2048
   1313  C4        22.9570  -17.8030    0.6510 C.ar   64  DA64        0.1691
   1314  P         17.7110  -20.4110   -0.1060 P.3    65  DT65        0.2141
   1315  OP1       17.1020  -21.6960   -0.5470 O.2    65  DT65       -0.5172
   1316  OP2       17.2650  -19.7900    1.1670 O.3    65  DT65       -0.4373
   1317  O5'       19.2900  -20.6110   -0.0210 O.3    65  DT65       -0.3114
   1318  C5'       19.9720  -21.5230   -0.8790 C.3    65  DT65        0.1811
   1319  C4'       21.1310  -22.1460   -0.1410 C.3    65  DT65        0.1746
   1320  O4'       22.0250  -21.0910    0.3050 O.3    65  DT65       -0.3327
   1321  C3'       20.7690  -22.8970    1.1270 C.3    65  DT65        0.1558
   1322  O3'       20.3730  -24.2340    0.8390 O.3    65  DT65       -0.3138
   1323  C2'       22.0670  -22.8240    1.9210 C.3    65  DT65        0.0866
   1324  C1'       22.5360  -21.4060    1.5900 C.3    65  DT65        0.2106
   1325  N1        21.9980  -20.4090    2.5290 N.ar   65  DT65       -0.2559
   1326  C2        22.5630  -20.3220    3.7880 C.ar   65  DT65        0.3545
   1327  O2        23.4860  -21.0290    4.1510 O.2    65  DT65       -0.2443
   1328  N3        22.0050  -19.3740    4.6110 N.ar   65  DT65       -0.1533
   1329  C4        20.9630  -18.5220    4.3090 C.ar   65  DT65        0.2804
   1330  O4        20.5720  -17.7210    5.1540 O.2    65  DT65       -0.2654
   1331  C5        20.4300  -18.6740    2.9840 C.ar   65  DT65        0.0534
   1332  C6        20.9530  -19.5880    2.1630 C.ar   65  DT65        0.0824
   1333  C7        19.2930  -17.7930    2.5600 C.3    65  DT65        0.0377
   1334  P         18.9020  -24.9380    1.4550 P.3    66  DG66        0.2141
   1335  OP1       18.3860  -25.8760    0.4280 O.2    66  DG66       -0.5172
   1336  OP2       18.0800  -23.7440    1.8460 O.3    66  DG66       -0.4373
   1337  O5'       19.1730  -25.7540    2.7990 O.3    66  DG66       -0.3114
   1338  C5'       20.2490  -26.6860    2.8830 C.3    66  DG66        0.1811
   1339  C4'       21.1360  -26.3490    4.0520 C.3    66  DG66        0.1746
   1340  O4'       21.4660  -24.9350    4.0110 O.3    66  DG66       -0.3327
   1341  C3'       20.5500  -26.4750    5.4480 C.3    66  DG66        0.1558
   1342  O3'       20.5240  -27.8280    5.8640 O.3    66  DG66       -0.3138
   1343  C2'       21.5790  -25.6940    6.2520 C.3    66  DG66        0.0865
   1344  C1'       21.8780  -24.5310    5.3060 C.3    66  DG66        0.2094
   1345  N9        21.3200  -23.4110    5.6170 N.ar   66  DG66       -0.2713
   1346  C8        20.3950  -22.7780    4.8230 C.ar   66  DG66        0.1816
   1347  N7        19.8600  -21.7310    5.3890 N.ar   66  DG66       -0.2173
   1348  C5        20.4670  -21.6640    6.6300 C.ar   66  DG66        0.1748
   1349  C6        20.2940  -20.7420    7.6940 C.ar   66  DG66        0.3023
   1350  O6        19.5380  -19.7640    7.7450 O.2    66  DG66       -0.2633
   1351  N1        21.1100  -21.0430    8.7810 N.ar   66  DG66       -0.1709
   1352  C2        21.9860  -22.1010    8.8360 C.ar   66  DG66        0.2606
   1353  N2        22.6900  -22.2270    9.9690 N.pl3  66  DG66       -0.0859
   1354  N3        22.1570  -22.9660    7.8550 N.ar   66  DG66       -0.1918
   1355  C4        21.3730  -22.6940    6.7900 C.ar   66  DG66        0.1722
   1356  P         19.6220  -28.3270    7.2410 P.3    67  DC67        0.2141
   1357  OP1       19.8420  -29.7510    6.8850 O.3    67  DC67       -0.4373
   1358  OP2       18.3750  -27.6430    6.8180 O.2    67  DC67       -0.5172
   1359  O5'       19.7930  -28.1620    8.8110 O.3    67  DC67       -0.3114
   1360  C5'       21.0390  -28.4680    9.4050 C.3    67  DC67        0.1811
   1361  C4'       21.3650  -27.5040   10.5150 C.3    67  DC67        0.1746
   1362  O4'       21.4690  -26.1380   10.0270 O.3    67  DC67       -0.3327
   1363  C3'       20.3730  -27.3520   11.6420 C.3    67  DC67        0.1558
   1364  O3'       20.3320  -28.4690   12.4880 O.3    67  DC67       -0.3138
   1365  C2'       20.8790  -26.0940   12.3160 C.3    67  DC67        0.0866
   1366  C1'       21.2220  -25.2380   11.1030 C.3    67  DC67        0.2106
   1367  N1        20.0100  -24.4160   10.7470 N.ar   67  DC67       -0.2556
   1368  C2        19.5770  -23.3590   11.5550 C.ar   67  DC67        0.3531
   1369  O2        20.1060  -23.2030   12.6690 O.2    67  DC67       -0.2443
   1370  N3        18.5980  -22.5400   11.1020 N.ar   67  DC67       -0.1739
   1371  C4        18.0580  -22.7460    9.9000 C.ar   67  DC67        0.1759
   1372  N4        17.0960  -21.9130    9.4960 N.pl3  67  DC67       -0.1070
   1373  C5        18.4820  -23.8120    9.0660 C.ar   67  DC67        0.0566
   1374  C6        19.4500  -24.6180    9.5170 C.ar   67  DC67        0.0849
   1375  P         19.0060  -29.0740   12.8240 P.3    68  DG68        0.2141
   1376  OP1       19.0780  -30.4040   13.4690 O.3    68  DG68       -0.4373
   1377  OP2       17.7850  -28.6700   12.0960 O.2    68  DG68       -0.5172
   1378  O5'       19.3480  -27.9680   13.9170 O.3    68  DG68       -0.3114
   1379  C5'       20.5990  -28.0200   14.6370 C.3    68  DG68        0.1811
   1380  C4'       20.6980  -26.8750   15.6140 C.3    68  DG68        0.1746
   1381  O4'       20.5900  -25.6130   14.8970 O.3    68  DG68       -0.3327
   1382  C3'       19.5870  -26.7890   16.6390 C.3    68  DG68        0.1558
   1383  O3'       19.8100  -27.6610   17.7260 O.3    68  DG68       -0.3138
   1384  C2'       19.6640  -25.3280   17.0560 C.3    68  DG68        0.0865
   1385  C1'       19.9240  -24.6620   15.7090 C.3    68  DG68        0.2094
   1386  N9        18.7320  -24.2510   15.1090 N.ar   68  DG68       -0.2713
   1387  C8        18.1250  -24.9030   14.0630 C.ar   68  DG68        0.1816
   1388  N7        17.0190  -24.3310   13.6720 N.ar   68  DG68       -0.2173
   1389  C5        16.8860  -23.2350   14.5040 C.ar   68  DG68        0.1748
   1390  C6        15.8810  -22.2360   14.5610 C.ar   68  DG68        0.3023
   1391  O6        14.8720  -22.1230   13.8540 O.2    68  DG68       -0.2633
   1392  N1        16.1320  -21.3020   15.5620 N.ar   68  DG68       -0.1709
   1393  C2        17.2180  -21.3270   16.4050 C.ar   68  DG68        0.2606
   1394  N2        17.2890  -20.3390   17.3070 N.pl3  68  DG68       -0.0859
   1395  N3        18.1590  -22.2500   16.3640 N.ar   68  DG68       -0.1918
   1396  C4        17.9360  -23.1680   15.4000 C.ar   68  DG68        0.1722
   1397  P         18.5570  -28.2320   18.5260 P.3    69  DT69        0.2141
   1398  OP1       19.2150  -29.1050   19.5340 O.3    69  DT69       -0.4373
   1399  OP2       17.8840  -28.8480   17.3510 O.2    69  DT69       -0.5172
   1400  O5'       17.5000  -27.2870   19.2660 O.3    69  DT69       -0.3114
   1401  C5'       17.7840  -26.7160   20.5670 C.3    69  DT69        0.1811
   1402  C4'       16.6350  -25.8400   21.0340 C.3    69  DT69        0.1746
   1403  O4'       16.4360  -24.7650   20.0810 O.3    69  DT69       -0.3327
   1404  C3'       15.2650  -26.4960   21.1660 C.3    69  DT69        0.1558
   1405  O3'       15.0890  -27.1400   22.4270 O.3    69  DT69       -0.3138
   1406  C2'       14.3080  -25.3200   21.0040 C.3    69  DT69        0.0866
   1407  C1'       15.0560  -24.4440   19.9990 C.3    69  DT69        0.2106
   1408  N1        14.6450  -24.5970   18.6340 N.ar   69  DT69       -0.2559
   1409  C2        13.7050  -23.7220   18.1230 C.ar   69  DT69        0.3545
   1410  O2        13.2610  -22.7800   18.7560 O.2    69  DT69       -0.2443
   1411  N3        13.2980  -23.9910   16.8390 N.ar   69  DT69       -0.1533
   1412  C4        13.7280  -25.0230   16.0320 C.ar   69  DT69        0.2804
   1413  O4        13.2710  -25.1350   14.8970 O.2    69  DT69       -0.2654
   1414  C5        14.7030  -25.8890   16.6340 C.ar   69  DT69        0.0534
   1415  C6        15.1160  -25.6500   17.8820 C.ar   69  DT69        0.0824
   1416  C7        15.2320  -27.0430   15.8360 C.3    69  DT69        0.0377
   1417  P         13.8950  -28.1570   22.6280 P.3    70  DG70        0.2141
   1418  OP1       14.2840  -28.9530   23.8410 O.3    70  DG70       -0.4373
   1419  OP2       13.4490  -28.8210   21.3740 O.2    70  DG70       -0.5172
   1420  O5'       12.8260  -27.0170   23.0010 O.3    70  DG70       -0.3114
   1421  C5'       13.0050  -26.1640   24.1380 C.3    70  DG70        0.1811
   1422  C4'       11.9880  -25.0240   24.1650 C.3    70  DG70        0.1746
   1423  O4'       12.3370  -24.0510   23.1360 O.3    70  DG70       -0.3327
   1424  C3'       10.5240  -25.3890   23.8460 C.3    70  DG70        0.1558
   1425  O3'        9.7930  -25.9550   24.9780 O.3    70  DG70       -0.3138
   1426  C2'        9.9730  -24.0440   23.3860 C.3    70  DG70        0.0865
   1427  C1'       11.1500  -23.5220   22.5450 C.3    70  DG70        0.2094
   1428  N9        10.9480  -24.0610   21.0600 N.ar   70  DG70       -0.2713
   1429  C8        11.5970  -25.0400   20.3480 C.ar   70  DG70        0.1816
   1430  N7        11.1350  -25.1870   19.1360 N.ar   70  DG70       -0.2173
   1431  C5        10.1230  -24.2500   19.0380 C.ar   70  DG70        0.1748
   1432  C6         9.2550  -23.9380   17.9610 C.ar   70  DG70        0.3023
   1433  O6         9.2140  -24.4530   16.8360 O.2    70  DG70       -0.2633
   1434  N1         8.3680  -22.9160   18.2860 N.ar   70  DG70       -0.1709
   1435  C2         8.3230  -22.2730   19.5000 C.ar   70  DG70        0.2606
   1436  N2         7.3980  -21.3120   19.6260 N.pl3  70  DG70       -0.0859
   1437  N3         9.1220  -22.5530   20.5110 N.ar   70  DG70       -0.1918
   1438  C4         9.9920  -23.5430   20.2180 C.ar   70  DG70        0.1722
   1439  P          8.8140  -27.3180   24.7570 P.3    71  DC71        0.2141
   1440  OP1        8.2670  -27.7710   26.0560 O.3    71  DC71       -0.4373
   1441  OP2        9.1180  -28.2910   23.6840 O.2    71  DC71       -0.5172
   1442  O5'        7.7770  -26.3070   24.0780 O.3    71  DC71       -0.3114
   1443  C5'        7.0440  -25.3760   24.8620 C.3    71  DC71        0.1812
   1444  C4'        5.7670  -24.9840   24.1650 C.3    71  DC71        0.1775
   1445  O4'        6.0670  -24.1590   23.0090 O.3    71  DC71       -0.3326
   1446  C3'        4.9640  -26.1340   23.5820 C.3    71  DC71        0.1859
   1447  O3'        4.1880  -26.8260   24.5400 O.3    71  DC71       -0.2202
   1448  C2'        4.1370  -25.4440   22.5050 C.3    71  DC71        0.0895
   1449  C1'        5.1390  -24.4180   21.9740 C.3    71  DC71        0.2107
   1450  N1         5.7810  -24.8100   20.6460 N.ar   71  DC71       -0.2556
   1451  C2         5.3390  -24.1910   19.4710 C.ar   71  DC71        0.3531
   1452  O2         4.4560  -23.3200   19.5500 O.2    71  DC71       -0.2443
   1453  N3         5.8840  -24.5590   18.2870 N.ar   71  DC71       -0.1739
   1454  C4         6.8280  -25.4990   18.2510 C.ar   71  DC71        0.1759
   1455  N4         7.3360  -25.8300   17.0610 N.pl3  71  DC71       -0.1070
   1456  C5         7.2900  -26.1380   19.4300 C.ar   71  DC71        0.0566
   1457  C6         6.7490  -25.7720   20.5970 C.ar   71  DC71        0.0849
   1458  P          3.9870  -28.3500   24.3350 P.3    72  DT72        0.4149
   1459  OP1        3.2840  -29.4910   24.9690 O.3    72  DT72       -0.1481
   1460  OP2        4.7810  -28.5810   23.1280 O.2    72  DT72       -0.2668
   1461  O5'        2.8980  -27.2480   23.9820 O.3    72  DT72       -0.2177
   1462  C5'        1.9020  -27.4950   22.9840 C.3    72  DT72        0.2140
   1463  C4'        1.9060  -26.3790   21.9800 C.3    72  DT72        0.1776
   1464  O4'        3.2630  -26.1890   21.5220 O.3    72  DT72       -0.3326
   1465  C3'        1.1100  -26.6740   20.7250 C.3    72  DT72        0.1559
   1466  O3'       -0.2540  -26.3290   20.8790 O.3    72  DT72       -0.3138
   1467  C2'        1.8390  -25.8670   19.6560 C.3    72  DT72        0.0866
   1468  C1'        3.2830  -26.0170   20.1120 C.3    72  DT72        0.2106
   1469  N1         3.9590  -27.3310   19.5060 N.ar   72  DT72       -0.2559
   1470  C2         4.2590  -27.5850   18.1810 C.ar   72  DT72        0.3545
   1471  O2         3.6200  -27.1200   17.2540 O.2    72  DT72       -0.2443
   1472  N3         5.3400  -28.4090   17.9770 N.ar   72  DT72       -0.1533
   1473  C4         6.1330  -28.9920   18.9440 C.ar   72  DT72        0.2804
   1474  O4         7.0710  -29.7090   18.6060 O.2    72  DT72       -0.2654
   1475  C5         5.7570  -28.6810   20.2950 C.ar   72  DT72        0.0534
   1476  C6         4.7100  -27.8820   20.5210 C.ar   72  DT72        0.0824
   1477  C7         6.5580  -29.2680   21.4190 C.3    72  DT72        0.0377
   1478  P         -1.1790  -27.2550   20.3600 P.3    73  DA73        0.2141
   1479  OP1       -2.4230  -26.9190   21.0870 O.3    73  DA73       -0.4373
   1480  OP2       -0.6820  -28.6540   20.3530 O.2    73  DA73       -0.5172
   1481  O5'       -1.3530  -26.7890   18.8330 O.3    73  DA73       -0.3114
   1482  C5'       -1.9570  -27.6660   17.8610 C.3    73  DA73        0.1811
   1483  C4'       -2.4320  -26.8990   16.6370 C.3    73  DA73        0.1746
   1484  O4'       -3.4050  -25.9250   17.0940 O.3    73  DA73       -0.3327
   1485  C3'       -1.3850  -26.0560   15.9050 C.3    73  DA73        0.1558
   1486  O3'       -0.6610  -26.7500   14.8730 O.3    73  DA73       -0.3138
   1487  C2'       -2.2120  -24.9210   15.3260 C.3    73  DA73        0.0865
   1488  C1'       -3.1890  -24.6640   16.4690 C.3    73  DA73        0.2094
   1489  N9        -2.8070  -23.6310   17.4790 N.ar   73  DA73       -0.2714
   1490  C8        -2.4690  -23.8620   18.7870 C.ar   73  DA73        0.1815
   1491  N7        -2.1980  -22.7710   19.4640 N.ar   73  DA73       -0.2193
   1492  C5        -2.3700  -21.7550   18.5380 C.ar   73  DA73        0.1518
   1493  C6        -2.2350  -20.3590   18.6300 C.ar   73  DA73        0.1919
   1494  N6        -1.8820  -19.7220   19.7490 N.pl3  73  DA73       -0.1054
   1495  N1        -2.4780  -19.6310   17.5180 N.ar   73  DA73       -0.2040
   1496  C2        -2.8330  -20.2700   16.3980 C.ar   73  DA73        0.2016
   1497  N3        -2.9940  -21.5750   16.1880 N.ar   73  DA73       -0.2048
   1498  C4        -2.7440  -22.2690   17.3110 C.ar   73  DA73        0.1691
   1499  P          1.1460  -26.5200   14.6500 P.3    74  DC74        0.2141
   1500  OP1        1.9420  -27.5260   13.9130 O.2    74  DC74       -0.5172
   1501  OP2        1.4260  -26.2480   16.0740 O.3    74  DC74       -0.4373
   1502  O5'        1.2130  -25.0760   13.9540 O.3    74  DC74       -0.3114
   1503  C5'        0.6850  -24.8680   12.6500 C.3    74  DC74        0.1811
   1504  C4'        0.1150  -23.4800   12.4900 C.3    74  DC74        0.1746
   1505  O4'       -0.6670  -23.1790   13.6670 O.3    74  DC74       -0.3327
   1506  C3'        1.1080  -22.3270   12.3780 C.3    74  DC74        0.1558
   1507  O3'        1.5710  -22.1260   11.0460 O.3    74  DC74       -0.3138
   1508  C2'        0.3090  -21.1490   12.9220 C.3    74  DC74        0.0866
   1509  C1'       -0.5600  -21.8120   13.9880 C.3    74  DC74        0.2106
   1510  N1        -0.0940  -21.4170   15.1510 N.ar   74  DC74       -0.2556
   1511  C2        -0.1210  -20.1080   15.6470 C.ar   74  DC74        0.3531
   1512  O2        -0.5990  -19.2090   14.9340 O.2    74  DC74       -0.2443
   1513  N3         0.3720  -19.8610   16.8830 N.ar   74  DC74       -0.1739
   1514  C4         0.8770  -20.8570   17.6120 C.ar   74  DC74        0.1759
   1515  N4         1.3520  -20.5660   18.8250 N.pl3  74  DC74       -0.1070
   1516  C5         0.9140  -22.1900   17.1280 C.ar   74  DC74        0.0566
   1517  C6         0.4250  -22.4300   15.9060 C.ar   74  DC74        0.0849
   1518  P          2.8610  -21.4020   10.5790 P.3    75  DC75        0.2141
   1519  OP1        2.0040  -20.8140    9.5250 O.2    75  DC75       -0.5172
   1520  OP2        3.9160  -22.3860   10.2520 O.3    75  DC75       -0.4373
   1521  O5'        3.5580  -20.2130   11.3820 O.3    75  DC75       -0.3114
   1522  C5'        2.8290  -19.0490   11.7090 C.3    75  DC75        0.1811
   1523  C4'        2.9670  -18.7940   13.1960 C.3    75  DC75        0.1746
   1524  O4'        3.0380  -20.0670   13.8740 O.3    75  DC75       -0.3327
   1525  C3'        4.2570  -18.1190   13.6220 C.3    75  DC75        0.1558
   1526  O3'        4.1920  -16.7210   13.3970 O.3    75  DC75       -0.3138
   1527  C2'        4.3110  -18.4840   15.1050 C.3    75  DC75        0.0866
   1528  C1'        3.7660  -19.9040   15.0740 C.3    75  DC75        0.2106
   1529  N1         4.7820  -20.8370   15.1560 N.ar   75  DC75       -0.2556
   1530  C2         5.4530  -21.1000   16.3560 C.ar   75  DC75        0.3531
   1531  O2         5.1930  -20.4020   17.3510 O.2    75  DC75       -0.2443
   1532  N3         6.3630  -22.1030   16.3970 N.ar   75  DC75       -0.1739
   1533  C4         6.6100  -22.8250   15.3040 C.ar   75  DC75        0.1759
   1534  N4         7.5150  -23.8020   15.3920 N.pl3  75  DC75       -0.1070
   1535  C5         5.9410  -22.5740   14.0780 C.ar   75  DC75        0.0566
   1536  C6         5.0430  -21.5840   14.0420 C.ar   75  DC75        0.0849
   1537  P          5.5520  -15.8670   13.1980 P.3    76  DG76        0.2141
   1538  OP1        5.3190  -14.5260   12.6140 O.3    76  DG76       -0.4373
   1539  OP2        6.2730  -16.9000   12.4240 O.2    76  DG76       -0.5172
   1540  O5'        6.3990  -15.7510   14.5530 O.3    76  DG76       -0.3114
   1541  C5'        5.8270  -15.2110   15.7380 C.3    76  DG76        0.1811
   1542  C4'        6.6610  -15.5130   16.9580 C.3    76  DG76        0.1746
   1543  O4'        6.5660  -16.9220   17.3000 O.3    76  DG76       -0.3327
   1544  C3'        8.1550  -15.2860   16.8140 C.3    76  DG76        0.1558
   1545  O3'        8.5260  -13.9240   16.9120 O.3    76  DG76       -0.3138
   1546  C2'        8.7250  -16.1580   17.9260 C.3    76  DG76        0.0865
   1547  C1'        7.7820  -17.3590   17.8780 C.3    76  DG76        0.2094
   1548  N9         8.3710  -18.4610   17.0870 N.ar   76  DG76       -0.2713
   1549  C8         8.0290  -18.9360   15.8440 C.ar   76  DG76        0.1816
   1550  N7         8.7930  -19.9120   15.4370 N.ar   76  DG76       -0.2173
   1551  C5         9.6930  -20.0980   16.4710 C.ar   76  DG76        0.1748
   1552  C6        10.7660  -21.0160   16.6070 C.ar   76  DG76        0.3023
   1553  O6        11.1420  -21.8790   15.8040 O.2    76  DG76       -0.2633
   1554  N1        11.4300  -20.8640   17.8210 N.ar   76  DG76       -0.1709
   1555  C2        11.1000  -19.9410   18.7850 C.ar   76  DG76        0.2606
   1556  N2        11.8560  -19.9470   19.8910 N.pl3  76  DG76       -0.0859
   1557  N3        10.1060  -19.0820   18.6720 N.ar   76  DG76       -0.1918
   1558  C4         9.4480  -19.2100   17.5010 C.ar   76  DG76        0.1722
   1559  P          9.5200  -13.3530   15.8700 P.3    77  DT77        0.2141
   1560  OP1        9.4190  -11.8780   15.9370 O.3    77  DT77       -0.4373
   1561  OP2        9.2480  -14.0680   14.6030 O.2    77  DT77       -0.5172
   1562  O5'       10.9940  -13.8160   16.2730 O.3    77  DT77       -0.3114
   1563  C5'       11.4660  -13.4930   17.5720 C.3    77  DT77        0.1812
   1564  C4'       12.4250  -14.5280   18.0990 C.3    77  DT77        0.1775
   1565  O4'       11.8390  -15.8500   17.9940 O.3    77  DT77       -0.3326
   1566  C3'       13.7370  -14.6790   17.3490 C.3    77  DT77        0.1859
   1567  O3'       14.6690  -13.6460   17.6110 O.3    77  DT77       -0.2202
   1568  C2'       14.1930  -16.0510   17.8190 C.3    77  DT77        0.0895
   1569  C1'       12.8640  -16.8020   17.7950 C.3    77  DT77        0.2107
   1570  N1        12.6430  -17.4950   16.5070 N.ar   77  DT77       -0.2559
   1571  C2        13.1650  -18.7540   16.2770 C.ar   77  DT77        0.3545
   1572  O2        14.0100  -19.2640   16.9910 O.2    77  DT77       -0.2443
   1573  N3        12.6610  -19.3990   15.1730 N.ar   77  DT77       -0.1533
   1574  C4        11.7100  -18.9220   14.2960 C.ar   77  DT77        0.2804
   1575  O4        11.3560  -19.6200   13.3490 O.2    77  DT77       -0.2654
   1576  C5        11.2180  -17.6080   14.6020 C.ar   77  DT77        0.0534
   1577  C6        11.6900  -16.9590   15.6690 C.ar   77  DT77        0.0824
   1578  C7        10.1800  -17.0010   13.7060 C.3    77  DT77        0.0377
   1579  P         15.0870  -12.8930   16.3400 P.3    78  DG78        0.4149
   1580  OP1       16.0730  -11.7880   16.3140 O.2    78  DG78       -0.2668
   1581  OP2       14.3950  -13.2780   15.0900 O.3    78  DG78       -0.1481
   1582  O5'       15.7960  -14.2000   16.9200 O.3    78  DG78       -0.2177
   1583  C5'       16.6710  -14.1340   18.0460 C.3    78  DG78        0.2140
   1584  C4'       17.8070  -15.1160   17.8750 C.3    78  DG78        0.1776
   1585  O4'       17.2450  -16.4140   17.6090 O.3    78  DG78       -0.3326
   1586  C3'       18.7690  -14.8090   16.7360 C.3    78  DG78        0.1559
   1587  O3'       19.8670  -14.0980   17.3340 O.3    78  DG78       -0.3138
   1588  C2'       19.1810  -16.1860   16.2060 C.3    78  DG78        0.0865
   1589  C1'       18.0190  -17.0840   16.6460 C.3    78  DG78        0.2094
   1590  N9        17.3600  -17.6520   15.7400 N.ar   78  DG78       -0.2713
   1591  C8        16.5100  -16.9160   14.9500 C.ar   78  DG78        0.1816
   1592  N7        16.3390  -17.4280   13.7620 N.ar   78  DG78       -0.2173
   1593  C5        17.1180  -18.5700   13.7650 C.ar   78  DG78        0.1748
   1594  C6        17.3380  -19.5400   12.7540 C.ar   78  DG78        0.3023
   1595  O6        16.8640  -19.5770   11.6110 O.2    78  DG78       -0.2633
   1596  N1        18.2070  -20.5430   13.1740 N.ar   78  DG78       -0.1709
   1597  C2        18.7910  -20.6040   14.4170 C.ar   78  DG78        0.2606
   1598  N2        19.6000  -21.6490   14.6390 N.pl3  78  DG78       -0.0859
   1599  N3        18.5970  -19.7100   15.3660 N.ar   78  DG78       -0.1918
   1600  C4        17.7580  -18.7260   14.9800 C.ar   78  DG78        0.1722
   1601  P         21.3410  -13.8630   16.5040 P.3    79  DA79        0.2141
   1602  OP1       22.0020  -12.7490   17.2220 O.3    79  DA79       -0.4373
   1603  OP2       20.5020  -13.5630   15.3240 O.2    79  DA79       -0.5172
   1604  O5'       22.4690  -14.9150   16.0770 O.3    79  DA79       -0.3114
   1605  C5'       23.3230  -15.4800   17.0680 C.3    79  DA79        0.1812
   1606  C4'       23.4480  -16.9830   16.8990 C.3    79  DA79        0.1775
   1607  O4'       22.1460  -17.6070   16.7330 O.3    79  DA79       -0.3326
   1608  C3'       24.1740  -17.4350   15.6420 C.3    79  DA79        0.1859
   1609  O3'       25.5730  -17.1890   15.7010 O.3    79  DA79       -0.2203
   1610  C2'       23.7620  -18.9060   15.6020 C.3    79  DA79        0.0894
   1611  C1'       22.2690  -18.7340   15.8720 C.3    79  DA79        0.2095
   1612  N9        21.6180  -18.4130   14.4890 N.ar   79  DA79       -0.2714
   1613  C8        20.7370  -17.3730   14.3440 C.ar   79  DA79        0.1815
   1614  N7        20.0730  -17.3950   13.2120 N.ar   79  DA79       -0.2193
   1615  C5        20.5510  -18.5270   12.5700 C.ar   79  DA79        0.1518
   1616  C6        20.2460  -19.1080   11.3260 C.ar   79  DA79        0.1919
   1617  N6        19.3480  -18.6050   10.4760 N.pl3  79  DA79       -0.1054
   1618  N1        20.9040  -20.2360   10.9840 N.ar   79  DA79       -0.2040
   1619  C2        21.8030  -20.7390   11.8380 C.ar   79  DA79        0.2016
   1620  N3        22.1740  -20.2850   13.0330 N.ar   79  DA79       -0.2048
   1621  C4        21.5030  -19.1630   13.3430 C.ar   79  DA79        0.1691
   1622  P         26.6020  -16.0140   13.5970 P.3    80  DA80        0.5411
   1623  OP1       25.1420  -16.2270   13.7860 O.2    80  DA80       -0.2272
   1624  OP2       27.4080  -15.4130   14.6960 O.2    80  DA80       -0.2272
   1625  O5'       27.2920  -17.3930   13.1910 O.3    80  DA80       -0.2722
   1626  C5'       27.1370  -18.5360   14.0170 C.3    80  DA80        0.1850
   1627  C4'       27.4840  -19.7970   13.2620 C.3    80  DA80        0.1755
   1628  O4'       28.9300  -19.9600   13.2190 O.3    80  DA80       -0.3510
   1629  C3'       26.9860  -21.0420   13.9760 C.3    80  DA80        0.1839
   1630  O3'       25.6330  -21.3160   13.6460 O.3    80  DA80       -0.2204
   1631  C2'       27.9760  -22.1110   13.5340 C.3    80  DA80        0.0676
   1632  C1'       29.2770  -21.3100   13.4970 C.3    80  DA80        0.1450
   1633  N9        25.0330  -19.6490   11.1210 N.2    80  DA80       -0.0102
   1634  C8        24.4470  -18.6310   11.8280 C.2    80  DA80        0.3354
   1635  N7        23.6140  -17.9070   11.1190 N.2    80  DA80       -0.2028
   1636  C5        23.6560  -18.4870    9.8610 C.3    80  DA80        0.3315
   1637  C6        22.9970  -18.1850    8.6570 C.2    80  DA80        0.4301
   1638  N6        22.1290  -17.1790    8.5220 N.pl3  80  DA80        0.2140
   1639  N1        23.2640  -18.9610    7.5850 N.2    80  DA80        0.0200
   1640  C2        24.1330  -19.9690    7.7220 C.2    80  DA80        0.4720
   1641  N3        24.8130  -20.3520    8.7990 N.2    80  DA80        0.0177
   1642  C4        24.5270  -19.5610    9.8470 C.2    80  DA80        0.3923
@<TRIPOS>BOND
     1   804   803    2
     2   784   783    2
     3   803   805    1
     4   803   791    1
     5   803   806    1
     6   787   786    1
     7   787   788    1
     8   783   771    1
     9   783   786    1
    10   783   785    1
    11   791   790    1
    12   764   763    2
    13   771   770    1
    14   788   790    1
    15   788   789    1
    16   767   768    1
    17   767   766    1
    18   807   806    1
    19   807   808    1
    20   790   792    1
    21   768   770    1
    22   768   769    1
    23   763   766    1
    24   763   751    1
    25   763   765    1
    26   770   772    1
    27   789   793    1
    28   808   809    1
    29   808   810    1
    30   206   205    2
    31   751   750    1
    32   792   793    1
    33   772   773    1
    34   191   205    1
    35   191   190    1
    36   827   825    2
    37   811   825    1
    38   811   810    1
    39   187   188    1
    40   187   186    1
    41   769   773    1
    42   184   183    2
    43   793   794    1
    44   809   813    1
    45   188   190    1
    46   188   189    1
    47   825   826    1
    48   825   828    1
    49   810   812    1
    50   209   208    1
    51   209   210    1
    52   205   208    1
    53   205   207    1
    54   744   743    2
    55  1024  1023    2
    56   773   774    1
    57   801   794   ar
    58   801   800   ar
    59   190   192    1
    60   750   748    1
    61   750   752    1
    62  1007  1008    1
    63  1007  1006    1
    64  1011  1023    1
    65  1011  1010    1
    66  1008  1009    1
    67  1008  1010    1
    68   189   193    1
    69   794   795   ar
    70   210   211    1
    71   210   212    1
    72   802   800    1
    73   186   183    1
    74   183   170    1
    75   183   185    1
    76   192   193    1
    77   748   747    1
    78   748   749    1
    79   170   169    1
    80   752   753    1
    81  1027  1028    1
    82  1027  1026    1
    83   213   212    1
    84   213   226    1
    85  1004  1003    2
    86   813   812    1
    87   813   814    1
    88   747   746    1
    89   815   814   ar
    90   815   816   ar
    91   227   226    2
    92   828   829    1
    93   800   798   ar
    94  1023  1026    1
    95  1023  1025    1
    96   193   194    1
    97  1009  1013    1
    98  1010  1012    1
    99   991  1003    1
   100   991   990    1
   101   746   743    1
   102   743   745    1
   103   743   731    1
   104   774   781    1
   105   774   775    1
   106   211   215    1
   107   171   169    1
   108   171   172    1
   109   781   780    2
   110   212   214    1
   111  1006  1003    1
   112   814   824   ar
   113   829   830    1
   114  1003  1005    1
   115  1012  1013    1
   116   226   228    1
   117   226   229    1
   118  1028  1029    1
   119  1028  1030    1
   120   816   817   ar
   121   988   990    1
   122   988   987    1
   123   988   989    1
   124   169   167    1
   125   795   796    2
   126   795   797   ar
   127  1013  1014    1
   128   167   168    1
   129   167   166    1
   130   992   990    1
   131   992   993    1
   132   749   753    1
   133   753   754    1
   134   172   168    1
   135   172   173    1
   136  1029  1033    1
   137   776   775    1
   138   776   349    1
   139   987   986    1
   140   731   730    1
   141   775   349    1
   142   775   777    1
   143   989   993    1
   144   798   797   ar
   145   798   799    2
   146  1046  1045    2
   147   214   215    1
   148  1031  1030    1
   149  1031  1045    1
   150   993   994    1
   151   215   216    1
   152   349   348    1
   153   780   782    1
   154   780   778    1
   155   194   195   ar
   156   194   204   ar
   157  1030  1032    1
   158   166   165    1
   159  1049  1050    1
   160  1049  1048    1
   161   824   817   ar
   162   824   823   ar
   163   817   818   ar
   164   229   230    1
   165   996   995    2
   166   830   831    1
   167   830   832    1
   168   230   231    1
   169   837   838   ar
   170   837   836   ar
   171   848   846    2
   172   165   162    1
   173   195   196   ar
   174   838   839   ar
   175  1014  1021   ar
   176  1014  1015   ar
   177   754   761   ar
   178   754   755   ar
   179  1045  1048    1
   180  1045  1047    1
   181   181   180   ar
   182   181   182   ar
   183   831   835    1
   184   777   778   am
   185   865   863    1
   186   203   204   ar
   187   203   201   ar
   188  1068  1067    2
   189  1033  1032    1
   190  1033  1034    1
   191   357   358    1
   192   357   356    1
   193   357   359    1
   194   730   732    1
   195   730   728    1
   196   756   755    2
   197   217   216   ar
   198   217   218   ar
   199  1050  1051    1
   200  1050  1052    1
   201   204   197   ar
   202   847   846    1
   203   761   760   ar
   204   216   225   ar
   205   986   983    1
   206   732   733    1
   207   778   779    2
   208   358   362    1
   209  1016  1015    2
   210   984   983    2
   211  1021  1020   ar
   212   173   182   ar
   213   173   174   ar
   214   832   833    1
   215   832   834    1
   216   360   359    1
   217   360   373    1
   218   348   350   ar
   219   348   347   ar
   220   994   995   ar
   221   994  1001   ar
   222   755   757   ar
   223   846   833    1
   224   846   849    1
   225   972   970    1
   226   972   973    1
   227   971   983    1
   228   971   970    1
   229  1053  1067    1
   230  1053  1052    1
   231   823   821   ar
   232   995   997   ar
   233   361   362    1
   234   361   359    1
   235   180   179   ar
   236   356   355    1
   237   362   363    1
   238  1015  1017   ar
   239   182   176   ar
   240   818   819    2
   241   818   820   ar
   242   350   351   ar
   243   976   975    2
   244   836   835    1
   245   836   845   ar
   246   862   861    2
   247   156   155    2
   248   983   985    1
   249  1051  1055    1
   250   152   150    1
   251   152   153    1
   252   196   197   ar
   253  1035  1034   ar
   254  1035  1036   ar
   255   151   162    1
   256   151   150    1
   257   231   232    1
   258   231   233    1
   259  1067  1070    1
   260  1067  1069    1
   261   760   762    1
   262   760   758   ar
   263  1034  1044   ar
   264   839   845   ar
   265   839   840   ar
   266    20    19    2
   267  1052  1054    1
   268   162   163    2
   269   162   164    1
   270   201   202    1
   271   201   200   ar
   272   835   834    1
   273  1070  1071    1
   274   347   345   ar
   275   970   968    1
   276   728   727    1
   277   728   729    1
   278   374   373    2
   279   218   219   ar
   280   197   198   ar
   281   757   758   ar
   282   841   840    1
   283   863   861   ar
   284   863   864   ar
   285   232   236    1
   286   377   378    1
   287   377   376    1
   288   174   175   ar
   289  1001  1000   ar
   290   736   735    2
   291   225   224   ar
   292   225   219   ar
   293   973   969    1
   294   973   974    1
   295  1020  1022    1
   296  1020  1018   ar
   297   373   376    1
   298   373   375    1
   299     2     1    1
   300     2     3    1
   301   821   820   ar
   302   821   822    1
   303   861   860   ar
   304   733   729    1
   305   733   734    1
   306   238   239   ar
   307   238   237   ar
   308   758   759    2
   309   845   844   ar
   310   150   148    1
   311   997   998   ar
   312   727   726    1
   313   153   154    1
   314   153   149    1
   315   840   842   ar
   316   339   340    1
   317   339   337    1
   318   179   177   ar
   319   968   969    1
   320   968   967    1
   321   363   372   ar
   322   363   364   ar
   323  1071  1072    1
   324  1017  1018   ar
   325  1054  1055    1
   326   849   850    1
   327   975   974   ar
   328   975   977   ar
   329   379   378    1
   330   379   383    1
   331   326   327   ar
   332   326   324   ar
   333  1055  1056    1
   334   378   380    1
   335   355   352    1
   336   155   154   ar
   337   155   157   ar
   338   250   248    2
   339   224   223   ar
   340   176   175   ar
   341   176   177   ar
   342   233   234    1
   343   233   235    1
   344   239   240   ar
   345   351   341   ar
   346   351   344   ar
   347  1036  1037   ar
   348   219   220   ar
   349   327   328   ar
   350   371   372   ar
   351   371   370   ar
   352   353   352    2
   353   735   734   ar
   354   735   737   ar
   355   148   149    1
   356   148   147    1
   357   234   248    1
   358    19    21    1
   359    19     6    1
   360    19    22    1
   361   249   248    1
   362   734   741   ar
   363   864   857   ar
   364   200   198   ar
   365  1044  1043   ar
   366  1044  1037   ar
   367   974   981   ar
   368   340   341    1
   369   340   336    1
   370  1018  1019    2
   371     3     5    1
   372     3     4    1
   373   198   199    2
   374   372   366   ar
   375   345   344   ar
   376   345   346    2
   377   154   161   ar
   378   248   251    1
   379     6     5    1
   380   177   178    1
   381   364   365   ar
   382   157   158   ar
   383  1000   998   ar
   384  1000  1002    1
   385   338   352    1
   386   338   337    1
   387   236   237    1
   388   236   235    1
   389   237   247   ar
   390   352   354    1
   391  1043  1041   ar
   392   325   324    1
   393   341   342   ar
   394   860   858   ar
   395   850   851    1
   396   977   978   ar
   397   998   999    2
   398   737   738   ar
   399  1037  1038   ar
   400   370   369   ar
   401   844   843   ar
   402   324   323   ar
   403   344   343   ar
   404   383   382    1
   405   383   384    1
   406   337   335    1
   407   967   966    1
   408  1072  1073    1
   409  1072  1074    1
   410   726   723    1
   411   842   843   ar
   412   741   740   ar
   413  1056  1057   ar
   414  1056  1066   ar
   415   328   329   ar
   416   223   222   ar
   417     5     7    1
   418   147   146    1
   419     4     8    1
   420   380   381    1
   421   380   382    1
   422   240   247   ar
   423   240   241   ar
   424  1057  1058   ar
   425   336   335    1
   426   957   956    2
   427   220   222   ar
   428   220   221    1
   429   140   139   ar
   430   140   141   ar
   431    22    23    1
   432  1090  1089    2
   433   857   858   ar
   434   857   856    1
   435   381   393    1
   436  1073  1077    1
   437   366   365   ar
   438   366   367   ar
   439   335   334    1
   440   306   305    1
   441    23    24    1
   442   981   980   ar
   443   391   384   ar
   444   391   390   ar
   445   852   851    1
   446   852   856    1
   447   161   160   ar
   448   738   740   ar
   449   738   739    2
   450   247   246   ar
   451   158   160   ar
   452   158   159    1
   453  1091  1089    1
   454   740   742    1
   455   858   859    2
   456   384   385   ar
   457   139   137   ar
   458  1041  1042    1
   459  1041  1040   ar
   460  1089  1075    1
   461  1089  1092    1
   462   146   143    1
   463   369   367   ar
   464   141   142   ar
   465   392   390    1
   466   851   853    1
   467   251   252    1
   468   342   343   ar
   469  1075  1074    1
   470   242   241    2
   471   966   963    1
   472   724   723    2
   473   978   980   ar
   474   978   979    2
   475   323   329   ar
   476   323   322   ar
   477   329   320   ar
   478  1038  1040   ar
   479  1038  1039    2
   480   723   725    1
   481   723   711    1
   482  1074  1076    1
   483   958   956   ar
   484   958   959   ar
   485   241   243   ar
   486     7     8    1
   487   390   388   ar
   488   956   955   ar
   489   367   368    1
   490   261   260   ar
   491   261   262   ar
   492  1066  1065   ar
   493  1066  1059   ar
   494   856   855    1
   495   304   305   ar
   496   304   302   ar
   497     8     9    1
   498   980   982    1
   499  1058  1059   ar
   500   393   395    2
   501   393   396    1
   502   393   394    1
   503   716   715    2
   504   853   855    1
   505   853   854    1
   506   305   307   ar
   507  1065  1063   ar
   508   264   263    2
   509   260   259   ar
   510   385   386    2
   511   385   387   ar
   512  1077  1076    1
   513  1077  1078    1
   514   397   396    1
   515   397   398    1
   516   712   710    1
   517   712   713    1
   518    24    25    1
   519    24    26    1
   520   334   333    1
   521   252   253    1
   522   246   244   ar
   523   711   710    1
   524  1079  1078   ar
   525  1079  1080   ar
   526   131   132    1
   527   131   129    1
   528   953   954    1
   529   953   951    1
   530   137   138    1
   531   137   136   ar
   532   960   959    1
   533   142   136   ar
   534   142   133   ar
   535  1059  1060   ar
   536   289   287    1
   537   959   961   ar
   538   388   387   ar
   539   388   389    2
   540   855   878    1
   541   715   717   ar
   542   715   714   ar
   543   143   144    2
   544   143   130    1
   545   143   145    1
   546   322   321   ar
   547   854   866    1
   548   286   285    2
   549    10     9    1
   550    10    11    2
   551   262   263   ar
   552   262   269   ar
   553   963   964    2
   554   963   952    1
   555   963   965    1
   556   868   866    2
   557   320   319    1
   558   320   321   ar
   559    25    29    1
   560   303   302    2
   561  1092  1093    1
   562   243   244   ar
   563   955   954    1
   564   955   962   ar
   565   302   301   ar
   566   263   265   ar
   567   866   867    1
   568   866   869    1
   569   130   129    1
   570     9    18    1
   571   272   270    2
   572   717   718   ar
   573   954   950    1
   574   710   708    1
   575   882   881    1
   576  1078  1088   ar
   577  1080  1081   ar
   578   333   330    1
   579   399   398    1
   580   399   403    1
   581    27    26    1
   582    27    41    1
   583   244   245    1
   584   136   135   ar
   585   398   400    1
   586   307   308   ar
   587    26    28    1
   588   132   133    1
   589   132   128    1
   590  1063  1064    1
   591  1063  1062   ar
   592   318   319    1
   593   318   316    1
   594   903   902    1
   595   713   714    1
   596   713   709    1
   597    42    41    2
   598  1093  1094    1
   599   319   315    1
   600   129   127    1
   601   254   253    1
   602   254   258    1
   603   714   721   ar
   604   133   134   ar
   605   259   269   ar
   606   259   258    1
   607   879   878   ar
   608   879   880   ar
   609   952   951    1
   610   253   255    1
   611   922   921    1
   612    31    32   ar
   613    31    30   ar
   614   951   949    1
   615   285   287   ar
   616   285   284   ar
   617   287   288   ar
   618   961   962   ar
   619   718   719    2
   620   718   720   ar
   621    11    12    1
   622    41    43    1
   623    41    44    1
   624   269   268   ar
   625  1060  1062   ar
   626  1060  1061    2
   627   938   937    2
   628   939   937   ar
   629   939   940   ar
   630   941   940    1
   631   301   308   ar
   632   301   300    1
   633   708   709    1
   634   708   707    1
   635   255   256    1
   636   255   257    1
   637   869   870    1
   638   270   271    1
   639   270   256    1
   640   270   273    1
   641    29    28    1
   642    29    30    1
   643   881   880   ar
   644   881   883   ar
   645    32    33   ar
   646   265   266   ar
   647   878   877   ar
   648    18    12    1
   649    18    17    1
   650   950   949    1
   651   258   257    1
   652   721   720   ar
   653   405   404   ar
   654   405   406   ar
   655   403   404    1
   656   403   402    1
   657  1088  1081   ar
   658  1088  1087   ar
   659  1081  1082   ar
   660   880   886   ar
   661   135   134   ar
   662   127   128    1
   663   127   126    1
   664   316   317    1
   665   316   314    1
   666   720   722    1
   667    30    40   ar
   668   902   904   ar
   669   902   901   ar
   670   330   317    1
   671   330   332    2
   672   330   331    1
   673  1112  1111    1
   674   937   936   ar
   675   400   401    1
   676   400   402    1
   677   949   948    1
   678   699   700   ar
   679   699   697   ar
   680   700   701   ar
   681   940   942   ar
   682   315   314    1
   683   116   115    2
   684   404   414   ar
   685    12    13    2
   686  1094  1095    1
   687  1094  1096    1
   688   921   920   ar
   689   921   923   ar
   690   284   282   ar
   691    17    16    2
   692   117   115   ar
   693   117   118   ar
   694   288   281   ar
   695   406   407   ar
   696    44    45    1
   697   904   905   ar
   698  1101  1102   ar
   699  1101  1100   ar
   700   401   415    1
   701  1102  1103   ar
   702   920   918   ar
   703   119   118    1
   704   268   266   ar
   705   883   884   ar
   706   300   299    1
   707   300   296    1
   708   266   267    1
   709   273   274    1
   710   707   706    1
   711  1095  1099    1
   712  1087  1085   ar
   713  1096  1097    1
   714  1096  1113    1
   715  1096  1098    1
   716   901   899   ar
   717   870   871    1
   718  1097  1113    1
   719   115   114   ar
   720   314   313    1
   721    33    40   ar
   722    33    34   ar
   723  1082  1083    2
   724  1082  1084   ar
   725   701   702   ar
   726   877   886   ar
   727   877   876    1
   728  1111  1114    1
   729   698   697    1
   730   299   297    1
   731   697   696   ar
   732   886   885   ar
   733   118   120   ar
   734    40    39   ar
   735    97    96    2
   736   414   407   ar
   737   414   413   ar
   738   126   125    1
   739   706   703    1
   740   416   415    2
   741   923   924   ar
   742   889   887    2
   743   407   408   ar
   744   415   418    1
   745   415   417    1
   746   936   935    1
   747   936   943   ar
   748    45    46    1
   749   281   282   ar
   750   281   280    1
   751   948   947    1
   752   282   283    2
   753   942   943   ar
   754  1100  1099    1
   755  1100  1110   ar
   756    13    14    1
   757    13    15    1
   758   872   871    1
   759   872   876    1
   760    16    15    1
   761   905   898   ar
   762    98    96   ar
   763    98    99   ar
   764   296   295    1
   765  1148  1147    2
   766   918   919    2
   767   918   917   ar
   768  1103  1110   ar
   769  1103  1104   ar
   770   292   290    2
   771   884   885   ar
   772  1099  1098    1
   773   312   313    1
   774   312   309    1
   775   871   873    1
   776   418   419    1
   777  1085  1084   ar
   778  1085  1086    1
   779   702   696   ar
   780   702   693   ar
   781   947   944    1
   782   413   411   ar
   783   125   122    1
   784   873   874    1
   785   873   875    1
   786   934   935    1
   787   934   932    1
   788   696   695   ar
   789    96    95   ar
   790    34    35    2
   791    34    36   ar
   792   274   275    1
   793   100    99    1
   794   935   931    1
   795    58    59   ar
   796    58    56   ar
   797   876   875    1
   798  1105  1104    2
   799   899   898   ar
   800   899   900    2
   801   297   295    1
   802   297   298    1
   803   114   113    1
   804   114   121   ar
   805   408   409    2
   806   408   410   ar
   807    15  1231    1
   808    39    37   ar
   809    59    52   ar
   810  1286  1285    2
   811   691   692    1
   812   691   689    1
   813    76    75    1
   814   311   309    2
   815  1114  1115    1
   816   112   113    1
   817   112   110    1
   818   120   121   ar
   819   276   280    1
   820   276   275    1
   821   924   917   ar
   822  1110  1109   ar
   823    99   101   ar
   824  1104  1106   ar
   825  1127  1126    1
   826   898   897    1
   827    47    46    1
   828    47    51    1
   829   887   874    1
   830   887   888    1
   831   887   890    1
   832   293   290    1
   833   293   294    1
   834   703   705    2
   835   703   704    1
   836   703   690    1
   837    46    48    1
   838  1124  1123   ar
   839  1124  1125   ar
   840   113   109    1
   841   280   279    1
   842   917   916    1
   843   411   410   ar
   844   411   412    1
   845   295   294    1
   846   693   692    1
   847   693   694   ar
   848   275   277    1
   849  1147  1149   ar
   850  1147  1146   ar
   851    57    56    1
   852   309   298    1
   853   309   310    1
   854  1287  1285   ar
   855  1287  1288   ar
   856   277   279    1
   857   277   278    1
   858   692   688    1
   859   695   694   ar
   860   290   278    1
   861   290   291    1
   862    56    55   ar
   863   690   689    1
   864   419   420    1
   865    36    37   ar
   866   932   933    1
   867   932   930    1
   868  1285  1284   ar
   869    62    60    2
   870   908   906    2
   871    37    38    1
   872    95    94   ar
   873    95   102   ar
   874   421   420    1
   875   421   425    1
   876  1123  1122   ar
   877   689   687    1
   878   931   930    1
   879   944   946    2
   880   944   933    1
   881   944   945    1
   882  1231  1230    1
   883   122   124    2
   884   122   111    1
   885   122   123    1
   886  1115  1116    1
   887  1289  1288    1
   888  1289    77    1
   889    52    51    1
   890    52    53   ar
   891  1149  1150   ar
   892   890   891    1
   893  1298  1299    1
   894  1298  1297    1
   895  1298  1300    1
   896  1145  1146   ar
   897  1145  1144   ar
   898  1299  1303    1
   899  1126  1125   ar
   900  1126  1128   ar
   901   110   111    1
   902   110   108    1
   903    75    74    2
   904    75    77    1
   905  1234  1232    1
   906  1125  1131   ar
   907    73    74    1
   908    73    72    2
   909   101   102   ar
   910    51    50    1
   911    48    49    1
   912    48    50    1
   913   433   432   ar
   914   433   426   ar
   915  1109  1107   ar
   916  1146  1153   ar
   917   420   422    1
   918  1106  1107   ar
   919  1288  1290   ar
   920   432   430   ar
   921  1251  1250    1
   922  1297  1296    1
   923  1176  1175    2
   924   897   893    1
   925   897   896    1
   926  1195  1194    2
   927    94    93   ar
   928   102    92   ar
   929   109   108    1
   930   916   915    1
   931   916   912    1
   932  1270  1269    1
   933   930   929    1
   934   893   892    1
   935  1303  1302    1
   936  1303  1304    1
   937    74    80    1
   938  1117  1116    1
   939  1117  1121    1
   940  1196  1194    1
   941    49    60    1
   942  1301  1300    1
   943  1301  1314    1
   944    55    53   ar
   945   425   426    1
   946   425   424    1
   947   688   687    1
   948  1302  1300    1
   949   894   896    1
   950   894   892    1
   951   894   895    1
   952  1107  1108    1
   953    60    61    1
   954    60    63    1
   955    77    78    1
   956  1284  1283    1
   957  1284  1291   ar
   958  1230  1232    1
   959  1230  1229    2
   960    53    54    2
   961   426   427   ar
   962   687   686    1
   963  1116  1118    1
   964  1217  1215    2
   965   906   909    1
   966   906   895    1
   967   906   907    1
   968  1122  1131   ar
   969  1122  1121    1
   970   915   913    1
   971  1295  1293    2
   972  1318  1319    1
   973  1318  1317    1
   974    72    71    1
   975   108   107    1
   976  1283  1282    1
   977  1283  1279    1
   978  1144  1143   ar
   979  1268  1269   ar
   980  1268  1266   ar
   981  1128  1129   ar
   982  1232  1233    2
   983   891   892    1
   984   912   911    1
   985   678   677    2
   986   430   431    1
   987   430   429   ar
   988  1194  1183    1
   989  1194  1197    1
   990  1150  1151    1
   991  1150  1152   ar
   992   928   929    1
   993   928   925    1
   994  1131  1130   ar
   995  1134  1132    2
   996  1315  1314    2
   997   909   910    1
   998  1153  1152   ar
   999  1153  1143   ar
  1000  1269  1271   ar
  1001    93    92   ar
  1002   927   925    2
  1003  1281  1293    1
  1004  1281  1280    1
  1005  1250  1249   ar
  1006  1250  1252   ar
  1007  1290  1291   ar
  1008  1290  1292    1
  1009  1296  1293    1
  1010  1121  1120    1
  1011    92    91    1
  1012   422   424    1
  1013   422   423    1
  1014   913   911    1
  1015   913   914    1
  1016  1175  1177    1
  1017  1175  1178    1
  1018  1175  1162    1
  1019  1282  1280    1
  1020  1118  1120    1
  1021  1118  1119    1
  1022  1304  1305   ar
  1023  1304  1313   ar
  1024  1267  1266    2
  1025  1319  1320    1
  1026  1319  1321    1
  1027   676   677   ar
  1028   676   674   ar
  1029  1314  1317    1
  1030  1314  1316    1
  1031   427   429   ar
  1032   427   428    2
  1033    63    64    1
  1034   677   679   ar
  1035    80    71    1
  1036    80    79    1
  1037  1249  1247   ar
  1038  1229  1227    2
  1039   106   107    1
  1040   106   103    1
  1041  1279  1278    1
  1042  1266  1265   ar
  1043  1143  1142    1
  1044  1293  1294    1
  1045  1183  1182    1
  1046    78    79    2
  1047   685   686    1
  1048   685   682    1
  1049   911   910    1
  1050  1320  1324    1
  1051    71    70    1
  1052  1129  1130   ar
  1053   925   914    1
  1054   925   926    1
  1055   684   682    2
  1056   675   674    2
  1057  1178  1179    1
  1058  1179  1180    1
  1059  1335  1334    2
  1060   105   103    2
  1061  1305  1306   ar
  1062  1312  1313   ar
  1063  1312  1311   ar
  1064   423   434    1
  1065  1280  1278    1
  1066  1233  1226    1
  1067  1197  1198    1
  1068  1252  1253   ar
  1069  1215  1216    1
  1070  1215  1218    1
  1071  1215  1202    1
  1072  1162  1161    1
  1073  1132  1119    1
  1074  1132  1133    1
  1075  1132  1135    1
  1076   674   673   ar
  1077  1313  1307   ar
  1078   581   580    2
  1079    90    91    1
  1080    90    88    1
  1081   436   434    2
  1082  1278  1277    1
  1083  1322  1321    1
  1084  1322  1334    1
  1085    91    87    1
  1086  1271  1272   ar
  1087   679   681    1
  1088   679   680   ar
  1089   682   683    1
  1090   682   670    1
  1091   103    89    1
  1092   103   104    1
  1093  1321  1323    1
  1094  1182  1180    1
  1095  1182  1184    1
  1096  1198  1199    1
  1097  1218  1219    1
  1098    64    65    1
  1099  1247  1248    2
  1100  1247  1246   ar
  1101  1227  1226    1
  1102  1227  1228    1
  1103   582   580    1
  1104   434   435    1
  1105   434   437    1
  1106  1180  1181    1
  1107    88    89    1
  1108    88    86    1
  1109  1156  1154    2
  1110  1311  1310   ar
  1111  1334  1336    1
  1112  1334  1337    1
  1113  1265  1272   ar
  1114  1265  1264    1
  1115    83    81    2
  1116  1226  1225    1
  1117    66    70    1
  1118    66    65    1
  1119  1142  1141    1
  1120  1142  1138    1
  1121  1306  1307   ar
  1122  1324  1323    1
  1123  1324  1325    1
  1124   673   680   ar
  1125   673   672    1
  1126  1202  1201    1
  1127    70    69    1
  1128  1307  1308   ar
  1129   580   583    1
  1130   580   566    1
  1131  1158  1159    1
  1132  1158  1157    1
  1133  1253  1246   ar
  1134   658   657    2
  1135  1135  1136    1
  1136   671   669    1
  1137   671   672    1
  1138  1161  1159    1
  1139  1161  1163    1
  1140  1141  1139    1
  1141  1138  1137    1
  1142    87    86    1
  1143  1139  1137    1
  1144  1139  1140    1
  1145  1201  1199    1
  1146  1201  1203    1
  1147    67    65    1
  1148    67    69    1
  1149    67    68    1
  1150  1332  1325   ar
  1151  1332  1331   ar
  1152   447   446   ar
  1153   447   448   ar
  1154    84    81    1
  1155    84    85    1
  1156  1159  1160    1
  1157  1228  1210    1
  1158  1246  1245    1
  1159   450   449    2
  1160  1136  1137    1
  1161  1277  1276    1
  1162   670   669    1
  1163   669   667    1
  1164  1199  1200    1
  1165  1207  1206   ar
  1166  1207  1208   ar
  1167  1310  1308   ar
  1168  1264  1263    1
  1169  1264  1260    1
  1170  1157  1154    1
  1171  1325  1326   ar
  1172   672   668    1
  1173   583   584    1
  1174  1333  1331    1
  1175    86    85    1
  1176  1184  1185    1
  1177   584   585    1
  1178   446   445   ar
  1179  1237  1235    2
  1180  1206  1205   ar
  1181   437   438    1
  1182  1308  1309    1
  1183  1219  1220    1
  1184  1154  1140    1
  1185  1154  1155    1
  1186    81    68    1
  1187    81    82    1
  1188  1181  1185    1
  1189  1221  1225    1
  1190  1221  1220    1
  1191   657   656   ar
  1192   657   659   ar
  1193  1276  1273    1
  1194  1263  1261    1
  1195   566   565    1
  1196  1337  1338    1
  1197  1225  1224    1
  1198  1163  1164    1
  1199  1338  1339    1
  1200   448   449    1
  1201   448   455   ar
  1202   449   451    1
  1203  1331  1329   ar
  1204   656   654   ar
  1205  1193  1192   ar
  1206  1193  1186   ar
  1207   620   618    1
  1208  1210  1209    2
  1209   438   439    1
  1210  1222  1220    1
  1211  1222  1224    1
  1212  1222  1223    1
  1213   661   659    1
  1214  1192  1190   ar
  1215   664   662    2
  1216  1200  1204    1
  1217  1203  1204    1
  1218   601   588    1
  1219  1185  1186    1
  1220   622   621    2
  1221  1208  1209   ar
  1222  1208  1214   ar
  1223  1245  1244    1
  1224  1245  1241    1
  1225   588   602    1
  1226   440   439    1
  1227   440   444    1
  1228   659   660   ar
  1229   445   455   ar
  1230   445   444    1
  1231  1160  1164    1
  1232   623   621    1
  1233   665   662    1
  1234   665   666    1
  1235  1205  1204    1
  1236  1205  1214   ar
  1237   668   667    1
  1238  1260  1259    1
  1239  1186  1187   ar
  1240  1326  1327    2
  1241  1326  1328   ar
  1242   667   666    1
  1243  1244  1242    1
  1244   455   454    1
  1245  1209  1211   ar
  1246  1261  1262    1
  1247  1261  1259    1
  1248   644   642    2
  1249   585   587    1
  1250   585   586    1
  1251   451   452    2
  1252   587   589    1
  1253  1340  1339    1
  1254  1340  1344    1
  1255   654   655    2
  1256   654   653   ar
  1257  1235  1238    1
  1258  1235  1223    1
  1259  1235  1236    1
  1260  1339  1341    1
  1261  1164  1165    1
  1262   565   563    1
  1263   565   567    1
  1264  1273  1275    2
  1265  1273  1262    1
  1266  1273  1274    1
  1267  1238  1239    1
  1268   662   663    1
  1269   662   650    1
  1270  1214  1213   ar
  1271   637   636    1
  1272   439   441    1
  1273   621   624    1
  1274   621   609    1
  1275  1329  1328   ar
  1276  1329  1330    2
  1277  1190  1191    1
  1278  1190  1189   ar
  1279   444   443    1
  1280   617   616    2
  1281  1241  1240    1
  1282  1242  1243    1
  1283  1242  1240    1
  1284   660   653   ar
  1285   618   616   ar
  1286   618   619   ar
  1287   562   563    1
  1288   562   561    1
  1289   634   633    2
  1290   634   635    1
  1291  1259  1258    1
  1292   452   454    1
  1293   452   453    2
  1294  1187  1189   ar
  1295  1187  1188    2
  1296   653   652    1
  1297  1346  1347   ar
  1298  1346  1345   ar
  1299   592   593   ar
  1300   592   591   ar
  1301   604   605    1
  1302   563   564    1
  1303   624   625    1
  1304  1211  1212   ar
  1305   586   590    1
  1306   567   568    1
  1307   616   615   ar
  1308   593   594   ar
  1309  1256  1243    1
  1310  1256  1254    1
  1311  1257  1258    1
  1312  1257  1254    1
  1313  1165  1166   ar
  1314  1165  1174   ar
  1315   636   635    2
  1316   636   638    1
  1317   609   608    1
  1318  1240  1239    1
  1319   642   645    1
  1320   642   643    1
  1321   642   629    1
  1322   633   632    1
  1323   441   443    1
  1324   441   442    1
  1325  1213  1212   ar
  1326  1344  1345    1
  1327  1344  1343    1
  1328   619   612   ar
  1329  1166  1167   ar
  1330   645   646    1
  1331   635   641    1
  1332  1347  1348   ar
  1333   589   590    1
  1334  1341  1342    1
  1335  1341  1343    1
  1336   649   650    1
  1337   649   651    1
  1338   649   647    1
  1339   651   652    1
  1340   625   626    1
  1341   453   638    1
  1342  1345  1355   ar
  1343   605   606    1
  1344   608   606    1
  1345   608   610    1
  1346   561   558    1
  1347   591   590    1
  1348   591   600   ar
  1349  1342  1356    1
  1350   472   471    1
  1351  1254  1255    1
  1352   652   648    1
  1353  1174  1173   ar
  1354  1174  1168   ar
  1355   638   639    1
  1356   594   600   ar
  1357   594   595   ar
  1358  1173  1172   ar
  1359   570   569   ar
  1360   570   571   ar
  1361   615   613   ar
  1362  1167  1168   ar
  1363   564   568    1
  1364   629   628    1
  1365   628   626    1
  1366   628   630    1
  1367   632   641    1
  1368   632   631    1
  1369   568   569    1
  1370   606   607    1
  1371   559   558    2
  1372   641   640    1
  1373   442   456    1
  1374   612   613   ar
  1375   612   611    1
  1376   646   647    1
  1377   596   595    1
  1378   469   470   ar
  1379   469   468   ar
  1380   600   599   ar
  1381   648   647    1
  1382  1348  1355   ar
  1383  1348  1349   ar
  1384   458   456    2
  1385   626   627    1
  1386  1168  1169   ar
  1387   610   611    1
  1388   471   470   ar
  1389   471   473   ar
  1390   569   579   ar
  1391  1355  1354   ar
  1392   571   572   ar
  1393  1358  1356    2
  1394  1357  1356    1
  1395   558   560    2
  1396   595   597   ar
  1397   613   614    2
  1398   470   476   ar
  1399   639   640    2
  1400   627   631    1
  1401  1172  1171   ar
  1402   607   611    1
  1403  1356  1359    1
  1404   468   467   ar
  1405   631   630    1
  1406   473   474   ar
  1407   456   459    1
  1408   456   457    1
  1409  1639  1640    1
  1410  1639  1637    2
  1411   599   598   ar
  1412  1169  1171   ar
  1413  1169  1170    1
  1414  1349  1350    2
  1415  1349  1351   ar
  1416  1640  1641    2
  1417   572   579   ar
  1418   572   573    1
  1419   579   578    1
  1420  1354  1352   ar
  1421   597   598   ar
  1422   476   467   ar
  1423   476   475   ar
  1424   467   466    1
  1425   459   460    1
  1426   474   475   ar
  1427  1638  1637    1
  1428   578   576    1
  1429   544   543    1
  1430  1637  1636    1
  1431   545   543    1
  1432   545   546    1
  1433   573   574    2
  1434   573   575   am
  1435  1351  1352   ar
  1436  1641  1642    1
  1437  1359  1360    1
  1438  1352  1353    1
  1439   462   466    1
  1440   462   461    1
  1441   493   492    2
  1442   460   461    1
  1443  1373  1374   ar
  1444  1373  1371   ar
  1445   466   465    1
  1446   576   575    1
  1447   576   577    1
  1448   576   553    1
  1449   543   541    1
  1450  1360  1361    1
  1451  1372  1371    1
  1452   546   547    1
  1453   546   542    1
  1454  1374  1367   ar
  1455  1519  1518    2
  1456   548   547   ar
  1457   548   549   ar
  1458   547   557   ar
  1459   492   491   ar
  1460   492   494   ar
  1461   461   463    1
  1462   491   489   ar
  1463  1642  1636    1
  1464  1642  1633    2
  1465   549   550   ar
  1466  1636  1635    1
  1467  1371  1370   ar
  1468   465   463    1
  1469   557   550   ar
  1470   557   556    1
  1471   550   551    1
  1472  1362  1361    1
  1473  1362  1366    1
  1474   556   554    1
  1475   577   553    1
  1476  1520  1518    1
  1477   551   552    2
  1478   551   553    1
  1479   554   553    1
  1480   554   555    2
  1481   555   529    1
  1482  1617  1616    1
  1483  1361  1363    1
  1484   496   494    1
  1485   494   495   ar
  1486  1518  1507    1
  1487  1518  1521    1
  1488   489   490    2
  1489   489   488   ar
  1490   541   542    1
  1491   541   540    1
  1492   463   464    1
  1493  1367  1366    1
  1494  1367  1368   ar
  1495   529   528    1
  1496   513   512    1
  1497  1618  1616   ar
  1498  1618  1619   ar
  1499  1507  1506    1
  1500  1370  1368   ar
  1501  1366  1365    1
  1502  1635  1634    2
  1503  1633  1634    1
  1504   511   512   ar
  1505   511   509   ar
  1506   495   488   ar
  1507  1616  1615   ar
  1508   488   487    1
  1509  1521  1522    1
  1510  1368  1369    2
  1511   510   509    2
  1512  1595  1594    2
  1513   512   514   ar
  1514  1363  1365    1
  1515  1363  1364    1
  1516  1522  1523    1
  1517   528   530   ar
  1518   528   527   ar
  1519   530   531   ar
  1520  1619  1620   ar
  1521   464   477    1
  1522   509   508   ar
  1523   540   539    1
  1524  1377  1375    2
  1525   487   483    1
  1526   487   486    1
  1527  1506  1504    1
  1528  1506  1508    1
  1529  1539  1537    2
  1530  1364  1375    1
  1531  1504  1503    1
  1532  1504  1505    1
  1533   483   482    1
  1534  1615  1614   ar
  1535  1615  1621   ar
  1536  1538  1537    1
  1537  1503  1502    1
  1538   514   515   ar
  1539   532   531    2
  1540   526   525    1
  1541   526   527    1
  1542   526   522    1
  1543  1594  1596   ar
  1544  1594  1593   ar
  1545  1375  1376    1
  1546  1375  1378    1
  1547   531   533   ar
  1548   525   523    1
  1549   527   534   ar
  1550  1508  1509    1
  1551   508   515   ar
  1552   508   507    1
  1553  1620  1621   ar
  1554   539   536    1
  1555   479   477    2
  1556  1596  1597   ar
  1557  1625  1622    1
  1558  1625  1626    1
  1559  1523  1525    1
  1560  1523  1524    1
  1561  1537  1526    1
  1562  1537  1540    1
  1563  1614  1613   ar
  1564  1628  1627    1
  1565  1628  1632    1
  1566  1627  1629    1
  1567  1627  1626    1
  1568  1621  1612   ar
  1569  1575  1574    2
  1570  1526  1525    1
  1571   480   477    1
  1572   480   481    1
  1573  1632  1631    1
  1574  1631  1629    1
  1575   477   478    1
  1576  1622  1623    2
  1577  1622  1624    2
  1578  1525  1527    1
  1579  1630  1629    1
  1580  1505  1509    1
  1581  1388  1387   ar
  1582  1388  1389   ar
  1583   486   484    1
  1584  1578  1576    1
  1585   507   506    1
  1586   507   503    1
  1587  1592  1593   ar
  1588  1592  1591   ar
  1589  1593  1600   ar
  1590  1391  1390    2
  1591  1524  1528    1
  1592   522   521    1
  1593  1500  1499    2
  1594  1378  1379    1
  1595   534   533   ar
  1596  1502  1499    1
  1597   533   535    1
  1598   482   481    1
  1599   482   484    1
  1600  1509  1510    1
  1601  1536  1535   ar
  1602  1536  1529   ar
  1603  1387  1386   ar
  1604  1535  1533   ar
  1605  1574  1576   ar
  1606  1574  1573   ar
  1607   523   524    1
  1608   523   521    1
  1609  1613  1612   ar
  1610  1597  1598    1
  1611  1597  1599   ar
  1612  1612  1611    1
  1613   536   524    1
  1614   536   538    2
  1615   536   537    1
  1616   506   504    1
  1617  1389  1390   ar
  1618  1389  1396   ar
  1619   484   485    1
  1620  1540  1541    1
  1621  1390  1392   ar
  1622  1576  1577   ar
  1623  1561  1559    2
  1624  1379  1380    1
  1625  1499  1486    1
  1626  1499  1501    1
  1627   503   502    1
  1628   521   520    1
  1629  1486  1485    1
  1630  1381  1380    1
  1631  1381  1385    1
  1632  1413  1412    2
  1633  1512  1511    2
  1634  1591  1590   ar
  1635  1600  1599   ar
  1636  1600  1590   ar
  1637  1528  1527    1
  1638  1528  1529    1
  1639  1581  1579    1
  1640  1386  1396   ar
  1641  1386  1385    1
  1642  1510  1511   ar
  1643  1510  1517   ar
  1644  1529  1530   ar
  1645  1573  1571   ar
  1646  1533  1534    1
  1647  1533  1532   ar
  1648  1603  1601    2
  1649  1487  1485    1
  1650  1487  1488    1
  1651  1396  1395   ar
  1652  1550  1549   ar
  1653  1550  1551   ar
  1654  1392  1393   ar
  1655  1610  1608    1
  1656  1610  1611    1
  1657  1380  1382    1
  1658  1608  1609    1
  1659  1608  1606    1
  1660  1511  1513   ar
  1661  1577  1570   ar
  1662  1385  1384    1
  1663  1541  1542    1
  1664  1590  1589    1
  1665  1553  1552    2
  1666  1416  1414    1
  1667  1549  1548   ar
  1668  1559  1560    1
  1669  1559  1562    1
  1670  1559  1545    1
  1671  1611  1607    1
  1672   504   502    1
  1673   504   505    1
  1674  1485  1483    1
  1675  1517  1516   ar
  1676   485   497    1
  1677  1412  1414   ar
  1678  1412  1411   ar
  1679   502   501    1
  1680  1604  1601    1
  1681  1604  1605    1
  1682   499   497    2
  1683   520   519    1
  1684  1497  1496   ar
  1685  1497  1498   ar
  1686  1588  1589    1
  1687  1588  1586    1
  1688   519   516    1
  1689  1562  1563    1
  1690  1571  1570   ar
  1691  1571  1572    2
  1692  1580  1579    2
  1693  1530  1532   ar
  1694  1530  1531    2
  1695  1395  1393   ar
  1696  1496  1495   ar
  1697  1393  1394    1
  1698  1488  1484    1
  1699  1488  1489    1
  1700  1551  1552   ar
  1701  1551  1558   ar
  1702  1601  1602    1
  1703  1601  1587    1
  1704  1570  1569    1
  1705   500   497    1
  1706   500   501    1
  1707  1552  1554   ar
  1708  1414  1415   ar
  1709  1483  1484    1
  1710  1483  1482    1
  1711  1382  1384    1
  1712  1382  1383    1
  1713  1589  1585    1
  1714  1607  1606    1
  1715  1586  1587    1
  1716  1586  1584    1
  1717  1544  1545    1
  1718  1544  1542    1
  1719  1544  1546    1
  1720  1433  1432    2
  1721  1411  1409   ar
  1722  1513  1514   ar
  1723  1606  1605    1
  1724   505   516    1
  1725  1582  1567    1
  1726  1582  1583    1
  1727   497   498    1
  1728  1542  1543    1
  1729  1455  1454    1
  1730  1548  1558   ar
  1731  1548  1547    1
  1732  1516  1514   ar
  1733  1471  1470    2
  1734  1543  1547    1
  1735  1498  1489   ar
  1736  1498  1492   ar
  1737   518   516    2
  1738  1566  1567    1
  1739  1566  1568    1
  1740  1566  1564    1
  1741  1399  1397    2
  1742   516   517    1
  1743  1489  1490   ar
  1744  1558  1557   ar
  1745  1495  1493   ar
  1746  1563  1564    1
  1747  1585  1584    1
  1748  1514  1515    1
  1749  1383  1397    1
  1750  1569  1568    1
  1751  1569  1565    1
  1752  1554  1555   ar
  1753  1482  1481    1
  1754  1584  1583    1
  1755  1547  1546    1
  1756  1415  1408   ar
  1757  1432  1434   ar
  1758  1432  1431   ar
  1759  1472  1470   ar
  1760  1472  1473   ar
  1761  1565  1564    1
  1762  1409  1408   ar
  1763  1409  1410    2
  1764  1470  1469   ar
  1765  1454  1453   ar
  1766  1454  1456   ar
  1767  1434  1435   ar
  1768  1453  1451   ar
  1769  1397  1400    1
  1770  1397  1398    1
  1771  1492  1493   ar
  1772  1492  1491   ar
  1773  1474  1473    2
  1774  1493  1494    1
  1775  1408  1407    1
  1776  1557  1555   ar
  1777  1555  1556    1
  1778  1490  1491   ar
  1779  1481  1478    1
  1780  1473  1475   ar
  1781  1431  1430   ar
  1782  1431  1438   ar
  1783  1430  1429   ar
  1784  1400  1401    1
  1785  1456  1457   ar
  1786  1451  1452    2
  1787  1451  1450   ar
  1788  1435  1436    1
  1789  1435  1437   ar
  1790  1469  1468    1
  1791  1469  1476   ar
  1792  1467  1468    1
  1793  1467  1465    1
  1794  1407  1403    1
  1795  1407  1406    1
  1796  1403  1402    1
  1797  1468  1464    1
  1798  1438  1437   ar
  1799  1438  1428   ar
  1800  1475  1476   ar
  1801  1475  1477    1
  1802  1429  1428   ar
  1803  1480  1478    2
  1804  1478  1466    1
  1805  1478  1479    1
  1806  1401  1402    1
  1807  1457  1450   ar
  1808  1450  1449    1
  1809  1465  1466    1
  1810  1465  1463    1
  1811  1406  1404    1
  1812  1402  1404    1
  1813  1428  1427    1
  1814  1404  1405    1
  1815  1419  1417    2
  1816  1464  1463    1
  1817  1449  1448    1
  1818  1449  1445    1
  1819  1463  1462    1
  1820  1405  1417    1
  1821  1448  1446    1
  1822  1427  1423    1
  1823  1427  1426    1
  1824  1417  1420    1
  1825  1417  1418    1
  1826  1462  1461    1
  1827  1420  1421    1
  1828  1445  1444    1
  1829  1460  1458    2
  1830  1423  1422    1
  1831  1426  1424    1
  1832  1446  1444    1
  1833  1446  1447    1
  1834  1441  1439    2
  1835  1424  1422    1
  1836  1424  1425    1
  1837  1461  1447    1
  1838  1442  1439    1
  1839  1442  1443    1
  1840  1421  1422    1
  1841  1444  1443    1
  1842  1458  1459    1
  1843  1439  1425    1
  1844  1439  1440    1
