@<TRIPOS>MOLECULE
dna.pdb
 1369 1546 0 0 0
SMALL
GASTEIGER

@<TRIPOS>ATOM
      1  O5'       19.2370   -8.8410   16.9100 O.3     1  DG1        -0.2176
      2  C5'       18.4600   -8.5570   15.7600 C.3     1  DG1         0.2140
      3  C4'       18.7720   -7.1890   15.2350 C.3     1  DG1         0.1776
      4  O4'       17.9000   -7.0050   14.0970 O.3     1  DG1        -0.3326
      5  C3'       18.4550   -6.0730   16.2230 C.3     1  DG1         0.1559
      6  O3'       19.6650   -5.6140   16.8620 O.3     1  DG1        -0.3138
      7  C2'       17.7730   -5.0060   15.3610 C.3     1  DG1         0.0865
      8  C1'       17.1040   -5.8600   14.2790 C.3     1  DG1         0.2094
      9  N9        15.6070   -6.3060   14.5830 N.ar    1  DG1        -0.2713
     10  C8        15.1180   -7.3240   15.3640 C.ar    1  DG1         0.1816
     11  N7        13.8780   -7.1440   15.7290 N.ar    1  DG1        -0.2173
     12  C5        13.5240   -5.9370   15.1550 C.ar    1  DG1         0.1748
     13  C6        12.3020   -5.2170   15.1990 C.ar    1  DG1         0.3023
     14  O6        11.2530   -5.5230   15.7790 O.2     1  DG1        -0.2633
     15  N1        12.3720   -4.0290   14.4760 N.ar    1  DG1        -0.1709
     16  C2        13.4810   -3.5890   13.7950 C.ar    1  DG1         0.2606
     17  N2        13.3560   -2.4190   13.1550 N.pl3   1  DG1        -0.0859
     18  N3        14.6230   -4.2470   13.7460 N.ar    1  DG1        -0.1918
     19  C4        14.5790   -5.4030   14.4420 C.ar    1  DG1         0.1722
     20  P         19.6550   -5.5300   18.1690 P.3     2  DG2         0.2141
     21  OP1       21.0360   -5.3440   18.6860 O.2     2  DG2        -0.5172
     22  OP2       18.7020   -6.3930   18.9160 O.3     2  DG2        -0.4373
     23  O5'       18.9380   -4.1310   17.8620 O.3     2  DG2        -0.3114
     24  C5'       19.6610   -3.0270   17.2980 C.3     2  DG2         0.1811
     25  C4'       18.9160   -1.7270   17.5390 C.3     2  DG2         0.1746
     26  O4'       17.7850   -1.6500   16.6280 O.3     2  DG2        -0.3327
     27  C3'       18.3180   -1.5260   18.9320 C.3     2  DG2         0.1558
     28  O3'       19.2420   -1.0330   19.9160 O.3     2  DG2        -0.3138
     29  C2'       17.1520   -0.5780   18.6580 C.3     2  DG2         0.0865
     30  C1'       16.6760   -1.0560   17.2860 C.3     2  DG2         0.2094
     31  N9        15.6130   -2.0370   17.4460 N.ar    2  DG2        -0.2713
     32  C8        15.7440   -3.3790   17.7080 C.ar    2  DG2         0.1816
     33  N7        14.6070   -3.9680   17.9630 N.ar    2  DG2        -0.2173
     34  C5        13.6680   -2.9590   17.8610 C.ar    2  DG2         0.1748
     35  C6        12.2600   -2.9870   18.0320 C.ar    2  DG2         0.3023
     36  O6        11.5430   -3.9540   18.3180 O.2     2  DG2        -0.2633
     37  N1        11.6860   -1.7330   17.8380 N.ar    2  DG2        -0.1709
     38  C2        12.3840   -0.5930   17.5190 C.ar    2  DG2         0.2606
     39  N2        11.6560    0.5220   17.3700 N.pl3   2  DG2        -0.0859
     40  N3        13.6910   -0.5510   17.3580 N.ar    2  DG2        -0.1918
     41  C4        14.2700   -1.7560   17.5420 C.ar    2  DG2         0.1722
     42  P         18.9470   -1.4380   21.6750 P.3     3  DG3         0.2141
     43  OP1       19.7690   -2.4200   22.4230 O.3     3  DG3        -0.4373
     44  OP2       17.4760   -1.4090   21.8370 O.2     3  DG3        -0.5172
     45  O5'       19.3820    0.0830   21.8900 O.3     3  DG3        -0.3114
     46  C5'       18.6450    0.7320   22.9020 C.3     3  DG3         0.1811
     47  C4'       17.5860    1.6400   22.3240 C.3     3  DG3         0.1746
     48  O4'       17.1630    1.1100   21.0810 O.3     3  DG3        -0.3327
     49  C3'       16.2400    1.6860   23.0180 C.3     3  DG3         0.1558
     50  O3'       16.2750    2.4380   24.1390 O.3     3  DG3        -0.3138
     51  C2'       15.4180    2.4950   22.0770 C.3     3  DG3         0.0865
     52  C1'       15.8750    1.6820   20.8970 C.3     3  DG3         0.2094
     53  N9        14.8370    0.7610   20.6220 N.ar    3  DG3        -0.2713
     54  C8        15.1600   -0.5740   20.6260 C.ar    3  DG3         0.1816
     55  N7        14.1490   -1.3500   20.3460 N.ar    3  DG3        -0.2173
     56  C5        13.0950   -0.4780   20.1430 C.ar    3  DG3         0.1748
     57  C6        11.7390   -0.7310   19.8110 C.ar    3  DG3         0.3023
     58  O6        11.1870   -1.8230   19.6240 O.2     3  DG3        -0.2633
     59  N1        11.0020    0.4450   19.7000 N.ar    3  DG3        -0.1709
     60  C2        11.5090    1.7080   19.8860 C.ar    3  DG3         0.2606
     61  N2        10.6430    2.7200   19.7340 N.pl3   3  DG3        -0.0859
     62  N3        12.7660    1.9590   20.1950 N.ar    3  DG3        -0.1918
     63  C4        13.5000    0.8320   20.3090 C.ar    3  DG3         0.1722
     64  P         16.1280    2.0100   25.5450 P.3     4  DA4         0.2141
     65  OP1       16.7840    2.4270   26.8070 O.3     4  DA4        -0.4373
     66  OP2       15.6950    0.6070   25.3380 O.2     4  DA4        -0.5172
     67  O5'       14.7860    2.8600   25.3570 O.3     4  DA4        -0.3114
     68  C5'       14.7860    4.2790   25.3480 C.3     4  DA4         0.1811
     69  C4'       13.4430    4.7860   24.8900 C.3     4  DA4         0.1746
     70  O4'       13.1040    4.1030   23.6590 O.3     4  DA4        -0.3327
     71  C3'       12.2730    4.4980   25.8240 C.3     4  DA4         0.1558
     72  O3'       12.1190    5.4880   26.8340 O.3     4  DA4        -0.3138
     73  C2'       11.0820    4.3970   24.8750 C.3     4  DA4         0.0865
     74  C1'       11.7250    3.8180   23.6150 C.3     4  DA4         0.2094
     75  N9        11.5750    2.4140   23.3640 N.ar    4  DA4        -0.2714
     76  C8        12.4280    1.4060   23.7310 C.ar    4  DA4         0.1815
     77  N7        11.9410    0.2030   23.5330 N.ar    4  DA4        -0.2193
     78  C5        10.6830    0.4380   23.0020 C.ar    4  DA4         0.1518
     79  C6         9.6600   -0.4270   22.5760 C.ar    4  DA4         0.1919
     80  N6         9.7500   -1.7580   22.6210 N.pl3   4  DA4        -0.1054
     81  N1         8.5270    0.1300   22.0970 N.ar    4  DA4        -0.2040
     82  C2         8.4380    1.4640   22.0510 C.ar    4  DA4         0.2016
     83  N3         9.3300    2.3800   22.4200 N.ar    4  DA4        -0.2048
     84  C4        10.4430    1.7950   22.8930 C.ar    4  DA4         0.1691
     85  P         11.4530    5.1680   28.3870 P.3     5  DG5         0.2141
     86  OP1       11.6190    6.1380   29.4920 O.3     5  DG5        -0.4373
     87  OP2       12.0380    3.8120   28.4950 O.2     5  DG5        -0.5172
     88  O5'        9.9020    4.9200   28.0770 O.3     5  DG5        -0.3114
     89  C5'        9.0820    5.9900   27.6250 C.3     5  DG5         0.1811
     90  C4'        7.7400    5.5190   27.1120 C.3     5  DG5         0.1746
     91  O4'        7.9150    4.5870   26.0150 O.3     5  DG5        -0.3327
     92  C3'        6.8650    4.7550   28.0900 C.3     5  DG5         0.1558
     93  O3'        6.1900    5.6020   29.0000 O.3     5  DG5        -0.3138
     94  C2'        5.9230    4.0060   27.1600 C.3     5  DG5         0.0865
     95  C1'        6.8610    3.6480   26.0110 C.3     5  DG5         0.2094
     96  N9         7.4230    2.3560   26.0710 N.ar    5  DG5        -0.2713
     97  C8         8.6750    2.0180   26.5230 C.ar    5  DG5         0.1816
     98  N7         8.8550    0.7290   26.6250 N.ar    5  DG5        -0.2173
     99  C5         7.6540    0.1810   26.2160 C.ar    5  DG5         0.1748
    100  C6         7.2440   -1.1730   26.1130 C.ar    5  DG5         0.3023
    101  O6         7.8950   -2.1920   26.3750 O.2     5  DG5        -0.2633
    102  N1         5.9350   -1.2880   25.6530 N.ar    5  DG5        -0.1709
    103  C2         5.1210   -0.2280   25.3320 C.ar    5  DG5         0.2606
    104  N2         3.8900   -0.5370   24.9040 N.pl3   5  DG5        -0.0859
    105  N3         5.4870    1.0350   25.4230 N.ar    5  DG5        -0.1918
    106  C4         6.7550    1.1710   25.8680 C.ar    5  DG5         0.1722
    107  P          6.1020    5.1920   30.5030 P.3     6  DG6         0.2141
    108  OP1        5.5310    6.3750   31.1880 O.2     6  DG6        -0.5172
    109  OP2        7.0170    4.2810   31.2620 O.3     6  DG6        -0.4373
    110  O5'        4.9140    4.2910   29.9430 O.3     6  DG6        -0.3114
    111  C5'        3.6590    4.8690   29.6290 C.3     6  DG6         0.1811
    112  C4'        2.6050    3.8020   29.5790 C.3     6  DG6         0.1746
    113  O4'        2.8530    2.9280   28.4420 O.3     6  DG6        -0.3327
    114  C3'        2.5820    2.8570   30.7620 C.3     6  DG6         0.1558
    115  O3'        1.9390    3.4290   31.8940 O.3     6  DG6        -0.3138
    116  C2'        1.9020    1.6200   30.1770 C.3     6  DG6         0.0865
    117  C1'        2.4670    1.6060   28.7550 C.3     6  DG6         0.2094
    118  N9         3.6720    0.7520   28.6260 N.ar    6  DG6        -0.2708
    119  C8         4.9950    1.0600   28.8350 C.ar    6  DG6         0.1816
    120  N7         5.7740    0.0130   28.8290 N.ar    6  DG6        -0.2175
    121  C5         4.9210   -1.0490   28.6000 C.ar    6  DG6         0.1736
    122  C6         5.1850   -2.4390   28.4900 C.2     6  DG6         0.2987
    123  O6         6.2740   -3.0210   28.5760 O.2     6  DG6        -0.2655
    124  N1         4.0250   -3.1730   28.2560 N.am    6  DG6        -0.1056
    125  C2         2.7660   -2.6340   28.1430 C.1     6  DG6         0.1259
    126  N2         1.7700   -3.5020   27.9160 N.pl3   6  DG6        -0.0480
    127  N3         2.5050   -1.3460   28.2440 N.2     6  DG6        -0.1614
    128  C4         3.6160   -0.6140   28.4720 C.ar    6  DG6         0.1799
    129  P          2.4660    2.9950   33.4830 P.3     7  DA7         0.2141
    130  OP1        1.9830    4.1490   34.2970 O.3     7  DA7        -0.4373
    131  OP2        3.8890    2.5680   33.5360 O.2     7  DA7        -0.5172
    132  O5'        1.6470    1.6380   33.8180 O.3     7  DA7        -0.3114
    133  C5'        0.2360    1.7120   33.9480 C.3     7  DA7         0.1811
    134  C4'       -0.4670    0.5010   33.3820 C.3     7  DA7         0.1746
    135  O4'        0.0750    0.0860   32.0950 O.3     7  DA7        -0.3327
    136  C3'       -0.3240   -0.7580   34.1940 C.3     7  DA7         0.1558
    137  O3'       -1.1040   -0.7080   35.3380 O.3     7  DA7        -0.3138
    138  C2'       -0.8960   -1.7630   33.2100 C.3     7  DA7         0.0865
    139  C1'       -0.1950   -1.2990   31.9370 C.3     7  DA7         0.2094
    140  N9         1.1150   -2.0040   31.8500 N.ar    7  DA7        -0.2714
    141  C8         2.3470   -1.4080   31.9140 C.ar    7  DA7         0.1815
    142  N7         3.3480   -2.2430   31.7650 N.ar    7  DA7        -0.2193
    143  C5         2.7300   -3.4720   31.5940 C.ar    7  DA7         0.1518
    144  C6         3.2400   -4.7660   31.3870 C.ar    7  DA7         0.1919
    145  N6         4.5440   -5.0440   31.3140 N.pl3   7  DA7        -0.1054
    146  N1         2.3530   -5.7750   31.2550 N.ar    7  DA7        -0.2040
    147  C2         1.0460   -5.4950   31.3270 C.ar    7  DA7         0.2016
    148  N3         0.4470   -4.3220   31.5170 N.ar    7  DA7        -0.2048
    149  C4         1.3560   -3.3410   31.6450 C.ar    7  DA7         0.1691
    150  P         -0.6660   -1.5130   36.5940 P.3     8  DC8         0.2141
    151  OP1       -0.5880   -0.5340   37.7040 O.3     8  DC8        -0.4373
    152  OP2        0.5650   -2.1880   36.1210 O.2     8  DC8        -0.5172
    153  O5'       -1.7240   -2.6550   36.9810 O.3     8  DC8        -0.3114
    154  C5'       -2.4710   -3.3340   35.9610 C.3     8  DC8         0.1812
    155  C4'       -2.0890   -4.8040   35.8530 C.3     8  DC8         0.1775
    156  O4'       -1.4740   -5.0710   34.5610 O.3     8  DC8        -0.3326
    157  C3'       -1.0490   -5.3130   36.8320 C.3     8  DC8         0.1859
    158  O3'       -1.5830   -5.4890   38.1460 O.3     8  DC8        -0.2203
    159  C2'       -0.6610   -6.6220   36.1560 C.3     8  DC8         0.0895
    160  C1'       -0.5940   -6.1870   34.6900 C.3     8  DC8         0.2107
    161  N1         0.6760   -5.7080   34.2720 N.ar    8  DC8        -0.2556
    162  C2         1.5850   -6.5890   33.6740 C.ar    8  DC8         0.3531
    163  O2         1.1860   -7.7120   33.3230 O.2     8  DC8        -0.2443
    164  N3         2.8680   -6.1930   33.4990 N.ar    8  DC8        -0.1739
    165  C4         3.2520   -4.9780   33.8930 C.ar    8  DC8         0.1759
    166  N4         4.5270   -4.6320   33.6990 N.pl3   8  DC8        -0.1070
    167  C5         2.3460   -4.0710   34.5000 C.ar    8  DC8         0.0566
    168  C6         1.0800   -4.4660   34.6720 C.ar    8  DC8         0.0849
    169  P         -0.5090   -5.2980   39.6350 P.3     9  DG9         0.5411
    170  OP1       -0.7560   -5.7540   41.0180 O.2     9  DG9        -0.2272
    171  OP2        0.6420   -4.4070   39.3910 O.2     9  DG9        -0.2272
    172  O5'       -0.3940   -6.5820   38.7050 O.3     9  DG9        -0.2722
    173  C5'       -1.2800   -7.6630   38.8970 C.3     9  DG9         0.1850
    174  C4'       -0.6560   -8.9580   38.4020 C.3     9  DG9         0.1748
    175  O4'        0.0330   -8.7460   37.1470 O.3     9  DG9        -0.3327
    176  C3'        0.4410   -9.5350   39.2760 C.3     9  DG9         0.1558
    177  O3'       -0.0800  -10.2480   40.3710 O.3     9  DG9        -0.3138
    178  C2'        1.0500  -10.5150   38.3040 C.3     9  DG9         0.0865
    179  C1'        1.0970   -9.6670   37.0510 C.3     9  DG9         0.2094
    180  N9         2.2870   -8.8300   36.8050 N.ar    9  DG9        -0.2713
    181  C8         2.3830   -7.4660   36.9390 C.ar    9  DG9         0.1816
    182  N7         3.5770   -7.0060   36.6790 N.ar    9  DG9        -0.2173
    183  C5         4.3140   -8.1290   36.3520 C.ar    9  DG9         0.1748
    184  C6         5.6760   -8.2630   35.9790 C.ar    9  DG9         0.3023
    185  O6         6.5290   -7.3740   35.8610 O.2     9  DG9        -0.2633
    186  N1         6.0200   -9.5890   35.7320 N.ar    9  DG9        -0.1709
    187  C2         5.1580  -10.6550   35.8320 C.ar    9  DG9         0.2606
    188  N2         5.6740  -11.8600   35.5530 N.pl3   9  DG9        -0.0859
    189  N3         3.8910  -10.5460   36.1780 N.ar    9  DG9        -0.1918
    190  C4         3.5340   -9.2670   36.4230 C.ar    9  DG9         0.1722
    191  P          0.9670  -10.6980   41.2190 P.3    10  DA10        0.2141
    192  OP1        0.2510  -11.6160   42.1500 O.3    10  DA10       -0.4373
    193  OP2        1.5060   -9.4000   41.7230 O.2    10  DA10       -0.5172
    194  O5'        2.1430  -11.5570   40.5830 O.3    10  DA10       -0.3114
    195  C5'        1.8000  -12.7480   39.8980 C.3    10  DA10        0.1811
    196  C4'        3.0010  -13.6070   39.6830 C.3    10  DA10        0.1746
    197  O4'        3.8810  -12.9730   38.7390 O.3    10  DA10       -0.3327
    198  C3'        3.8230  -13.9290   40.9100 C.3    10  DA10        0.1558
    199  O3'        4.2020  -15.2780   40.6910 O.3    10  DA10       -0.3138
    200  C2'        4.9660  -12.9260   40.8170 C.3    10  DA10        0.0865
    201  C1'        5.1560  -12.8220   39.3110 C.3    10  DA10        0.2094
    202  N9         5.6400  -11.6650   38.9110 N.ar   10  DA10       -0.2714
    203  C8         5.1470  -10.5960   39.6120 C.ar   10  DA10        0.1815
    204  N7         5.9870   -9.5920   39.7070 N.ar   10  DA10       -0.2193
    205  C5         7.1080  -10.0330   39.0230 C.ar   10  DA10        0.1518
    206  C6         8.3520   -9.4330   38.7590 C.ar   10  DA10        0.1919
    207  N6         8.6850   -8.2080   39.1730 N.pl3  10  DA10       -0.1054
    208  N1         9.2530  -10.1440   38.0480 N.ar   10  DA10       -0.2040
    209  C2         8.9180  -11.3720   37.6330 C.ar   10  DA10        0.2016
    210  N3         7.7830  -12.0410   37.8170 N.ar   10  DA10       -0.2048
    211  C4         6.9100  -11.3080   38.5280 C.ar   10  DA10        0.1691
    212  P          5.6460  -15.8270   41.6080 P.3    11  DA11        0.2141
    213  OP1        5.8830  -16.8550   40.5630 O.2    11  DA11       -0.5172
    214  OP2        5.2080  -16.2490   42.9650 O.3    11  DA11       -0.4373
    215  O5'        6.9770  -14.9590   41.7720 O.3    11  DA11       -0.3114
    216  C5'        7.7210  -14.4970   40.6390 C.3    11  DA11        0.1811
    217  C4'        8.9680  -15.3370   40.4480 C.3    11  DA11        0.1746
    218  O4'        8.5570  -16.7010   40.1700 O.3    11  DA11       -0.3327
    219  C3'        9.8560  -14.9450   39.2710 C.3    11  DA11        0.1558
    220  O3'       10.8340  -13.9800   39.6640 O.3    11  DA11       -0.3138
    221  C2'       10.5090  -16.2700   38.8940 C.3    11  DA11        0.0865
    222  C1'        9.3680  -17.2530   39.1500 C.3    11  DA11        0.2094
    223  N9         8.0720  -17.2850   37.8740 N.ar   11  DA11       -0.2714
    224  C8         6.7640  -16.9040   38.0220 C.ar   11  DA11        0.1815
    225  N7         5.9400  -17.5100   37.1990 N.ar   11  DA11       -0.2193
    226  C5         6.7640  -18.3450   36.4610 C.ar   11  DA11        0.1518
    227  C6         6.5010  -19.2550   35.4220 C.ar   11  DA11        0.1919
    228  N6         5.2810  -19.4830   34.9300 N.pl3  11  DA11       -0.1054
    229  N1         7.5480  -19.9290   34.9000 N.ar   11  DA11       -0.2040
    230  C2         8.7700  -19.7000   35.3940 C.ar   11  DA11        0.2016
    231  N3         9.1420  -18.8720   36.3680 N.ar   11  DA11       -0.2048
    232  C4         8.0790  -18.2160   36.8640 C.ar   11  DA11        0.1691
    233  P         11.1360  -13.0430   38.9170 P.3    12  DG12        0.2141
    234  OP1       12.4920  -12.4590   38.8130 O.2    12  DG12       -0.5172
    235  OP2        9.9480  -12.1630   38.9960 O.3    12  DG12       -0.4373
    236  O5'       10.9470  -14.0560   37.6910 O.3    12  DG12       -0.3113
    237  C5'       12.0390  -14.8830   37.2740 C.3    12  DG12        0.1837
    238  C4'       11.9570  -15.2460   35.7990 C.3    12  DG12        0.2012
    239  O4'       10.6650  -15.8110   35.4920 O.3    12  DG12       -0.3299
    240  C3'       12.1190  -14.0830   34.8350 C.3    12  DG12        0.2560
    241  O3'       13.4740  -14.0390   34.4030 O.3    12  DG12       -0.1922
    242  C2'       11.1810  -14.4010   33.6650 C.3    12  DG12        0.1517
    243  C1'       10.4100  -15.6360   34.1180 C.3    12  DG12        0.2161
    244  N9         8.8650  -16.1140   34.5600 N.ar   12  DG12       -0.2712
    245  C8         8.0700  -15.7070   35.6040 C.ar   12  DG12        0.1816
    246  N7         6.7940  -15.7730   35.3380 N.ar   12  DG12       -0.2173
    247  C5         6.7390  -16.2550   34.0430 C.ar   12  DG12        0.1748
    248  C6         5.6260  -16.5350   33.2090 C.ar   12  DG12        0.3023
    249  O6         4.4230  -16.4070   33.4680 O.2    12  DG12       -0.2633
    250  N1         6.0180  -17.0090   31.9600 N.ar   12  DG12       -0.1709
    251  C2         7.3220  -17.1910   31.5640 C.ar   12  DG12        0.2606
    252  N2         7.5010  -17.6590   30.3210 N.pl3  12  DG12       -0.0859
    253  N3         8.3650  -16.9350   32.3270 N.ar   12  DG12       -0.1918
    254  C4         8.0090  -16.4720   33.5440 C.ar   12  DG12        0.1722
    255  P         15.0070  -12.4360   35.0280 P.3    13  DC13        0.5410
    256  OP1       16.3330  -13.0470   34.7740 O.2    13  DC13       -0.2272
    257  OP2       14.8770  -11.3040   35.9700 O.2    13  DC13       -0.2272
    258  O5'       14.3250  -11.8820   33.6840 O.3    13  DC13       -0.2748
    259  C5'       14.1040  -12.7080   32.5510 C.3    13  DC13        0.1556
    260  C4'       12.6710  -13.1790   32.4500 C.3    13  DC13        0.0657
    261  O4'       12.0430  -13.1680   33.7550 O.3    13  DC13       -0.3147
    262  C3'       11.7190  -12.3770   31.5720 C.3    13  DC13        0.1593
    263  O3'       11.8710  -12.7130   30.2020 O.3    13  DC13       -0.2158
    264  C2'       10.3540  -12.7650   32.1300 C.3    13  DC13        0.0829
    265  C1'       10.6540  -12.9610   33.6140 C.3    13  DC13        0.1805
    266  N1        10.1290  -11.6530   34.0450 N.ar   13  DC13       -0.2590
    267  C2         8.7720  -11.4140   34.2910 C.ar   13  DC13        0.3530
    268  O2         7.9350  -12.2310   33.8690 O.2    13  DC13       -0.2443
    269  N3         8.4110  -10.3040   34.9770 N.ar   13  DC13       -0.1739
    270  C4         9.3440   -9.4550   35.4100 C.ar   13  DC13        0.1759
    271  N4         8.9420   -8.3740   36.0820 N.pl3  13  DC13       -0.1070
    272  C5        10.7240   -9.6790   35.1710 C.ar   13  DC13        0.0566
    273  C6        11.0760  -10.7770   34.4930 C.ar   13  DC13        0.0848
    274  P         11.2020  -11.9660   28.9260 P.3    14  DG14        0.3939
    275  OP1       12.2190  -13.0360   28.7270 O.3    14  DG14       -0.1496
    276  OP2       11.3200  -10.6910   28.1800 O.3    14  DG14       -0.1425
    277  O5'        9.7880  -12.6130   28.5870 O.3    14  DG14       -0.2926
    278  C5'        9.3910  -13.8680   29.1800 C.3    14  DG14        0.1828
    279  C4'        8.0070  -13.7640   29.7960 C.3    14  DG14        0.1747
    280  O4'        8.0450  -13.0220   31.0450 O.3    14  DG14       -0.3327
    281  C3'        6.9270  -13.0660   28.9890 C.3    14  DG14        0.1558
    282  O3'        6.3600  -13.8830   27.9840 O.3    14  DG14       -0.3138
    283  C2'        5.9020  -12.6980   30.0520 C.3    14  DG14        0.0865
    284  C1'        6.7960  -12.3780   31.2510 C.3    14  DG14        0.2094
    285  N9         7.0010  -11.0410   31.4400 N.ar   14  DG14       -0.2713
    286  C8         8.1970  -10.3990   31.2300 C.ar   14  DG14        0.1816
    287  N7         8.1470   -9.1200   31.4850 N.ar   14  DG14       -0.2173
    288  C5         6.8440   -8.9010   31.8900 C.ar   14  DG14        0.1748
    289  C6         6.1900   -7.7090   32.2960 C.ar   14  DG14        0.3023
    290  O6         6.6610   -6.5680   32.3790 O.2    14  DG14       -0.2633
    291  N1         4.8560   -7.9330   32.6250 N.ar   14  DG14       -0.1709
    292  C2         4.2290   -9.1540   32.5710 C.ar   14  DG14        0.2606
    293  N2         2.9380   -9.1720   32.9280 N.pl3  14  DG14       -0.0859
    294  N3         4.8220  -10.2700   32.1950 N.ar   14  DG14       -0.1918
    295  C4         6.1180  -10.0770   31.8700 C.ar   14  DG14        0.1722
    296  P          5.6980  -13.1780   26.5620 P.3    15  DG15        0.2141
    297  OP1        5.1270  -14.1780   25.6240 O.2    15  DG15       -0.5172
    298  OP2        6.6820  -12.1800   26.0700 O.3    15  DG15       -0.4373
    299  O5'        4.4950  -12.3880   27.2420 O.3    15  DG15       -0.3114
    300  C5'        3.2970  -13.0580   27.6240 C.3    15  DG15        0.1811
    301  C4'        2.1730  -12.0610   27.7560 C.3    15  DG15        0.1746
    302  O4'        2.4210  -11.1950   28.8920 O.3    15  DG15       -0.3327
    303  C3'        2.0490  -11.1190   26.5740 C.3    15  DG15        0.1558
    304  O3'        1.2520  -11.7160   25.5630 O.3    15  DG15       -0.3138
    305  C2'        1.3880   -9.8900   27.1840 C.3    15  DG15        0.0865
    306  C1'        2.0010   -9.8740   28.5870 C.3    15  DG15        0.2094
    307  N9         3.1960   -9.0120   28.7210 N.ar   15  DG15       -0.2708
    308  C8         4.5110   -9.3470   28.9360 C.ar   15  DG15        0.1816
    309  N7         5.3140   -8.3170   28.9220 N.ar   15  DG15       -0.2175
    310  C5         4.4830   -7.2380   28.6850 C.ar   15  DG15        0.1736
    311  C6         4.7780   -5.8560   28.5600 C.2    15  DG15        0.2987
    312  O6         5.8790   -5.2970   28.6390 O.2    15  DG15       -0.2655
    313  N1         3.6340   -5.0990   28.3190 N.am   15  DG15       -0.1056
    314  C2         2.3630   -5.6110   28.2120 C.1    15  DG15        0.1259
    315  N2         1.3860   -4.7240   27.9790 N.pl3  15  DG15       -0.0480
    316  N3         2.0740   -6.8930   28.3250 N.2    15  DG15       -0.1614
    317  C4         3.1690   -7.6470   28.5580 C.ar   15  DG15        0.1799
    318  P          1.2080  -10.9370   23.8520 P.3    16  DA16        0.2141
    319  OP1        0.5860  -11.9320   22.9140 O.2    16  DA16       -0.5172
    320  OP2        2.6010  -11.1210   24.3260 O.3    16  DA16       -0.4373
    321  O5'        1.0280   -9.4670   23.2610 O.3    16  DA16       -0.3114
    322  C5'       -0.2640   -9.0280   22.8790 C.3    16  DA16        0.1811
    323  C4'       -0.3370   -7.5350   22.8810 C.3    16  DA16        0.1746
    324  O4'        0.1290   -7.0290   24.1500 O.3    16  DA16       -0.3327
    325  C3'        0.5130   -6.8300   21.8520 C.3    16  DA16        0.1558
    326  O3'       -0.2350   -6.7680   20.6530 O.3    16  DA16       -0.3138
    327  C2'        0.6640   -5.4490   22.4710 C.3    16  DA16        0.0865
    328  C1'        0.7320   -5.7640   23.9650 C.3    16  DA16        0.2094
    329  N9         2.0980   -5.8460   24.4090 N.ar   16  DA16       -0.2714
    330  C8         2.7880   -6.9850   24.7320 C.ar   16  DA16        0.1815
    331  N7         4.0230   -6.7640   25.1170 N.ar   16  DA16       -0.2193
    332  C5         4.1530   -5.3870   25.0400 C.ar   16  DA16        0.1518
    333  C6         5.2250   -4.5210   25.3170 C.ar   16  DA16        0.1919
    334  N6         6.4190   -4.9360   25.7460 N.pl3  16  DA16       -0.1054
    335  N1         5.0250   -3.1980   25.1360 N.ar   16  DA16       -0.2040
    336  C2         3.8270   -2.7820   24.7080 C.ar   16  DA16        0.2016
    337  N3         2.7440   -3.4980   24.4160 N.ar   16  DA16       -0.2048
    338  C4         2.9760   -4.8080   24.6050 C.ar   16  DA16        0.1691
    339  P          0.3520   -6.1090   19.3970 P.3    17  DA17        0.2141
    340  OP1       -0.6870   -6.2340   18.3450 O.2    17  DA17       -0.5172
    341  OP2        1.5870   -6.9260   19.3600 O.3    17  DA17       -0.4373
    342  O5'        0.8950   -4.6090   19.4470 O.3    17  DA17       -0.3114
    343  C5'       -0.0400   -3.6020   19.7910 C.3    17  DA17        0.1811
    344  C4'        0.6410   -2.2680   19.8650 C.3    17  DA17        0.1746
    345  O4'        1.4720   -2.2210   21.0500 O.3    17  DA17       -0.3327
    346  C3'        1.5960   -1.9890   18.7200 C.3    17  DA17        0.1558
    347  O3'        0.9310   -1.4840   17.5820 O.3    17  DA17       -0.3138
    348  C2'        2.5510   -0.9830   19.3310 C.3    17  DA17        0.0865
    349  C1'        2.6500   -1.5050   20.7630 C.3    17  DA17        0.2094
    350  N9         3.7570   -2.4540   21.0690 N.ar   17  DA17       -0.2714
    351  C8         3.7610   -3.8160   20.9170 C.ar   17  DA17        0.1815
    352  N7         4.9240   -4.3720   21.1610 N.ar   17  DA17       -0.2193
    353  C5         5.7390   -3.3020   21.4950 C.ar   17  DA17        0.1518
    354  C6         7.0940   -3.2230   21.8610 C.ar   17  DA17        0.1919
    355  N6         7.8970   -4.2860   21.9560 N.pl3  17  DA17       -0.1054
    356  N1         7.6010   -2.0010   22.1300 N.ar   17  DA17       -0.2040
    357  C2         6.7950   -0.9370   22.0370 C.ar   17  DA17        0.2016
    358  N3         5.5080   -0.8840   21.7040 N.ar   17  DA17       -0.2048
    359  C4         5.0350   -2.1140   21.4420 C.ar   17  DA17        0.1691
    360  P          1.7060   -1.4060   16.1750 P.3    18  DC18        0.2141
    361  OP1        0.8010   -0.7250   15.2150 O.2    18  DC18       -0.5172
    362  OP2        2.4710   -2.6050   15.7360 O.3    18  DC18       -0.4373
    363  O5'        2.7470   -0.3140   16.6920 O.3    18  DC18       -0.3114
    364  C5'        2.3750    1.0790   16.8030 C.3    18  DC18        0.1811
    365  C4'        3.5990    1.9610   16.7760 C.3    18  DC18        0.1746
    366  O4'        4.3890    1.7510   17.9710 O.3    18  DC18       -0.3327
    367  C3'        4.5690    1.7080   15.6370 C.3    18  DC18        0.1558
    368  O3'        4.1870    2.3780   14.4520 O.3    18  DC18       -0.3138
    369  C2'        5.8860    2.2470   16.1820 C.3    18  DC18        0.0866
    370  C1'        5.7650    1.9280   17.6720 C.3    18  DC18        0.2106
    371  N1         6.5140    0.7100   18.0480 N.ar   18  DC18       -0.2556
    372  C2         7.8410    0.8520   18.4670 C.ar   18  DC18        0.3531
    373  O2         8.3170    1.9960   18.5660 O.2    18  DC18       -0.2443
    374  N3         8.5660   -0.2560   18.7510 N.ar   18  DC18       -0.1739
    375  C4         8.0130   -1.4640   18.6290 C.ar   18  DC18        0.1759
    376  N4         8.7660   -2.5270   18.9200 N.pl3  18  DC18       -0.1070
    377  C5         6.6700   -1.6300   18.2060 C.ar   18  DC18        0.0566
    378  C6         5.9580   -0.5320   17.9260 C.ar   18  DC18        0.0849
    379  P          4.7790    1.8350   12.9330 P.3    19  DC19        0.2141
    380  OP1        4.1370    2.6690   11.8830 O.2    19  DC19       -0.5172
    381  OP2        4.4750    0.3820   13.0090 O.3    19  DC19       -0.4373
    382  O5'        6.3640    1.9800   12.8300 O.3    19  DC19       -0.3114
    383  C5'        6.9820    3.2660   12.8520 C.3    19  DC19        0.1811
    384  C4'        8.4850    3.1360   12.9370 C.3    19  DC19        0.1746
    385  O4'        8.8630    2.4830   14.1750 O.3    19  DC19       -0.3327
    386  C3'        9.1480    2.3180   11.8430 C.3    19  DC19        0.1558
    387  O3'        9.3600    3.1150   10.6890 O.3    19  DC19       -0.3138
    388  C2'       10.4560    1.8760   12.4970 C.3    19  DC19        0.0866
    389  C1'       10.0340    1.7130   13.9620 C.3    19  DC19        0.2106
    390  N1         9.7310    0.3030   14.3230 N.ar   19  DC19       -0.2556
    391  C2        10.8120   -0.5560   14.5550 C.ar   19  DC19        0.3531
    392  O2        11.9660   -0.1060   14.4520 O.2    19  DC19       -0.2443
    393  N3        10.5700   -1.8470   14.8840 N.ar   19  DC19       -0.1739
    394  C4         9.3150   -2.2860   14.9830 C.ar   19  DC19        0.1759
    395  N4         9.1240   -3.5670   15.3090 N.pl3  19  DC19       -0.1070
    396  C5         8.2060   -1.4320   14.7510 C.ar   19  DC19        0.0566
    397  C6         8.4490   -0.1580   14.4270 C.ar   19  DC19        0.0849
    398  P          9.1770    2.5330    9.3570 P.3    20  DG20        0.2141
    399  OP1        9.7420    3.9200    9.3220 O.3    20  DG20       -0.4373
    400  OP2        7.9090    2.1900    8.6710 O.2    20  DG20       -0.5172
    401  O5'       10.3340    1.5650    8.8730 O.3    20  DG20       -0.3114
    402  C5'       11.6570    1.8590    9.2700 C.3    20  DG20        0.1811
    403  C4'       12.4000    0.5520    9.2300 C.3    20  DG20        0.1746
    404  O4'       11.9440   -0.2350   10.3530 O.3    20  DG20       -0.3327
    405  C3'       11.9990   -0.2830    8.0370 C.3    20  DG20        0.1558
    406  O3'       12.7630    0.0680    6.8930 O.3    20  DG20       -0.3138
    407  C2'       12.3010   -1.6850    8.5200 C.3    20  DG20        0.0865
    408  C1'       12.0490   -1.5960   10.0230 C.3    20  DG20        0.2094
    409  N9        10.9270   -2.3730   10.4430 N.ar   20  DG20       -0.2713
    410  C8         9.9280   -1.8200   11.2060 C.ar   20  DG20        0.1816
    411  N7         9.0330   -2.6880   11.5920 N.ar   20  DG20       -0.2173
    412  C5         9.4650   -3.8870   11.0560 C.ar   20  DG20        0.1748
    413  C6         8.9040   -5.1880   11.1330 C.ar   20  DG20        0.3023
    414  O6         7.8730   -5.5440   11.7160 O.2    20  DG20       -0.2633
    415  N1         9.6660   -6.1250   10.4410 N.ar   20  DG20       -0.1709
    416  C2        10.8260   -5.8430    9.7590 C.ar   20  DG20        0.2606
    417  N2        11.4210   -6.8790    9.1530 N.pl3  20  DG20       -0.0859
    418  N3        11.3580   -4.6400    9.6780 N.ar   20  DG20       -0.1918
    419  C4        10.6350   -3.7140   10.3420 C.ar   20  DG20        0.1722
    420  P         12.0140    0.4000    5.5560 P.3    21  DG21        0.2141
    421  OP1       12.4680    1.5220    4.7050 O.2    21  DG21       -0.5172
    422  OP2       10.7280    0.4930    6.2830 O.3    21  DG21       -0.4373
    423  O5'       12.0050   -0.9370    4.6810 O.3    21  DG21       -0.3114
    424  C5'       11.4030   -2.0690    5.2650 C.3    21  DG21        0.1811
    425  C4'       11.6130   -3.3530    4.4910 C.3    21  DG21        0.1746
    426  O4'       11.8500   -4.4040    5.4600 O.3    21  DG21       -0.3327
    427  C3'       10.3900   -3.7910    3.6990 C.3    21  DG21        0.1558
    428  O3'       10.5290   -3.4560    2.3230 O.3    21  DG21       -0.3138
    429  C2'       10.3820   -5.2990    3.9150 C.3    21  DG21        0.0865
    430  C1'       10.8350   -5.3810    5.3640 C.3    21  DG21        0.2094
    431  N9         9.8980   -5.1220    6.5160 N.ar   21  DG21       -0.2713
    432  C8         9.3880   -3.9460    7.0110 C.ar   21  DG21        0.1816
    433  N7         8.2230   -4.0900    7.5830 N.ar   21  DG21       -0.2173
    434  C5         7.9460   -5.4390    7.4610 C.ar   21  DG21        0.1748
    435  C6         6.8230   -6.1930    7.8890 C.ar   21  DG21        0.3023
    436  O6         5.8150   -5.7940    8.4850 O.2    21  DG21       -0.2633
    437  N1         6.9450   -7.5410    7.5610 N.ar   21  DG21       -0.1709
    438  C2         8.0170   -8.0940    6.9020 C.ar   21  DG21        0.2606
    439  N2         7.9540   -9.4130    6.6750 N.pl3  21  DG21       -0.0859
    440  N3         9.0660   -7.4060    6.4980 N.ar   21  DG21       -0.1918
    441  C4         8.9700   -6.0950    6.8040 C.ar   21  DG21        0.1722
    442  P          9.3480   -2.7260    1.6130 P.3    22  DG22        0.2141
    443  OP1       10.3960   -1.8920    0.9730 O.2    22  DG22       -0.5172
    444  OP2        7.9150   -2.4000    1.4070 O.3    22  DG22       -0.4373
    445  O5'        9.6640   -4.2370    1.1440 O.3    22  DG22       -0.3114
    446  C5'        8.7030   -5.0480    0.4840 C.3    22  DG22        0.1811
    447  C4'        8.5590   -6.3800    1.1930 C.3    22  DG22        0.1746
    448  O4'        8.4080   -6.2280    2.6320 O.3    22  DG22       -0.3327
    449  C3'        7.2980   -7.1540    0.8440 C.3    22  DG22        0.1558
    450  O3'        7.3160   -7.6680   -0.4810 O.3    22  DG22       -0.3138
    451  C2'        7.3410   -8.2130    1.9390 C.3    22  DG22        0.0865
    452  C1'        7.5830   -7.2780    3.1310 C.3    22  DG22        0.2094
    453  N9         6.4000   -6.8980    3.7230 N.ar   22  DG22       -0.2713
    454  C8         6.2720   -5.5740    4.0670 C.ar   22  DG22        0.1816
    455  N7         5.2760   -5.3470    4.8790 N.ar   22  DG22       -0.2173
    456  C5         4.7110   -6.5910    5.0870 C.ar   22  DG22        0.1748
    457  C6         3.5970   -6.9800    5.8740 C.ar   22  DG22        0.3023
    458  O6         2.8640   -6.2660    6.5700 O.2    22  DG22       -0.2633
    459  N1         3.3620   -8.3500    5.8030 N.ar   22  DG22       -0.1709
    460  C2         4.1090   -9.2370    5.0650 C.ar   22  DG22        0.2606
    461  N2         3.7300  -10.5210    5.1230 N.pl3  22  DG22       -0.0859
    462  N3         5.1460   -8.8910    4.3280 N.ar   22  DG22       -0.1918
    463  C4         5.3920   -7.5640    4.3810 C.ar   22  DG22        0.1722
    464  P          5.8440   -7.4320   -1.5150 P.3    23  DT23        0.2141
    465  OP1        6.4270   -7.9440   -2.7690 O.2    23  DT23       -0.5172
    466  OP2        5.3480   -6.0410   -1.4440 O.3    23  DT23       -0.4373
    467  O5'        4.7530   -8.4470   -0.9340 O.3    23  DT23       -0.3114
    468  C5'        5.1150   -9.8000   -0.5780 C.3    23  DT23        0.1811
    469  C4'        3.9530  -10.5100    0.0700 C.3    23  DT23        0.1746
    470  O4'        3.7800  -10.1120    1.4570 O.3    23  DT23       -0.3327
    471  C3'        2.6150  -10.2220   -0.5710 C.3    23  DT23        0.1558
    472  O3'        2.4240  -10.9830   -1.7410 O.3    23  DT23       -0.3138
    473  C2'        1.6280  -10.5660    0.5410 C.3    23  DT23        0.0866
    474  C1'        2.3920  -10.1090    1.7840 C.3    23  DT23        0.2106
    475  N1         2.0110   -8.7270    2.1970 N.ar   23  DT23       -0.2559
    476  C2         0.9080   -8.6280    3.0240 C.ar   23  DT23        0.3545
    477  O2         0.3520   -9.5980    3.5090 O.2    23  DT23       -0.2443
    478  N3         0.4740   -7.3470    3.2620 N.ar   23  DT23       -0.1533
    479  C4         1.0200   -6.1810    2.7690 C.ar   23  DT23        0.2804
    480  O4         0.5190   -5.1010    3.0740 O.2    23  DT23       -0.2654
    481  C5         2.1620   -6.3670    1.9180 C.ar   23  DT23        0.0534
    482  C6         2.6050   -7.6020    1.6690 C.ar   23  DT23        0.0824
    483  C7         2.8280   -5.1580    1.3310 C.3    23  DT23        0.0377
    484  P          1.2900  -10.4620   -2.9180 P.3    24  DG24        0.2141
    485  OP1        1.1930  -11.3340   -4.1150 O.2    24  DG24       -0.5172
    486  OP2        1.4990   -9.0030   -3.0880 O.3    24  DG24       -0.4373
    487  O5'       -0.0240  -10.6550   -2.0370 O.3    24  DG24       -0.3114
    488  C5'       -0.5850  -11.9680   -1.8210 C.3    24  DG24        0.1811
    489  C4'       -1.8740  -11.8760   -1.0290 C.3    24  DG24        0.1746
    490  O4'       -1.6060  -11.3690    0.3080 O.3    24  DG24       -0.3327
    491  C3'       -2.9450  -10.9310   -1.5510 C.3    24  DG24        0.1558
    492  O3'       -3.6960  -11.4790   -2.6260 O.3    24  DG24       -0.3138
    493  C2'       -3.8060  -10.7270   -0.3140 C.3    24  DG24        0.0865
    494  C1'       -2.7410  -10.6540    0.7780 C.3    24  DG24        0.2094
    495  N9        -2.3220   -9.2780    1.0570 N.ar   24  DG24       -0.2713
    496  C8        -1.2640   -8.5690    0.5440 C.ar   24  DG24        0.1816
    497  N7        -1.2670   -7.3120    0.8950 N.ar   24  DG24       -0.2173
    498  C5        -2.3910   -7.1810    1.6890 C.ar   24  DG24        0.1748
    499  C6        -2.9210   -6.0480    2.3580 C.ar   24  DG24        0.3023
    500  O6        -2.4770   -4.8930    2.3780 O.2    24  DG24       -0.2633
    501  N1        -4.0860   -6.3530    3.0560 N.ar   24  DG24       -0.1709
    502  C2        -4.6680   -7.5970    3.1040 C.ar   24  DG24        0.2606
    503  N2        -5.7890   -7.6970    3.8320 N.pl3  24  DG24       -0.0859
    504  N3        -4.1880   -8.6590    2.4870 N.ar   24  DG24       -0.1918
    505  C4        -3.0570   -8.3850    1.8020 C.ar   24  DG24        0.1722
    506  P         -4.7400  -10.5040   -3.4830 P.3    25  DT25        0.2141
    507  OP1       -5.2910  -11.3390   -4.5910 O.2    25  DT25       -0.5172
    508  OP2       -3.9810   -9.2690   -3.8010 O.3    25  DT25       -0.4373
    509  O5'       -5.9350  -10.0440   -2.5320 O.3    25  DT25       -0.3114
    510  C5'       -7.0080  -10.9430   -2.1970 C.3    25  DT25        0.1811
    511  C4'       -8.0600  -10.2310   -1.3760 C.3    25  DT25        0.1746
    512  O4'       -7.4930   -9.8020   -0.1080 O.3    25  DT25       -0.3327
    513  C3'       -8.6630   -8.9690   -1.9790 C.3    25  DT25        0.1558
    514  O3'       -9.7220   -9.2590   -2.8920 O.3    25  DT25       -0.3138
    515  C2'       -9.1710   -8.2390   -0.7440 C.3    25  DT25        0.0866
    516  C1'       -8.0970   -8.5840    0.2950 C.3    25  DT25        0.2106
    517  N1        -7.0880   -7.5300    0.3290 N.ar   25  DT25       -0.2559
    518  C2        -7.2750   -6.5010    1.2330 C.ar   25  DT25        0.3545
    519  O2        -8.1720   -6.4950    2.0570 O.2    25  DT25       -0.2443
    520  N3        -6.3700   -5.4720    1.1370 N.ar   25  DT25       -0.1533
    521  C4        -5.3200   -5.3700    0.2480 C.ar   25  DT25        0.2804
    522  O4        -4.5900   -4.3830    0.2840 O.2    25  DT25       -0.2654
    523  C5        -5.1930   -6.4770   -0.6580 C.ar   25  DT25        0.0534
    524  C6        -6.0590   -7.4910   -0.5870 C.ar   25  DT25        0.0824
    525  C7        -4.0810   -6.4600   -1.6650 C.3    25  DT25        0.0377
    526  P        -10.5480   -7.8680   -3.5280 P.3    26  DG26        0.2141
    527  OP1      -11.6350   -8.2000   -4.4640 O.2    26  DG26       -0.5172
    528  OP2       -9.2970   -7.2820   -4.0620 O.3    26  DG26       -0.4373
    529  O5'      -11.1320   -6.8500   -2.4470 O.3    26  DG26       -0.3114
    530  C5'      -12.3300   -7.1580   -1.6990 C.3    26  DG26        0.1811
    531  C4'      -12.6810   -6.0150   -0.7670 C.3    26  DG26        0.1746
    532  O4'      -11.6860   -5.8950    0.2820 O.3    26  DG26       -0.3327
    533  C3'      -12.7070   -4.6410   -1.4170 C.3    26  DG26        0.1558
    534  O3'      -13.9630   -4.3970   -2.0300 O.3    26  DG26       -0.3138
    535  C2'      -12.4650   -3.7090   -0.2430 C.3    26  DG26        0.0865
    536  C1'      -11.4610   -4.5210    0.5750 C.3    26  DG26        0.2094
    537  N9       -10.0430   -4.1870    0.2750 N.ar   26  DG26       -0.2713
    538  C8        -9.1880   -4.9010   -0.5270 C.ar   26  DG26        0.1816
    539  N7        -8.0180   -4.3390   -0.6640 N.ar   26  DG26       -0.2173
    540  C5        -8.1020   -3.1850    0.0940 C.ar   26  DG26        0.1748
    541  C6        -7.1460   -2.1640    0.3310 C.ar   26  DG26        0.3023
    542  O6        -5.9890   -2.0830   -0.1020 O.2    26  DG26       -0.2633
    543  N1        -7.6450   -1.1660    1.1630 N.ar   26  DG26       -0.1709
    544  C2        -8.9090   -1.1530    1.7010 C.ar   26  DG26        0.2606
    545  N2        -9.2090   -0.1060    2.4810 N.pl3  26  DG26       -0.0859
    546  N3        -9.8090   -2.0930    1.4890 N.ar   26  DG26       -0.1918
    547  C4        -9.3470   -3.0730    0.6830 C.ar   26  DG26        0.1722
    548  P        -14.0120   -3.7630   -3.4530 P.3    27  DG27        0.2141
    549  OP1      -15.3480   -3.7410   -4.0940 O.3    27  DG27       -0.4373
    550  OP2      -12.7970   -3.6690   -4.2960 O.2    27  DG27       -0.5172
    551  O5'      -13.9740   -2.5510   -2.4390 O.3    27  DG27       -0.3114
    552  C5'      -13.9510   -1.2510   -2.9360 C.3    27  DG27        0.1811
    553  C4'      -13.8860   -0.2620   -1.8170 C.3    27  DG27        0.1746
    554  O4'      -12.8550   -0.6100   -0.8550 O.3    27  DG27       -0.3327
    555  C3'      -13.4720    1.0700   -2.3850 C.3    27  DG27        0.1558
    556  O3'      -14.6240    1.7080   -2.8960 O.3    27  DG27       -0.3138
    557  C2'      -12.7530    1.7290   -1.2190 C.3    27  DG27        0.0865
    558  C1'      -12.0270    0.5200   -0.6190 C.3    27  DG27        0.2094
    559  N9       -10.8260    0.3280   -1.1880 N.ar   27  DG27       -0.2713
    560  C8       -10.4970   -0.7850   -1.9220 C.ar   27  DG27        0.1816
    561  N7        -9.2830   -0.7470   -2.4000 N.ar   27  DG27       -0.2173
    562  C5        -8.7770    0.4600   -1.9550 C.ar   27  DG27        0.1746
    563  C6        -7.5070    1.0590   -2.1560 C.ar   27  DG27        0.3001
    564  O6        -6.5430    0.6150   -2.7930 O.2    27  DG27       -0.2635
    565  N1        -7.4100    2.2970   -1.5280 N.ar   27  DG27       -0.1881
    566  C2        -8.4130    2.8870   -0.7970 C.ar   27  DG27        0.2410
    567  N2        -8.1320    4.0840   -0.2660 N.pl3  27  DG27       -0.1663
    568  N3        -9.5990    2.3430   -0.6020 N.ar   27  DG27       -0.1932
    569  C4        -9.7160    1.1400   -1.2040 C.ar   27  DG27        0.1722
    570  P        -14.7140    2.1880   -4.6270 P.3    28  DG28        0.2141
    571  OP1      -16.1590    2.3070   -4.9500 O.3    28  DG28       -0.4373
    572  OP2      -13.8020    1.4530   -5.5380 O.2    28  DG28       -0.5172
    573  O5'      -14.0880    3.6530   -4.4380 O.3    28  DG28       -0.3114
    574  C5'      -14.7730    4.6290   -3.6610 C.3    28  DG28        0.1811
    575  C4'      -13.8100    5.6590   -3.0980 C.3    28  DG28        0.1746
    576  O4'      -12.7090    5.0000   -2.4210 O.3    28  DG28       -0.3327
    577  C3'      -13.1300    6.5480   -4.1240 C.3    28  DG28        0.1558
    578  O3'      -13.9740    7.6200   -4.4700 O.3    28  DG28       -0.3138
    579  C2'      -11.9460    7.0330   -3.3100 C.3    28  DG28        0.0865
    580  C1'      -11.5230    5.7430   -2.6150 C.3    28  DG28        0.2094
    581  N9       -10.6100    4.9870   -3.4000 N.ar   28  DG28       -0.2713
    582  C8       -10.9210    3.7680   -3.9510 C.ar   28  DG28        0.1816
    583  N7        -9.9310    3.2340   -4.6130 N.ar   28  DG28       -0.2173
    584  C5        -8.9030    4.1510   -4.4920 C.ar   28  DG28        0.1748
    585  C6        -7.5790    4.1270   -5.0010 C.ar   28  DG28        0.3025
    586  O6        -7.0380    3.2490   -5.6860 O.2    28  DG28       -0.2633
    587  N1        -6.8630    5.2660   -4.6440 N.ar   28  DG28       -0.1685
    588  C2        -7.3610    6.3000   -3.8890 C.ar   28  DG28        0.2746
    589  N2        -6.5180    7.3140   -3.6470 N.ar   28  DG28       -0.1050
    590  N3        -8.5880    6.3380   -3.4100 N.ar   28  DG28       -0.1895
    591  C4        -9.3030    5.2430   -3.7450 C.ar   28  DG28        0.1725
    592  P        -13.6570    8.4630   -5.6120 P.3    29  DT29        0.2141
    593  OP1      -14.6080    9.5670   -5.9090 O.3    29  DT29       -0.4373
    594  OP2      -13.6730    7.2300   -6.4540 O.2    29  DT29       -0.5172
    595  O5'      -12.1880    9.0620   -5.6620 O.3    29  DT29       -0.3114
    596  C5'      -11.8620   10.2130   -4.9020 C.3    29  DT29        0.1811
    597  C4'      -10.6710   10.8870   -5.5040 C.3    29  DT29        0.1746
    598  O4'       -9.4820   10.1470   -5.1280 O.3    29  DT29       -0.3327
    599  C3'      -10.6740   10.8910   -7.0230 C.3    29  DT29        0.1558
    600  O3'      -11.4490   11.9420   -7.6090 O.3    29  DT29       -0.3138
    601  C2'       -9.1900   10.9780   -7.3390 C.3    29  DT29        0.0866
    602  C1'       -8.5750   10.1330   -6.2130 C.3    29  DT29        0.2106
    603  N1        -8.4080    8.6420   -6.5430 N.ar   29  DT29       -0.2559
    604  C2        -7.1590    8.2360   -6.9720 C.ar   29  DT29        0.3545
    605  O2        -6.1640    8.9320   -6.8740 O.2    29  DT29       -0.2443
    606  N3        -7.1150    6.9780   -7.5240 N.ar   29  DT29       -0.1533
    607  C4        -8.1710    6.1060   -7.6870 C.ar   29  DT29        0.2804
    608  O4        -7.9740    5.0080   -8.2010 O.2    29  DT29       -0.2654
    609  C5        -9.4340    6.6010   -7.2180 C.ar   29  DT29        0.0534
    610  C6        -9.5060    7.8200   -6.6770 C.ar   29  DT29        0.0824
    611  C7       -10.6450    5.7260   -7.3520 C.3    29  DT29        0.0377
    612  P        -11.8310   12.0190   -9.4610 P.3    30  DG30        0.2141
    613  OP1      -12.7270   13.1240   -9.8730 O.2    30  DG30       -0.5172
    614  OP2      -12.2350   10.6090   -9.6730 O.3    30  DG30       -0.4373
    615  O5'      -10.4240   12.1660  -10.2170 O.3    30  DG30       -0.3114
    616  C5'       -9.8210   13.4460  -10.3770 C.3    30  DG30        0.1811
    617  C4'       -8.3530   13.3550  -10.7230 C.3    30  DG30        0.1746
    618  O4'       -7.7230   12.3580   -9.8800 O.3    30  DG30       -0.3327
    619  C3'       -8.0080   12.9480  -12.1510 C.3    30  DG30        0.1558
    620  O3'       -7.9870   14.0620  -13.0370 O.3    30  DG30       -0.3138
    621  C2'       -6.6410   12.2930  -11.9920 C.3    30  DG30        0.0865
    622  C1'       -6.7160   11.6780  -10.5940 C.3    30  DG30        0.2094
    623  N9        -6.9810   10.2710  -10.5090 N.ar   30  DG30       -0.2713
    624  C8        -8.2110    9.6810  -10.3410 C.ar   30  DG30        0.1816
    625  N7        -8.1840    8.3850  -10.4850 N.ar   30  DG30       -0.2173
    626  C5        -6.8600    8.0980  -10.7620 C.ar   30  DG30        0.1748
    627  C6        -6.2180    6.8590  -11.0160 C.ar   30  DG30        0.3023
    628  O6        -6.7190    5.7280  -11.0450 O.2    30  DG30       -0.2633
    629  N1        -4.8550    7.0180  -11.2540 N.ar   30  DG30       -0.1709
    630  C2        -4.1930    8.2220  -11.2470 C.ar   30  DG30        0.2606
    631  N2        -2.8770    8.1740  -11.4960 N.pl3  30  DG30       -0.0859
    632  N3        -4.7760    9.3810  -11.0130 N.ar   30  DG30       -0.1918
    633  C4        -6.1000    9.2510  -10.7810 C.ar   30  DG30        0.1722
    634  P         -8.5630   14.0820  -14.5970 P.3    31  DC31        0.2141
    635  OP1       -8.6930   15.4500  -15.1640 O.2    31  DC31       -0.5172
    636  OP2       -9.4410   12.9590  -15.0210 O.3    31  DC31       -0.4373
    637  O5'       -7.0450   13.6120  -14.8410 O.3    31  DC31       -0.3114
    638  C5'       -5.9410   14.5290  -14.7860 C.3    31  DC31        0.1811
    639  C4'       -4.6350   13.7660  -14.9150 C.3    31  DC31        0.1746
    640  O4'       -4.6350   12.6550  -13.9800 O.3    31  DC31       -0.3327
    641  C3'       -4.3920   13.0670  -16.2380 C.3    31  DC31        0.1558
    642  O3'       -3.9250   13.9580  -17.2380 O.3    31  DC31       -0.3138
    643  C2'       -3.3090   12.0710  -15.8330 C.3    31  DC31        0.0866
    644  C1'       -3.8560   11.5920  -14.5170 C.3    31  DC31        0.2106
    645  N1        -4.6840   10.3940  -14.6030 N.ar   31  DC31       -0.2556
    646  C2        -4.0600    9.1770  -14.8990 C.ar   31  DC31        0.3531
    647  O2        -2.8340    9.1660  -15.1000 O.2    31  DC31       -0.2443
    648  N3        -4.8090    8.0500  -14.9590 N.ar   31  DC31       -0.1739
    649  C4        -6.1220    8.1090  -14.7370 C.ar   31  DC31        0.1759
    650  N4        -6.8200    6.9720  -14.8060 N.pl3  31  DC31       -0.1070
    651  C5        -6.7730    9.3330  -14.4350 C.ar   31  DC31        0.0566
    652  C6        -6.0300   10.4430  -14.3780 C.ar   31  DC31        0.0849
    653  P         -3.8480   13.4630  -18.5410 P.3    32  DC32        0.2141
    654  OP1       -3.4750   14.6710  -19.2680 O.2    32  DC32       -0.5172
    655  OP2       -5.2260   12.8970  -18.5590 O.3    32  DC32       -0.4373
    656  O5'       -2.8750   12.2330  -18.8180 O.3    32  DC32       -0.3114
    657  C5'       -1.6270   12.5500  -19.3350 C.3    32  DC32        0.1811
    658  C4'       -0.6990   11.4380  -18.9300 C.3    32  DC32        0.1746
    659  O4'       -1.2440   10.9520  -17.7230 O.3    32  DC32       -0.3327
    660  C3'       -0.7050   10.1880  -19.7580 C.3    32  DC32        0.1558
    661  O3'        0.1290   10.2670  -20.9260 O.3    32  DC32       -0.3138
    662  C2'       -0.1210    9.2900  -18.7120 C.3    32  DC32        0.0866
    663  C1'       -0.9960    9.5730  -17.5830 C.3    32  DC32        0.2106
    664  N1        -2.0560    8.6570  -17.6070 N.ar   32  DC32       -0.2556
    665  C2        -2.0140    7.3260  -17.1750 C.ar   32  DC32        0.3531
    666  O2        -0.9070    6.7880  -17.0030 O.2    32  DC32       -0.2443
    667  N3        -3.1770    6.6660  -16.9580 N.ar   32  DC32       -0.1739
    668  C4        -4.3420    7.2840  -17.1570 C.ar   32  DC32        0.1759
    669  N4        -5.4620    6.5930  -16.9310 N.pl3  32  DC32       -0.1070
    670  C5        -4.4060    8.6320  -17.5950 C.ar   32  DC32        0.0566
    671  C6        -3.2550    9.2800  -17.8070 C.ar   32  DC32        0.0849
    672  P         -0.6450   10.0100  -22.2830 P.3    33  DT33        0.2141
    673  OP1       -0.1060   10.7490  -23.4480 O.2    33  DT33       -0.5172
    674  OP2       -2.0980   10.0020  -21.9980 O.3    33  DT33       -0.4373
    675  O5'       -0.2690    8.4600  -22.4260 O.3    33  DT33       -0.3114
    676  C5'        1.0830    8.0460  -22.5560 C.3    33  DT33        0.1811
    677  C4'        1.2320    6.5650  -22.3070 C.3    33  DT33        0.1746
    678  O4'        0.5540    6.2130  -21.0730 O.3    33  DT33       -0.3327
    679  C3'        0.6140    5.6500  -23.3510 C.3    33  DT33        0.1558
    680  O3'        1.4690    5.4370  -24.4640 O.3    33  DT33       -0.3138
    681  C2'        0.3180    4.3790  -22.5640 C.3    33  DT33        0.0866
    682  C1'       -0.0280    4.9300  -21.1790 C.3    33  DT33        0.2106
    683  N1        -1.3810    4.9160  -20.9880 N.ar   33  DT33       -0.2559
    684  C2        -2.0750    3.7670  -20.6580 C.ar   33  DT33        0.3545
    685  O2        -1.5800    2.6550  -20.7040 O.2    33  DT33       -0.2443
    686  N3        -3.3770    3.9670  -20.2690 N.ar   33  DT33       -0.1533
    687  C4        -4.0400    5.1730  -20.1800 C.ar   33  DT33        0.2804
    688  O4        -5.2130    5.1930  -19.8130 O.2    33  DT33       -0.2654
    689  C5        -3.2530    6.3190  -20.5400 C.ar   33  DT33        0.0534
    690  C6        -1.9840    6.1530  -20.9220 C.ar   33  DT33        0.0824
    691  C7        -3.8850    7.6780  -20.4760 C.3    33  DT33        0.0377
    692  P          0.7290    5.1060  -25.9460 P.3    34  DT34        0.2141
    693  OP1        1.7490    4.7220  -26.9470 O.2    34  DT34       -0.5172
    694  OP2       -0.2480    6.1750  -26.2470 O.3    34  DT34       -0.4373
    695  O5'       -0.1790    3.8340  -25.6000 O.3    34  DT34       -0.3114
    696  C5'        0.4090    2.5780  -25.2950 C.3    34  DT34        0.1811
    697  C4'       -0.6340    1.5370  -24.9670 C.3    34  DT34        0.1746
    698  O4'       -1.3680    1.9340  -23.7780 O.3    34  DT34       -0.3327
    699  C3'       -1.7270    1.3350  -26.0070 C.3    34  DT34        0.1558
    700  O3'       -1.3220    0.5510  -27.1140 O.3    34  DT34       -0.3138
    701  C2'       -2.8390    0.7080  -25.1780 C.3    34  DT34        0.0866
    702  C1'       -2.7160    1.5190  -23.8870 C.3    34  DT34        0.2106
    703  N1        -3.6100    2.7340  -23.9380 N.ar   34  DT34       -0.2559
    704  C2        -4.9640    2.5530  -23.7270 C.ar   34  DT34        0.3545
    705  O2        -5.4670    1.4580  -23.5470 O.2    34  DT34       -0.2443
    706  N3        -5.7130    3.7050  -23.7350 N.ar   34  DT34       -0.1533
    707  C4        -5.2540    4.9910  -23.9290 C.ar   34  DT34        0.2804
    708  O4        -6.0500    5.9270  -23.9080 O.2    34  DT34       -0.2654
    709  C5        -3.8380    5.0960  -24.1420 C.ar   34  DT34        0.0534
    710  C6        -3.0860    3.9920  -24.1390 C.ar   34  DT34        0.0824
    711  C7        -3.2420    6.4550  -24.3630 C.3    34  DT34        0.0377
    712  P         -1.3110    1.1950  -28.3670 P.3    35  DG35        0.2141
    713  OP1       -0.5020    0.2550  -29.1840 O.2    35  DG35       -0.5172
    714  OP2       -1.1020    2.6640  -28.5070 O.3    35  DG35       -0.4373
    715  O5'       -2.8600    0.9030  -28.6080 O.3    35  DG35       -0.3114
    716  C5'       -3.3440   -0.4490  -28.6980 C.3    35  DG35        0.1811
    717  C4'       -4.8540   -0.4960  -28.5720 C.3    35  DG35        0.1746
    718  O4'       -5.2570    0.1550  -27.3340 O.3    35  DG35       -0.3327
    719  C3'       -5.7010    0.1960  -29.6330 C.3    35  DG35        0.1558
    720  O3'       -5.8790   -0.5620  -30.8320 O.3    35  DG35       -0.3138
    721  C2'       -7.0270    0.3840  -28.9040 C.3    35  DG35        0.0865
    722  C1'       -6.5590    0.6990  -27.4830 C.3    35  DG35        0.2094
    723  N9        -6.4520    2.1330  -27.2450 N.ar   35  DG35       -0.2713
    724  C8        -5.3440    2.9450  -27.2290 C.ar   35  DG35        0.1816
    725  N7        -5.6330    4.2070  -27.0570 N.ar   35  DG35       -0.2173
    726  C5        -7.0110    4.2320  -26.9510 C.ar   35  DG35        0.1748
    727  C6        -7.9020    5.3190  -26.7580 C.ar   35  DG35        0.3023
    728  O6        -7.6300    6.5200  -26.6360 O.2    35  DG35       -0.2633
    729  N1        -9.2290    4.9020  -26.7100 N.ar   35  DG35       -0.1709
    730  C2        -9.6460    3.5980  -26.8330 C.ar   35  DG35        0.2606
    731  N2       -10.9680    3.3910  -26.7600 N.pl3  35  DG35       -0.0859
    732  N3        -8.8310    2.5780  -27.0140 N.ar   35  DG35       -0.1918
    733  C4        -7.5370    2.9600  -27.0650 C.ar   35  DG35        0.1722
    734  P         -6.4230    0.1710  -32.2090 P.3    36  DA36        0.2141
    735  OP1       -5.9090   -0.8460  -33.1570 O.2    36  DA36       -0.5172
    736  OP2       -5.6470    1.4070  -31.9510 O.3    36  DA36       -0.4373
    737  O5'       -7.8640    0.7210  -32.6490 O.3    36  DA36       -0.3114
    738  C5'       -8.9950   -0.1330  -32.5590 C.3    36  DA36        0.1811
    739  C4'      -10.2150    0.5870  -32.0460 C.3    36  DA36        0.1746
    740  O4'       -9.9620    1.1160  -30.7180 O.3    36  DA36       -0.3327
    741  C3'      -10.6580    1.8060  -32.8390 C.3    36  DA36        0.1558
    742  O3'      -11.3980    1.4900  -34.0030 O.3    36  DA36       -0.3138
    743  C2'      -11.4850    2.5650  -31.8170 C.3    36  DA36        0.0865
    744  C1'      -10.6930    2.3100  -30.5330 C.3    36  DA36        0.2094
    745  N9        -9.7490    3.3790  -30.1780 N.ar   36  DA36       -0.2714
    746  C8        -8.3840    3.3970  -30.3060 C.ar   36  DA36        0.1815
    747  N7        -7.8330    4.5260  -29.9290 N.ar   36  DA36       -0.2193
    748  C5        -8.9080    5.3020  -29.5270 C.ar   36  DA36        0.1518
    749  C6        -8.9920    6.6100  -29.0180 C.ar   36  DA36        0.1919
    750  N6        -7.9320    7.3960  -28.8200 N.pl3  36  DA36       -0.1054
    751  N1       -10.2190    7.0870  -28.7160 N.ar   36  DA36       -0.2040
    752  C2       -11.2810    6.2980  -28.9140 C.ar   36  DA36        0.2016
    753  N3       -11.3280    5.0540  -29.3850 N.ar   36  DA36       -0.2048
    754  C4       -10.0940    4.6100  -29.6760 C.ar   36  DA36        0.1691
    755  P        -11.0980    2.2720  -35.3330 P.3    37  DT37        0.2141
    756  OP1      -11.6540    1.3980  -36.3540 O.2    37  DT37       -0.5172
    757  OP2       -9.8560    3.0530  -35.6130 O.3    37  DT37       -0.4373
    758  O5'      -12.1940    3.3040  -34.7400 O.3    37  DT37       -0.3114
    759  C5'      -13.5940    3.3170  -34.7250 C.3    37  DT37        0.1811
    760  C4'      -14.0930    4.5280  -33.9240 C.3    37  DT37        0.1746
    761  O4'      -13.4210    4.5920  -32.6430 O.3    37  DT37       -0.3327
    762  C3'      -13.7530    5.8680  -34.4870 C.3    37  DT37        0.1558
    763  O3'      -14.5970    6.0340  -35.5920 O.3    37  DT37       -0.3138
    764  C2'      -14.0030    6.7620  -33.2620 C.3    37  DT37        0.0866
    765  C1'      -13.2330    5.9410  -32.2140 C.3    37  DT37        0.2106
    766  N1       -11.7830    6.3900  -32.1610 N.ar   37  DT37       -0.2559
    767  C2       -11.4520    7.5220  -31.4410 C.ar   37  DT37        0.3545
    768  O2       -12.2840    8.2680  -30.9570 O.2    37  DT37       -0.2443
    769  N3       -10.1040    7.7540  -31.3090 N.ar   37  DT37       -0.1533
    770  C4        -9.0770    6.9830  -31.8130 C.ar   37  DT37        0.2804
    771  O4        -7.9130    7.3190  -31.6110 O.2    37  DT37       -0.2654
    772  C5        -9.5020    5.8250  -32.5490 C.ar   37  DT37        0.0534
    773  C6       -10.8060    5.5770  -32.6930 C.ar   37  DT37        0.0824
    774  C7        -8.4590    4.9220  -33.1380 C.3    37  DT37        0.0377
    775  P        -14.1170    6.9260  -36.8030 P.3    38  DC38        0.2141
    776  OP1      -15.2800    6.8830  -37.7220 O.2    38  DC38       -0.5172
    777  OP2      -12.7540    6.6090  -37.2840 O.3    38  DC38       -0.4373
    778  O5'      -13.9690    8.3880  -36.1750 O.3    38  DC38       -0.3114
    779  C5'      -15.1080    9.1940  -35.9050 C.3    38  DC38        0.1811
    780  C4'      -14.7110   10.6430  -35.8120 C.3    38  DC38        0.1746
    781  O4'      -13.9330   10.8370  -34.6040 O.3    38  DC38       -0.3327
    782  C3'      -13.8000   11.1430  -36.9270 C.3    38  DC38        0.1558
    783  O3'      -14.4940   11.5070  -38.1110 O.3    38  DC38       -0.3138
    784  C2'      -13.0550   12.2950  -36.2650 C.3    38  DC38        0.0866
    785  C1'      -12.9000   11.7690  -34.8390 C.3    38  DC38        0.2106
    786  N1       -11.5840   11.0970  -34.7050 N.ar   38  DC38       -0.2556
    787  C2       -10.4500   11.8730  -34.4380 C.ar   38  DC38        0.3531
    788  O2       -10.5800   13.1040  -34.3270 O.2    38  DC38       -0.2443
    789  N3        -9.2480   11.2610  -34.3090 N.ar   38  DC38       -0.1739
    790  C4        -9.1560    9.9370  -34.4370 C.ar   38  DC38        0.1759
    791  N4        -7.9510    9.3790  -34.3020 N.pl3  38  DC38       -0.1070
    792  C5       -10.2930    9.1330  -34.7080 C.ar   38  DC38        0.0566
    793  C6       -11.4780    9.7410  -34.8340 C.ar   38  DC38        0.0849
    794  P        -14.0350   10.9540  -39.4710 P.3    39  DC39        0.2141
    795  OP1      -15.1060   10.9610  -40.5010 O.2    39  DC39       -0.5172
    796  OP2      -13.2090    9.7310  -39.2730 O.3    39  DC39       -0.4373
    797  O5'      -13.0190   12.1410  -39.7750 O.3    39  DC39       -0.3114
    798  C5'      -13.4660   13.4040  -40.2590 C.3    39  DC39        0.1811
    799  C4'      -12.2750   14.2830  -40.5290 C.3    39  DC39        0.1746
    800  O4'      -11.5730   14.5200  -39.2820 O.3    39  DC39       -0.3327
    801  C3'      -11.2280   13.6680  -41.4460 C.3    39  DC39        0.1558
    802  O3'      -11.5600   13.9980  -42.7910 O.3    39  DC39       -0.3138
    803  C2'       -9.9590   14.3990  -41.0270 C.3    39  DC39        0.0866
    804  C1'      -10.1780   14.5820  -39.5230 C.3    39  DC39        0.2106
    805  N1        -9.4280   13.3240  -38.9220 N.ar   39  DC39       -0.2556
    806  C2        -8.1100   13.5300  -38.4980 C.ar   39  DC39        0.3531
    807  O2        -7.5910   14.6440  -38.6800 O.2    39  DC39       -0.2443
    808  N3        -7.4410   12.5110  -37.9060 N.ar   39  DC39       -0.1739
    809  C4        -8.0390   11.3320  -37.7330 C.ar   39  DC39        0.1759
    810  N4        -7.3410   10.3580  -37.1440 N.pl3  39  DC39       -0.1070
    811  C5        -9.3740   11.1030  -38.1550 C.ar   39  DC39        0.0566
    812  C6       -10.0300   12.1110  -38.7400 C.ar   39  DC39        0.0849
    813  P        -11.3560   12.8540  -43.8900 P.3    40  DA40        0.2141
    814  OP1      -10.4270   12.8750  -45.0520 O.2    40  DA40       -0.5172
    815  OP2      -12.8010   13.1260  -44.0990 O.3    40  DA40       -0.4373
    816  O5'      -11.0950   11.4870  -43.0690 O.3    40  DA40       -0.3114
    817  C5'      -10.9880   10.2420  -43.7460 C.3    40  DA40        0.1811
    818  C4'       -9.5590    9.7810  -44.0060 C.3    40  DA40        0.1746
    819  O4'       -8.8400   10.6420  -44.9370 O.3    40  DA40       -0.3327
    820  C3'       -8.6600    9.7100  -42.7850 C.3    40  DA40        0.1558
    821  O3'       -8.8940    8.5570  -42.0920 O.3    40  DA40       -0.3138
    822  C2'       -7.2670    9.6540  -43.3940 C.3    40  DA40        0.0865
    823  C1'       -7.4520   10.5930  -44.5950 C.3    40  DA40        0.2094
    824  N9        -6.9250   11.7870  -44.4680 N.ar   40  DA40       -0.2714
    825  C8        -7.7820   12.8550  -44.5290 C.ar   40  DA40        0.1815
    826  N7        -7.1770   14.0170  -44.5890 N.ar   40  DA40       -0.2193
    827  C5        -5.8300   13.6910  -44.5650 C.ar   40  DA40        0.1518
    828  C6        -4.6650   14.4780  -44.6030 C.ar   40  DA40        0.1919
    829  N6        -4.6760   15.8110  -44.6770 N.pl3  40  DA40       -0.1054
    830  N1        -3.4760   13.8390  -44.5620 N.ar   40  DA40       -0.2040
    831  C2        -3.4670   12.5030  -44.4880 C.ar   40  DA40        0.2016
    832  N3        -4.4930   11.6560  -44.4480 N.ar   40  DA40       -0.2048
    833  C4        -5.6590   12.3220  -44.4890 C.ar   40  DA40        0.1691
    834  P         -9.7180    8.6760  -40.7920 P.3    41  DG41        0.2141
    835  OP1      -10.4030    7.4950  -40.2380 O.3    41  DG41       -0.4373
    836  OP2      -10.2360   10.0280  -40.5030 O.2    41  DG41       -0.5172
    837  O5'       -8.1910    8.6370  -40.3600 O.3    41  DG41       -0.3114
    838  C5'       -7.3890    7.5030  -40.6430 C.3    41  DG41        0.1811
    839  C4'       -5.9240    7.8560  -40.5710 C.3    41  DG41        0.1746
    840  O4'       -5.6820    9.0720  -41.3160 O.3    41  DG41       -0.3327
    841  C3'       -5.3370    8.1800  -39.2120 C.3    41  DG41        0.1558
    842  O3'       -5.0480    6.9680  -38.5140 O.3    41  DG41       -0.3138
    843  C2'       -4.0490    8.9110  -39.5940 C.3    41  DG41        0.0865
    844  C1'       -4.4630    9.6340  -40.8880 C.3    41  DG41        0.2094
    845  N9        -4.5850   10.9960  -40.7170 N.ar   41  DG41       -0.2713
    846  C8        -5.7650   11.6970  -40.6470 C.ar   41  DG41        0.1816
    847  N7        -5.5940   12.9730  -40.4300 N.ar   41  DG41       -0.2173
    848  C5        -4.2230   13.1280  -40.3550 C.ar   41  DG41        0.1748
    849  C6        -3.4350   14.2870  -40.1330 C.ar   41  DG41        0.3023
    850  O6        -3.8180   15.4500  -39.9540 O.2    41  DG41       -0.2633
    851  N1        -2.0730   13.9980  -40.1300 N.ar   41  DG41       -0.1709
    852  C2        -1.5360   12.7470  -40.3170 C.ar   41  DG41        0.2606
    853  N2        -0.1990   12.6670  -40.2820 N.pl3  41  DG41       -0.0859
    854  N3        -2.2550   11.6610  -40.5230 N.ar   41  DG41       -0.1918
    855  C4        -3.5800   11.9170  -40.5300 C.ar   41  DG41        0.1722
    856  P         -4.5680    7.0340  -36.8730 P.3    42  DG42        0.2141
    857  OP1       -4.8270    5.8490  -36.0280 O.3    42  DG42       -0.4373
    858  OP2       -5.5430    8.1480  -36.9080 O.2    42  DG42       -0.5172
    859  O5'       -3.1990    7.7310  -36.4310 O.3    42  DG42       -0.3114
    860  C5'       -1.9440    7.1000  -36.6430 C.3    42  DG42        0.1811
    861  C4'       -0.8140    8.0660  -36.3970 C.3    42  DG42        0.1746
    862  O4'       -0.7980    9.0710  -37.4450 O.3    42  DG42       -0.3327
    863  C3'       -0.9260    8.8900  -35.1250 C.3    42  DG42        0.1558
    864  O3'       -0.5350    8.1980  -33.9550 O.3    42  DG42       -0.3138
    865  C2'       -0.0670   10.1060  -35.4420 C.3    42  DG42        0.0865
    866  C1'       -0.4440   10.3260  -36.9030 C.3    42  DG42        0.2094
    867  N9        -1.6000   11.2590  -37.0010 N.ar   42  DG42       -0.2713
    868  C8        -2.9230   11.0230  -37.2880 C.ar   42  DG42        0.1816
    869  N7        -3.6590   12.0990  -37.2440 N.ar   42  DG42       -0.2173
    870  C5        -2.7740   13.1070  -36.9110 C.ar   42  DG42        0.1748
    871  C6        -2.9880   14.4960  -36.7150 C.ar   42  DG42        0.3023
    872  O6        -4.0480   15.1280  -36.8040 O.2    42  DG42       -0.2633
    873  N1        -1.8110   15.1620  -36.3840 N.ar   42  DG42       -0.1709
    874  C2        -0.5800   14.5640  -36.2570 C.ar   42  DG42        0.2606
    875  N2         0.4380   15.3720  -35.9320 N.pl3  42  DG42       -0.0859
    876  N3        -0.3670   13.2760  -36.4350 N.ar   42  DG42       -0.1918
    877  C4        -1.4950   12.6080  -36.7560 C.ar   42  DG42        0.1722
    878  P         -1.4940    8.4200  -32.7320 P.3    43  DG43        0.2141
    879  OP1       -1.0150    7.5860  -31.6060 O.3    43  DG43       -0.4373
    880  OP2       -2.7890    8.1250  -33.3860 O.2    43  DG43       -0.5172
    881  O5'       -1.6380    9.9410  -32.2490 O.3    43  DG43       -0.3114
    882  C5'       -0.5690   10.5950  -31.5800 C.3    43  DG43        0.1811
    883  C4'       -0.7330   12.0940  -31.5920 C.3    43  DG43        0.1746
    884  O4'       -1.1970   12.5200  -32.8970 O.3    43  DG43       -0.3327
    885  C3'       -1.7460   12.6700  -30.6120 C.3    43  DG43        0.1558
    886  O3'       -1.1690   12.8620  -29.3310 O.3    43  DG43       -0.3138
    887  C2'       -2.1800   13.9700  -31.2810 C.3    43  DG43        0.0865
    888  C1'       -2.0250   13.6560  -32.7710 C.3    43  DG43        0.2094
    889  N9        -3.2590   13.3870  -33.4960 N.ar   43  DG43       -0.2713
    890  C8        -3.7680   12.1900  -33.9370 C.ar   43  DG43        0.1816
    891  N7        -4.9300   12.3080  -34.5200 N.ar   43  DG43       -0.2173
    892  C5        -5.2050   13.6620  -34.4650 C.ar   43  DG43        0.1748
    893  C6        -6.3240   14.3960  -34.9350 C.ar   43  DG43        0.3023
    894  O6        -7.3300   13.9700  -35.5170 O.2    43  DG43       -0.2633
    895  N1        -6.2020   15.7570  -34.6720 N.ar   43  DG43       -0.1709
    896  C2        -5.1330   16.3400  -34.0350 C.ar   43  DG43        0.2606
    897  N2        -5.1940   17.6680  -33.8720 N.pl3  43  DG43       -0.0859
    898  N3        -4.0860   15.6710  -33.5920 N.ar   43  DG43       -0.1918
    899  C4        -4.1840   14.3470  -33.8360 C.ar   43  DG43        0.1722
    900  P         -2.0030   13.2400  -28.1670 P.3    44  DA44        0.2141
    901  OP1       -1.4820   13.4550  -26.7890 O.3    44  DA44       -0.4373
    902  OP2       -2.8300   12.0310  -28.4540 O.2    44  DA44       -0.5172
    903  O5'       -2.8790   14.5140  -28.5570 O.3    44  DA44       -0.3114
    904  C5'       -2.4020   15.8620  -28.3330 C.3    44  DA44        0.1812
    905  C4'       -3.5350   16.8520  -28.5100 C.3    44  DA44        0.1775
    906  O4'       -3.9840   16.8320  -29.8950 O.3    44  DA44       -0.3326
    907  C3'       -4.7940   16.5500  -27.7050 C.3    44  DA44        0.1859
    908  O3'       -4.7460   17.0230  -26.3690 O.3    44  DA44       -0.2203
    909  C2'       -5.8880   17.2300  -28.5150 C.3    44  DA44        0.0894
    910  C1'       -5.3960   17.0120  -29.9470 C.3    44  DA44        0.2095
    911  N9        -6.0310   15.8450  -30.5440 N.ar   44  DA44       -0.2714
    912  C8        -5.5750   14.5590  -30.6660 C.ar   44  DA44        0.1815
    913  N7        -6.4490   13.7360  -31.1950 N.ar   44  DA44       -0.2193
    914  C5        -7.5540   14.5360  -31.4360 C.ar   44  DA44        0.1518
    915  C6        -8.8180   14.2620  -31.9890 C.ar   44  DA44        0.1919
    916  N6        -9.1910   13.0530  -32.4170 N.pl3  44  DA44       -0.1054
    917  N1        -9.6930   15.2840  -32.0890 N.ar   44  DA44       -0.2040
    918  C2        -9.3180   16.4950  -31.6610 C.ar   44  DA44        0.2016
    919  N3        -8.1600   16.8760  -31.1250 N.ar   44  DA44       -0.2048
    920  C4        -7.3130   15.8370  -31.0390 C.ar   44  DA44        0.1691
    921  P         -5.9300   16.1470  -24.7340 P.3    45  DG45        0.5411
    922  OP1       -5.6990   16.7610  -23.4070 O.2    45  DG45       -0.2272
    923  OP2       -5.4240   14.7780  -24.9970 O.2    45  DG45       -0.2272
    924  O5'       -7.4980   16.1660  -25.0910 O.3    45  DG45       -0.2722
    925  C5'       -8.2000   17.4070  -25.2470 C.3    45  DG45        0.1850
    926  C4'       -9.5310   17.2610  -25.9700 C.3    45  DG45        0.1748
    927  O4'       -9.2880   17.0210  -27.3750 O.3    45  DG45       -0.3327
    928  C3'      -10.4070   16.0920  -25.5480 C.3    45  DG45        0.1558
    929  O3'      -11.1860   16.3720  -24.3980 O.3    45  DG45       -0.3138
    930  C2'      -11.2840   15.9100  -26.7760 C.3    45  DG45        0.0865
    931  C1'      -10.2550   16.1190  -27.8770 C.3    45  DG45        0.2094
    932  N9        -9.6060   14.8620  -28.2630 N.ar   45  DG45       -0.2713
    933  C8        -8.3170   14.5080  -27.9440 C.ar   45  DG45        0.1816
    934  N7        -7.9480   13.3740  -28.4740 N.ar   45  DG45       -0.2173
    935  C5        -9.0540   12.9530  -29.1870 C.ar   45  DG45        0.1748
    936  C6        -9.2580   11.7880  -29.9710 C.ar   45  DG45        0.3023
    937  O6        -8.4640   10.8660  -30.1950 O.2    45  DG45       -0.2633
    938  N1       -10.5360   11.7490  -30.5230 N.ar   45  DG45       -0.1709
    939  C2       -11.4980   12.7140  -30.3430 C.ar   45  DG45        0.2606
    940  N2       -12.6700   12.5020  -30.9570 N.pl3  45  DG45       -0.0859
    941  N3       -11.3230   13.8010  -29.6170 N.ar   45  DG45       -0.1918
    942  C4       -10.0900   13.8590  -29.0700 C.ar   45  DG45        0.1722
    943  P        -11.4350   15.3220  -23.5660 P.3    46  DT46        0.2141
    944  OP1      -11.9410   16.3010  -22.5800 O.3    46  DT46       -0.4373
    945  OP2      -10.2000   14.5620  -23.2850 O.2    46  DT46       -0.5172
    946  O5'      -12.5450   14.2010  -23.8120 O.3    46  DT46       -0.3114
    947  C5'      -13.7380   14.5750  -24.4810 C.3    46  DT46        0.1811
    948  C4'      -14.4480   13.3710  -25.0390 C.3    46  DT46        0.1746
    949  O4'      -13.8760   12.9940  -26.3180 O.3    46  DT46       -0.3327
    950  C3'      -14.3200   12.1000  -24.2180 C.3    46  DT46        0.1558
    951  O3'      -15.1310   12.0860  -23.0610 O.3    46  DT46       -0.3138
    952  C2'      -14.6720   11.0370  -25.2460 C.3    46  DT46        0.0866
    953  C1'      -13.9330   11.5900  -26.4610 C.3    46  DT46        0.2106
    954  N1       -12.5430   11.0280  -26.5420 N.ar   46  DT46       -0.2559
    955  C2       -12.4050    9.7660  -27.0880 C.ar   46  DT46        0.3545
    956  O2       -13.3510    9.1020  -27.4710 O.2    46  DT46       -0.2443
    957  N3       -11.1130    9.3060  -27.1680 N.ar   46  DT46       -0.1533
    958  C4        -9.9700    9.9660  -26.7660 C.ar   46  DT46        0.2804
    959  O4        -8.8780    9.4220  -26.9040 O.2    46  DT46       -0.2654
    960  C5       -10.1960   11.2700  -26.2090 C.ar   46  DT46        0.0534
    961  C6       -11.4420   11.7420  -26.1190 C.ar   46  DT46        0.0824
    962  C7        -9.0150   12.0680  -25.7420 C.3    46  DT46        0.0377
    963  P        -14.5000   11.7080  -22.1860 P.3    47  DC47        0.2141
    964  OP1      -15.2300   12.1690  -20.9750 O.3    47  DC47       -0.4373
    965  OP2      -13.0240   11.8740  -22.2590 O.2    47  DC47       -0.5172
    966  O5'      -14.8330   10.1640  -22.4100 O.3    47  DC47       -0.3114
    967  C5'      -16.1360    9.7500  -22.8110 C.3    47  DC47        0.1811
    968  C4'      -16.1010    8.3300  -23.3240 C.3    47  DC47        0.1746
    969  O4'      -15.2200    8.2500  -24.4760 O.3    47  DC47       -0.3327
    970  C3'      -15.5330    7.2980  -22.3670 C.3    47  DC47        0.1558
    971  O3'      -16.5180    6.8640  -21.4440 O.3    47  DC47       -0.3138
    972  C2'      -15.1220    6.1790  -23.3150 C.3    47  DC47        0.0866
    973  C1'      -14.5830    6.9800  -24.5020 C.3    47  DC47        0.2106
    974  N1       -13.1080    7.1960  -24.4690 N.ar   47  DC47       -0.2556
    975  C2       -12.3280    6.1110  -24.8860 C.ar   47  DC47        0.3531
    976  O2       -12.8970    5.1150  -25.3640 O.2    47  DC47       -0.2443
    977  N3       -10.9810    6.1780  -24.7560 N.ar   47  DC47       -0.1739
    978  C4       -10.4140    7.2670  -24.2360 C.ar   47  DC47        0.1759
    979  N4        -9.0840    7.2870  -24.1270 N.pl3  47  DC47       -0.1070
    980  C5       -11.1870    8.3770  -23.8080 C.ar   47  DC47        0.0566
    981  C6       -12.5160    8.3070  -23.9380 C.ar   47  DC47        0.0849
    982  P        -16.0330    6.3640  -20.6590 P.3    48  DT48        0.2141
    983  OP1      -17.2080    6.0440  -19.8050 O.3    48  DT48       -0.4373
    984  OP2      -14.9270    7.1910  -20.1060 O.2    48  DT48       -0.5172
    985  O5'      -15.4090    4.9980  -21.1830 O.3    48  DT48       -0.3114
    986  C5'      -16.2080    4.0670  -21.9310 C.3    48  DT48        0.1811
    987  C4'      -15.3610    2.9050  -22.3800 C.3    48  DT48        0.1746
    988  O4'      -14.3360    3.3830  -23.2900 O.3    48  DT48       -0.3327
    989  C3'      -14.5760    2.2330  -21.2710 C.3    48  DT48        0.1558
    990  O3'      -15.3670    1.2990  -20.5570 O.3    48  DT48       -0.3138
    991  C2'      -13.4310    1.5840  -22.0330 C.3    48  DT48        0.0866
    992  C1'      -13.1310    2.6610  -23.0770 C.3    48  DT48        0.2106
    993  N1       -12.0640    3.5740  -22.6950 N.ar   48  DT48       -0.2559
    994  C2       -10.7650    3.1800  -22.9530 C.ar   48  DT48        0.3545
    995  O2       -10.4860    2.1270  -23.4980 O.2    48  DT48       -0.2443
    996  N3        -9.7970    4.0660  -22.5450 N.ar   48  DT48       -0.1533
    997  C4        -9.9930    5.2800  -21.9210 C.ar   48  DT48        0.2804
    998  O4        -9.0220    5.9670  -21.6160 O.2    48  DT48       -0.2654
    999  C5       -11.3690    5.6180  -21.6880 C.ar   48  DT48        0.0534
   1000  C6       -12.3300    4.7750  -22.0730 C.ar   48  DT48        0.0824
   1001  C7       -11.6860    6.9200  -21.0130 C.3    48  DT48        0.0377
   1002  P        -15.1030    1.0630  -18.9400 P.3    49  DC49        0.2141
   1003  OP1      -16.2280    1.5180  -18.0870 O.3    49  DC49       -0.4373
   1004  OP2      -13.7170    1.4790  -18.6120 O.2    49  DC49       -0.5172
   1005  O5'      -15.1320   -0.5310  -19.0410 O.3    49  DC49       -0.3114
   1006  C5'      -13.9310   -1.2200  -18.7470 C.3    49  DC49        0.1811
   1007  C4'      -13.1150   -1.5980  -19.9740 C.3    49  DC49        0.1746
   1008  O4'      -12.8940   -0.5150  -20.9180 O.3    49  DC49       -0.3327
   1009  C3'      -11.6970   -1.9650  -19.5940 C.3    49  DC49        0.1558
   1010  O3'      -11.7210   -3.2010  -18.9490 O.3    49  DC49       -0.3138
   1011  C2'      -10.9890   -1.9440  -20.9400 C.3    49  DC49        0.0866
   1012  C1'      -11.5920   -0.6480  -21.4820 C.3    49  DC49        0.2106
   1013  N1       -10.3820    0.1780  -20.9240 N.ar   49  DC49       -0.2556
   1014  C2        -9.2020    0.3710  -21.6530 C.ar   49  DC49        0.3531
   1015  O2        -8.7900   -0.5500  -22.3780 O.2    49  DC49       -0.2443
   1016  N3        -8.5470    1.5510  -21.5460 N.ar   49  DC49       -0.1739
   1017  C4        -9.0260    2.5110  -20.7540 C.ar   49  DC49        0.1759
   1018  N4        -8.3460    3.6580  -20.6800 N.pl3  49  DC49       -0.1070
   1019  C5       -10.2190    2.3350  -20.0070 C.ar   49  DC49        0.0566
   1020  C6       -10.8640    1.1680  -20.1160 C.ar   49  DC49        0.0849
   1021  P        -11.4110   -3.0310  -17.4570 P.3    50  DA50        0.2141
   1022  OP1      -11.6400   -4.2840  -16.7030 O.3    50  DA50       -0.4373
   1023  OP2      -11.6400   -1.7210  -16.7910 O.2    50  DA50       -0.5172
   1024  O5'       -9.9120   -3.0430  -17.9950 O.3    50  DA50       -0.3114
   1025  C5'       -9.3750   -4.2100  -18.6290 C.3    50  DA50        0.1811
   1026  C4'       -7.9380   -3.9830  -19.0320 C.3    50  DA50        0.1746
   1027  O4'       -7.8720   -2.9270  -20.0290 O.3    50  DA50       -0.3327
   1028  C3'       -6.9830   -3.5050  -17.9510 C.3    50  DA50        0.1558
   1029  O3'       -6.5460   -4.5560  -17.0950 O.3    50  DA50       -0.3138
   1030  C2'       -5.8510   -2.9290  -18.7910 C.3    50  DA50        0.0865
   1031  C1'       -6.6390   -2.2270  -19.9010 C.3    50  DA50        0.2094
   1032  N9        -6.9290   -0.8440  -19.5220 N.ar   50  DA50       -0.2714
   1033  C8        -8.0680   -0.3450  -18.9460 C.ar   50  DA50        0.1815
   1034  N7        -7.9890    0.9270  -18.6340 N.ar   50  DA50       -0.2193
   1035  C5        -6.7120    1.2870  -19.0310 C.ar   50  DA50        0.1518
   1036  C6        -6.0120    2.5050  -18.9750 C.ar   50  DA50        0.1919
   1037  N6        -6.5260    3.6310  -18.4740 N.pl3  50  DA50       -0.1054
   1038  N1        -4.7510    2.5260  -19.4570 N.ar   50  DA50       -0.2040
   1039  C2        -4.2360    1.3980  -19.9590 C.ar   50  DA50        0.2016
   1040  N3        -4.7950    0.1950  -20.0670 N.ar   50  DA50       -0.2048
   1041  C4        -6.0460    0.2070  -19.5790 C.ar   50  DA50        0.1691
   1042  P         -6.0400   -4.2190  -15.5590 P.3    51  DG51        0.2141
   1043  OP1       -5.8420   -5.5900  -15.0490 O.2    51  DG51       -0.5172
   1044  OP2       -7.0650   -3.3160  -15.0050 O.3    51  DG51       -0.4373
   1045  O5'       -4.6320   -3.5170  -15.4090 O.3    51  DG51       -0.3114
   1046  C5'       -3.4960   -4.2270  -15.7990 C.3    51  DG51        0.1811
   1047  C4'       -2.4750   -3.1870  -16.1510 C.3    51  DG51        0.1746
   1048  O4'       -2.9670   -2.3170  -17.2010 O.3    51  DG51       -0.3327
   1049  C3'       -2.1650   -2.2110  -15.0220 C.3    51  DG51        0.1558
   1050  O3'       -1.4720   -2.9040  -13.9820 O.3    51  DG51       -0.3138
   1051  C2'       -1.3510   -1.2270  -15.8450 C.3    51  DG51        0.0865
   1052  C1'       -2.2840   -1.0880  -17.0610 C.3    51  DG51        0.2094
   1053  N9        -3.2260   -0.0190  -16.9180 N.ar   51  DG51       -0.2713
   1054  C8        -4.5660   -0.2190  -16.6890 C.ar   51  DG51        0.1816
   1055  N7        -5.2490    0.8900  -16.6230 N.ar   51  DG51       -0.2173
   1056  C5        -4.3090    1.8850  -16.8220 C.ar   51  DG51        0.1748
   1057  C6        -4.4510    3.2960  -16.8570 C.ar   51  DG51        0.3023
   1058  O6        -5.4810    3.9660  -16.7140 O.2    51  DG51       -0.2633
   1059  N1        -3.2360    3.9360  -17.0850 N.ar   51  DG51       -0.1709
   1060  C2        -2.0330    3.2950  -17.2590 C.ar   51  DG51        0.2606
   1061  N2        -0.9690    4.0820  -17.4690 N.pl3  51  DG51       -0.0859
   1062  N3        -1.8850    1.9850  -17.2280 N.ar   51  DG51       -0.1918
   1063  C4        -3.0520    1.3430  -17.0060 C.ar   51  DG51        0.1722
   1064  P         -1.3570   -2.4150  -12.5260 P.3    52  DA52        0.2141
   1065  OP1       -1.0230   -2.7690  -11.1290 O.3    52  DA52       -0.4373
   1066  OP2       -2.4480   -1.4530  -12.7970 O.2    52  DA52       -0.5172
   1067  O5'       -0.0650   -1.7610  -13.2130 O.3    52  DA52       -0.3114
   1068  C5'        0.8040   -0.9270  -12.4550 C.3    52  DA52        0.1811
   1069  C4'        1.1700    0.3470  -13.1810 C.3    52  DA52        0.1746
   1070  O4'        0.0510    0.7880  -13.9900 O.3    52  DA52       -0.3327
   1071  C3'        1.5100    1.5380  -12.2940 C.3    52  DA52        0.1558
   1072  O3'        2.8780    1.5700  -11.9230 O.3    52  DA52       -0.3138
   1073  C2'        1.0840    2.7490  -13.1190 C.3    52  DA52        0.0865
   1074  C1'       -0.0910    2.1910  -13.9220 C.3    52  DA52        0.2094
   1075  N9        -1.2760    2.4850  -13.3000 N.ar   52  DA52       -0.2714
   1076  C8        -2.1230    1.4200  -13.4610 C.ar   52  DA52        0.1815
   1077  N7        -3.3760    1.6930  -13.1820 N.ar   52  DA52       -0.2193
   1078  C5        -3.3500    3.0280  -12.8120 C.ar   52  DA52        0.1518
   1079  C6        -4.3600    3.9150  -12.4000 C.ar   52  DA52        0.1919
   1080  N6        -5.6450    3.5720  -12.2900 N.pl3  52  DA52       -0.1054
   1081  N1        -3.9980    5.1810  -12.1020 N.ar   52  DA52       -0.2040
   1082  C2        -2.7100    5.5240  -12.2130 C.ar   52  DA52        0.2016
   1083  N3        -1.6710    4.7810  -12.5900 N.ar   52  DA52       -0.2048
   1084  C4        -2.0640    3.5290  -12.8780 C.ar   52  DA52        0.1691
   1085  P          3.4040    1.8360  -10.0470 P.3    53  DA53        0.2141
   1086  OP1        4.4950    1.3570  -10.9210 O.2    53  DA53       -0.5172
   1087  OP2        3.6720    2.1220   -8.6250 O.3    53  DA53       -0.4373
   1088  O5'        2.7490    3.1540  -10.6630 O.3    53  DA53       -0.3114
   1089  C5'        3.5600    4.3050  -10.8280 C.3    53  DA53        0.1811
   1090  C4'        2.9400    5.5060  -10.1530 C.3    53  DA53        0.1746
   1091  O4'        1.7180    5.8270  -10.8550 O.3    53  DA53       -0.3327
   1092  C3'        2.4970    5.3050   -8.7120 C.3    53  DA53        0.1558
   1093  O3'        3.5810    5.5160   -7.8160 O.3    53  DA53       -0.3138
   1094  C2'        1.4370    6.3920   -8.5920 C.3    53  DA53        0.0865
   1095  C1'        0.7350    6.2800   -9.9410 C.3    53  DA53        0.2094
   1096  N9        -0.4310    5.2740   -9.9490 N.ar   53  DA53       -0.2714
   1097  C8        -0.5090    3.9100  -10.0610 C.ar   53  DA53        0.1815
   1098  N7        -1.6830    3.4190   -9.7430 N.ar   53  DA53       -0.2193
   1099  C5        -2.4270    4.5360   -9.3980 C.ar   53  DA53        0.1518
   1100  C6        -3.7570    4.6900   -8.9670 C.ar   53  DA53        0.1919
   1101  N6        -4.6050    3.6720   -8.8050 N.pl3  53  DA53       -0.1054
   1102  N1        -4.1880    5.9420   -8.7050 N.ar   53  DA53       -0.2040
   1103  C2        -3.3380    6.9620   -8.8680 C.ar   53  DA53        0.2016
   1104  N3        -2.0690    6.9430   -9.2670 N.ar   53  DA53       -0.2048
   1105  C4        -1.6700    5.6850   -9.5190 C.ar   53  DA53        0.1691
   1106  P          3.7200    4.6240   -6.3150 P.3    54  DG54        0.2141
   1107  OP1        4.9990    4.6660   -5.5730 O.3    54  DG54       -0.4373
   1108  OP2        3.1040    3.3100   -6.6520 O.2    54  DG54       -0.5172
   1109  O5'        2.6450    5.4700   -5.4960 O.3    54  DG54       -0.3114
   1110  C5'        3.0220    6.6700   -4.8210 C.3    54  DG54        0.1811
   1111  C4'        1.8040    7.4950   -4.4660 C.3    54  DG54        0.1746
   1112  O4'        0.8530    7.4590   -5.5660 O.3    54  DG54       -0.3327
   1113  C3'        0.9550    7.0720   -3.2770 C.3    54  DG54        0.1558
   1114  O3'        1.5370    7.4850   -2.0410 O.3    54  DG54       -0.3138
   1115  C2'       -0.3250    7.8470   -3.5520 C.3    54  DG54        0.0865
   1116  C1'       -0.4540    7.6710   -5.0640 C.3    54  DG54        0.2094
   1117  N9        -1.3300    6.4800   -5.4050 N.ar   54  DG54       -0.2713
   1118  C8        -0.9750    5.3190   -6.0480 C.ar   54  DG54        0.1816
   1119  N7        -1.9840    4.5190   -6.2640 N.ar   54  DG54       -0.2173
   1120  C5        -3.0710    5.1890   -5.7350 C.ar   54  DG54        0.1748
   1121  C6        -4.4400    4.8210   -5.6700 C.ar   54  DG54        0.3025
   1122  O6        -4.9750    3.7860   -6.0860 O.2    54  DG54       -0.2633
   1123  N1        -5.2120    5.7970   -5.0450 N.ar   54  DG54       -0.1685
   1124  C2        -4.7260    6.9810   -4.5460 C.ar   54  DG54        0.2746
   1125  N2        -5.6250    7.7970   -3.9790 N.ar   54  DG54       -0.1050
   1126  N3        -3.4570    7.3370   -4.5980 N.ar   54  DG54       -0.1895
   1127  C4        -2.6880    6.4040   -5.2000 C.ar   54  DG54        0.1725
   1128  P          1.0600    6.7660   -0.5810 P.3    55  DA55        0.2141
   1129  OP1        2.0610    7.2110    0.4300 O.3    55  DA55       -0.4373
   1130  OP2        1.1000    5.3720   -1.0970 O.2    55  DA55       -0.5172
   1131  O5'       -0.4060    7.0580   -0.0230 O.3    55  DA55       -0.3114
   1132  C5'       -0.6980    8.3220    0.5920 C.3    55  DA55        0.1811
   1133  C4'       -2.1680    8.4410    0.9120 C.3    55  DA55        0.1746
   1134  O4'       -2.9350    8.2790   -0.2980 O.3    55  DA55       -0.3327
   1135  C3'       -2.7360    7.4270    1.8860 C.3    55  DA55        0.1558
   1136  O3'       -2.5290    7.8930    3.2230 O.3    55  DA55       -0.3138
   1137  C2'       -4.2140    7.3870    1.5030 C.3    55  DA55        0.0865
   1138  C1'       -4.1620    7.6520   -0.0020 C.3    55  DA55        0.2093
   1139  N9        -4.2830    6.4840   -0.8280 N.ar   55  DA55       -0.2739
   1140  C8        -3.3050    5.7910   -1.4920 C.ar   55  DA55        0.1811
   1141  N7        -3.7310    4.6890   -2.0620 N.ar   55  DA55       -0.2237
   1142  C5        -5.0820    4.6560   -1.7510 C.ar   55  DA55        0.1297
   1143  C6        -6.1020    3.7400   -2.0630 C.3    55  DA55        0.2267
   1144  N6        -5.9080    2.6360   -2.7890 N.3    55  DA55       -0.1024
   1145  N1        -7.3420    4.0010   -1.5970 N.pl3  55  DA55       -0.1829
   1146  C2        -7.5350    5.1080   -0.8710 C.3    55  DA55        0.2872
   1147  N3        -6.6580    6.0430   -0.5140 N.pl3  55  DA55       -0.1806
   1148  C4        -5.4360    5.7540   -0.9910 C.ar   55  DA55        0.1512
   1149  P         -2.4090    6.7890    4.5510 P.3    56  DC56        0.2141
   1150  OP1       -1.9030    7.6460    5.6590 O.3    56  DC56       -0.4373
   1151  OP2       -1.7850    5.5190    4.1370 O.2    56  DC56       -0.5172
   1152  O5'       -3.8880    6.2570    4.9190 O.3    56  DC56       -0.3114
   1153  C5'       -5.0000    7.1380    5.1590 C.3    56  DC56        0.1811
   1154  C4'       -6.3220    6.3900    5.1020 C.3    56  DC56        0.1746
   1155  O4'       -6.5810    6.0860    3.7240 O.3    56  DC56       -0.3327
   1156  C3'       -6.3120    5.0170    5.7080 C.3    56  DC56        0.1558
   1157  O3'       -6.4270    5.1190    7.1170 O.3    56  DC56       -0.3138
   1158  C2'       -7.4920    4.3370    5.0090 C.3    56  DC56        0.0866
   1159  C1'       -7.2890    4.8780    3.6210 C.3    56  DC56        0.2106
   1160  N1        -6.5300    3.8780    2.8290 N.ar   56  DC56       -0.2556
   1161  C2        -7.2010    2.8370    2.1780 C.ar   56  DC56        0.3531
   1162  O2        -8.4420    2.8000    2.2320 O.2    56  DC56       -0.2443
   1163  N3        -6.4810    1.9020    1.5120 N.ar   56  DC56       -0.1739
   1164  C4        -5.1500    1.9820    1.4830 C.ar   56  DC56        0.1759
   1165  N4        -4.4830    1.0380    0.8140 N.pl3  56  DC56       -0.1070
   1166  C5        -4.4510    3.0290    2.1360 C.ar   56  DC56        0.0566
   1167  C6        -5.1660    3.9500    2.7920 C.ar   56  DC56        0.0849
   1168  P         -5.7090    4.0480    8.0080 P.3    57  DA57        0.2141
   1169  OP1       -5.8350    4.5200    9.4060 O.3    57  DA57       -0.4373
   1170  OP2       -4.4060    3.5400    7.5280 O.2    57  DA57       -0.5172
   1171  O5'       -6.8040    2.9210    7.7410 O.3    57  DA57       -0.3114
   1172  C5'       -8.1640    3.2950    7.7930 C.3    57  DA57        0.1811
   1173  C4'       -9.0240    2.0560    7.7040 C.3    57  DA57        0.1746
   1174  O4'       -9.3430    1.7640    6.3210 O.3    57  DA57       -0.3327
   1175  C3'       -8.3450    0.7920    8.2040 C.3    57  DA57        0.1558
   1176  O3'       -8.3920    0.7150    9.6220 O.3    57  DA57       -0.3138
   1177  C2'       -9.2320   -0.2490    7.5360 C.3    57  DA57        0.0865
   1178  C1'       -9.3320    0.3630    6.1410 C.3    57  DA57        0.2094
   1179  N9        -8.1540    0.0010    5.3670 N.ar   57  DA57       -0.2714
   1180  C8        -6.9820    0.6990    5.2400 C.ar   57  DA57        0.1815
   1181  N7        -6.0880    0.1010    4.4880 N.ar   57  DA57       -0.2193
   1182  C5        -6.7170   -1.0710    4.0960 C.ar   57  DA57        0.1518
   1183  C6        -6.3000   -2.1420    3.2860 C.ar   57  DA57        0.1919
   1184  N6        -5.1010   -2.2050    2.7030 N.pl3  57  DA57       -0.1054
   1185  N1        -7.1690   -3.1570    3.0940 N.ar   57  DA57       -0.2040
   1186  C2        -8.3710   -3.0930    3.6780 C.ar   57  DA57        0.2016
   1187  N3        -8.8760   -2.1400    4.4590 N.ar   57  DA57       -0.2048
   1188  C4        -7.9890   -1.1470    4.6300 C.ar   57  DA57        0.1691
   1189  P         -7.9070   -0.3910   10.1820 P.3    58  DC58        0.2141
   1190  OP1       -8.6810    0.1010   11.3480 O.3    58  DC58       -0.4373
   1191  OP2       -6.5140    0.0830    9.9760 O.2    58  DC58       -0.5172
   1192  O5'       -7.9320   -1.9900   10.1880 O.3    58  DC58       -0.3114
   1193  C5'       -9.1370   -2.6930   10.4770 C.3    58  DC58        0.1811
   1194  C4'       -9.2590   -3.9290    9.6160 C.3    58  DC58        0.1746
   1195  O4'       -8.9190   -3.5800    8.2490 O.3    58  DC58       -0.3327
   1196  C3'       -8.3190   -5.0880    9.9080 C.3    58  DC58        0.1558
   1197  O3'       -8.7880   -5.9080   10.9690 O.3    58  DC58       -0.3138
   1198  C2'       -8.3600   -5.8630    8.5990 C.3    58  DC58        0.0866
   1199  C1'       -8.4090   -4.7260    7.5810 C.3    58  DC58        0.2106
   1200  N1        -7.1160   -4.4440    7.0710 N.ar   58  DC58       -0.2556
   1201  C2        -6.4770   -5.2730    6.1430 C.ar   58  DC58        0.3531
   1202  O2        -7.0080   -6.3560    5.8440 O.2    58  DC58       -0.2443
   1203  N3        -5.3020   -4.8740    5.6010 N.ar   58  DC58       -0.1739
   1204  C4        -4.7690   -3.7030    5.9530 C.ar   58  DC58        0.1759
   1205  N4        -3.6090   -3.3520    5.3920 N.pl3  58  DC58       -0.1070
   1206  C5        -5.4010   -2.8480    6.8910 C.ar   58  DC58        0.0566
   1207  C6        -6.5610   -3.2460    7.4240 C.ar   58  DC58        0.0849
   1208  P         -7.7020   -6.7170   11.9290 P.3    59  DG59        0.2141
   1209  OP1       -7.8310   -6.6650   13.4090 O.3    59  DG59       -0.4373
   1210  OP2       -6.4660   -6.2150   11.3010 O.2    59  DG59       -0.5172
   1211  O5'       -7.9220   -8.2200   11.4320 O.3    59  DG59       -0.3114
   1212  C5'       -8.4200   -8.5000   10.1140 C.3    59  DG59        0.1811
   1213  C4'       -7.6360   -9.6190    9.4710 C.3    59  DG59        0.1746
   1214  O4'       -7.2910   -9.2250    8.1170 O.3    59  DG59       -0.3327
   1215  C3'       -6.3000   -9.9400   10.1260 C.3    59  DG59        0.1558
   1216  O3'       -6.5010  -10.8470   11.2010 O.3    59  DG59       -0.3138
   1217  C2'       -5.4710  -10.5190    8.9830 C.3    59  DG59        0.0865
   1218  C1'       -6.0240   -9.7590    7.7810 C.3    59  DG59        0.2094
   1219  N9        -5.1620   -8.5400    7.3240 N.ar   59  DG59       -0.2713
   1220  C8        -4.9920   -7.3080    7.9070 C.ar   59  DG59        0.1816
   1221  N7        -3.9360   -6.6750    7.4750 N.ar   59  DG59       -0.2173
   1222  C5        -3.3740   -7.5360    6.5520 C.ar   59  DG59        0.1748
   1223  C6        -2.2090   -7.4010    5.7530 C.ar   59  DG59        0.3023
   1224  O6        -1.4180   -6.4500    5.7070 O.2    59  DG59       -0.2633
   1225  N1        -1.9970   -8.5170    4.9480 N.ar   59  DG59       -0.1709
   1226  C2        -2.8080   -9.6260    4.9160 C.ar   59  DG59        0.2606
   1227  N2        -2.4410  -10.6020    4.0740 N.pl3  59  DG59       -0.0859
   1228  N3        -3.8920   -9.7670    5.6530 N.ar   59  DG59       -0.1918
   1229  C4        -4.1170   -8.6950    6.4430 C.ar   59  DG59        0.1722
   1230  P         -5.0730  -11.4920   12.0860 P.3    60  DC60        0.2141
   1231  OP1       -5.5210  -12.5040   13.0820 O.3    60  DC60       -0.4373
   1232  OP2       -4.2090  -10.3580   12.5130 O.2    60  DC60       -0.5172
   1233  O5'       -4.3200  -12.1500   10.8460 O.3    60  DC60       -0.3114
   1234  C5'       -2.9100  -12.1210   10.8190 C.3    60  DC60        0.1811
   1235  C4'       -2.3580  -12.9850    9.7180 C.3    60  DC60        0.1746
   1236  O4'       -2.5050  -12.3150    8.4360 O.3    60  DC60       -0.3327
   1237  C3'       -0.8640  -13.0560    9.9640 C.3    60  DC60        0.1558
   1238  O3'       -0.6230  -14.2210   10.7200 O.3    60  DC60       -0.3138
   1239  C2'       -0.2480  -13.0480    8.5800 C.3    60  DC60        0.0866
   1240  C1'       -1.2350  -12.1460    7.8320 C.3    60  DC60        0.2106
   1241  N1        -0.9650  -10.6880    7.8460 N.ar   60  DC60       -0.2556
   1242  C2         0.1550  -10.2320    7.1410 C.ar   60  DC60        0.3531
   1243  O2         0.7970  -11.0420    6.4500 O.2    60  DC60       -0.2443
   1244  N3         0.5070   -8.9280    7.2340 N.ar   60  DC60       -0.1739
   1245  C4        -0.2110   -8.0950    7.9890 C.ar   60  DC60        0.1759
   1246  N4         0.1730   -6.8180    8.0500 N.pl3  60  DC60       -0.1070
   1247  C5        -1.3490   -8.5370    8.7110 C.ar   60  DC60        0.0566
   1248  C6        -1.6930   -9.8260    8.6170 C.ar   60  DC60        0.0849
   1249  P          0.5320  -14.2110   11.9320 P.3    61  DC61        0.2141
   1250  OP1        1.0200  -15.1790   12.9420 O.3    61  DC61       -0.4373
   1251  OP2        0.2330  -12.8210   12.3400 O.2    61  DC61       -0.5172
   1252  O5'        1.5830  -14.1820   10.7360 O.3    61  DC61       -0.3114
   1253  C5'        1.9720  -15.3840   10.0540 C.3    61  DC61        0.1811
   1254  C4'        3.2020  -15.1330    9.2120 C.3    61  DC61        0.1746
   1255  O4'        2.8800  -14.1700    8.1800 O.3    61  DC61       -0.3327
   1256  C3'        4.3850  -14.5290    9.9500 C.3    61  DC61        0.1558
   1257  O3'        5.1900  -15.5420   10.5180 O.3    61  DC61       -0.3138
   1258  C2'        5.1230  -13.7870    8.8480 C.3    61  DC61        0.0866
   1259  C1'        3.9630  -13.2760    7.9960 C.3    61  DC61        0.2106
   1260  N1         3.4450  -11.9450    8.3280 N.ar   61  DC61       -0.2556
   1261  C2         4.3440  -10.9620    7.8980 C.ar   61  DC61        0.3531
   1262  O2         5.1700  -11.2530    7.0150 O.2    61  DC61       -0.2443
   1263  N3         4.2890   -9.7290    8.4550 N.ar   61  DC61       -0.1739
   1264  C4         3.3870   -9.4630    9.4000 C.ar   61  DC61        0.1759
   1265  N4         3.3700   -8.2330    9.9190 N.pl3  61  DC61       -0.1070
   1266  C5         2.4670  -10.4450    9.8500 C.ar   61  DC61        0.0566
   1267  C6         2.5250  -11.6620    9.2970 C.ar   61  DC61        0.0849
   1268  P          6.3390  -15.1520   11.6870 P.3    62  DC62        0.2141
   1269  OP1        6.7290  -16.3410   12.4910 O.3    62  DC62       -0.4373
   1270  OP2        5.5470  -14.0660   12.3240 O.2    62  DC62       -0.5172
   1271  O5'        7.6630  -14.5040   11.0810 O.3    62  DC62       -0.3114
   1272  C5'        8.4050  -15.1760   10.0670 C.3    62  DC62        0.1811
   1273  C4'        9.3630  -14.2200    9.3960 C.3    62  DC62        0.1746
   1274  O4'        8.6170  -13.1380    8.7770 O.3    62  DC62       -0.3327
   1275  C3'       10.3330  -13.5040   10.3180 C.3    62  DC62        0.1558
   1276  O3'       11.4580  -14.3180   10.6030 O.3    62  DC62       -0.3138
   1277  C2'       10.7180  -12.2860    9.4890 C.3    62  DC62        0.0866
   1278  C1'        9.3800  -11.9410    8.8310 C.3    62  DC62        0.2106
   1279  N1         8.6500  -10.9500    9.5790 N.ar   62  DC62       -0.2556
   1280  C2         9.0480   -9.6100    9.5100 C.ar   62  DC62        0.3531
   1281  O2        10.0130   -9.3100    8.7870 O.2    62  DC62       -0.2443
   1282  N3         8.3730   -8.6840   10.2320 N.ar   62  DC62       -0.1739
   1283  C4         7.3430   -9.0540   10.9950 C.ar   62  DC62        0.1759
   1284  N4         6.7080   -8.1060   11.6890 N.pl3  62  DC62       -0.1070
   1285  C5         6.9240  -10.4060   11.0780 C.ar   62  DC62        0.0566
   1286  C6         7.5940  -11.3180   10.3640 C.ar   62  DC62        0.0849
   1287  P         12.3970  -14.0890   12.0020 P.3    63  DG63        0.2141
   1288  OP1       13.4370  -15.1240   12.1940 O.2    63  DG63       -0.5172
   1289  OP2       11.4400  -13.7510   13.0800 O.3    63  DG63       -0.4373
   1290  O5'       13.0850  -12.6910   11.6420 O.3    63  DG63       -0.3114
   1291  C5'       13.9180  -12.6080   10.4970 C.3    63  DG63        0.1811
   1292  C4'       14.3010  -11.1820   10.2020 C.3    63  DG63        0.1746
   1293  O4'       13.1510  -10.4580    9.6930 O.3    63  DG63       -0.3327
   1294  C3'       14.7420  -10.3480   11.3950 C.3    63  DG63        0.1558
   1295  O3'       16.0690  -10.6140   11.8260 O.3    63  DG63       -0.3138
   1296  C2'       14.5240   -8.9300   10.8860 C.3    63  DG63        0.0865
   1297  C1'       13.2220   -9.1080   10.1050 C.3    63  DG63        0.2094
   1298  N9        12.0670   -8.8060   10.9700 N.ar   63  DG63       -0.2713
   1299  C8        11.2180   -9.6670   11.6220 C.ar   63  DG63        0.1816
   1300  N7        10.4280   -9.0680   12.4700 N.ar   63  DG63       -0.2173
   1301  C5        10.7710   -7.7320   12.3740 C.ar   63  DG63        0.1748
   1302  C6        10.2600   -6.5960   13.0540 C.ar   63  DG63        0.3023
   1303  O6         9.3660   -6.5520   13.9080 O.2    63  DG63       -0.2633
   1304  N1        10.8950   -5.4230   12.6570 N.ar   63  DG63       -0.1709
   1305  C2        11.8980   -5.3520   11.7200 C.ar   63  DG63        0.2606
   1306  N2        12.3860   -4.1300   11.4680 N.pl3  63  DG63       -0.0859
   1307  N3        12.3840   -6.3980   11.0810 N.ar   63  DG63       -0.1918
   1308  C4        11.7830   -7.5490   11.4520 C.ar   63  DG63        0.1722
   1309  P         16.7270  -10.2910   13.1570 P.3    64  DA64        0.2141
   1310  OP1       17.5630  -10.9440   14.1590 O.3    64  DA64       -0.4373
   1311  OP2       15.5320   -9.5490   13.5810 O.2    64  DA64       -0.5172
   1312  O5'       17.7690   -9.4550   12.2350 O.3    64  DA64       -0.3114
   1313  C5'       18.9330  -10.1270   11.7310 C.3    64  DA64        0.1811
   1314  C4'       19.5830   -9.3080   10.6350 C.3    64  DA64        0.1746
   1315  O4'       18.7620   -9.3450    9.4240 O.3    64  DA64       -0.3327
   1316  C3'       19.7670   -7.8280   10.9150 C.3    64  DA64        0.1558
   1317  O3'       20.9710   -7.6510   11.5530 O.3    64  DA64       -0.3138
   1318  C2'       19.8980   -7.2850    9.4970 C.3    64  DA64        0.0865
   1319  C1'       18.8380   -8.1130    8.7360 C.3    64  DA64        0.2094
   1320  N9        17.5670   -7.3690    8.8260 N.ar   64  DA64       -0.2714
   1321  C8        16.4300   -7.8010    9.4570 C.ar   64  DA64        0.1815
   1322  N7        15.3770   -7.0550    9.2210 N.ar   64  DA64       -0.2193
   1323  C5        15.8560   -6.0640    8.3780 C.ar   64  DA64        0.1518
   1324  C6        15.2340   -4.9620    7.7660 C.ar   64  DA64        0.1919
   1325  N6        13.9410   -4.6640    7.9160 N.pl3  64  DA64       -0.1054
   1326  N1        15.9960   -4.1670    6.9840 N.ar   64  DA64       -0.2040
   1327  C2        17.2910   -4.4670    6.8330 C.ar   64  DA64        0.2016
   1328  N3        17.9880   -5.4740    7.3560 N.ar   64  DA64       -0.2048
   1329  C4        17.2030   -6.2440    8.1270 C.ar   64  DA64        0.1691
   1330  P         21.0930   -6.5320   12.4520 P.3    65  DC65        0.2141
   1331  OP1       22.4800   -6.6590   12.9390 O.2    65  DC65       -0.5172
   1332  OP2       20.0340   -6.2370   13.4460 O.3    65  DC65       -0.4373
   1333  O5'       21.0420   -5.4700   11.2590 O.3    65  DC65       -0.3113
   1334  C5'       22.1360   -5.2620   10.3790 C.3    65  DC65        0.1836
   1335  C4'       21.8410   -4.1500    9.3880 C.3    65  DC65        0.1992
   1336  O4'       20.6590   -4.4480    8.5990 O.3    65  DC65       -0.3301
   1337  C3'       21.5190   -2.8100   10.0080 C.3    65  DC65        0.2381
   1338  O3'       22.6830   -2.0920   10.3240 O.3    65  DC65       -0.2491
   1339  C2'       20.7520   -2.1250    8.8910 C.3    65  DC65        0.1137
   1340  C1'       19.8990   -3.2680    8.3760 C.3    65  DC65        0.2132
   1341  N1        18.5810   -3.4090    9.0860 N.ar   65  DC65       -0.2556
   1342  C2        17.5670   -2.5430    8.6620 C.ar   65  DC65        0.3531
   1343  O2        17.7940   -1.7750    7.7120 O.2    65  DC65       -0.2443
   1344  N3        16.3710   -2.5670    9.2990 N.ar   65  DC65       -0.1739
   1345  C4        16.1730   -3.4080   10.3140 C.ar   65  DC65        0.1759
   1346  N4        14.9780   -3.3960   10.9110 N.pl3  65  DC65       -0.1070
   1347  C5        17.1880   -4.2930   10.7580 C.ar   65  DC65        0.0566
   1348  C6        18.3670   -4.2670   10.1270 C.ar   65  DC65        0.0849
   1349  P         22.7370   -1.3100   11.5000 P.3    66  DA66        0.4833
   1350  OP1       23.2750   -0.6410   12.7160 O.2    66  DA66       -0.2269
   1351  OP2       21.6670   -2.3350   11.6360 O.3    66  DA66       -0.2491
   1352  O5'       22.2220   -0.2060   10.4720 O.3    66  DA66       -0.2704
   1353  C5'       21.2630    0.7560   10.8820 C.3    66  DA66        0.1856
   1354  C4'       21.2390    1.9310    9.9330 C.3    66  DA66        0.1755
   1355  O4'       20.4650    1.5880    8.7480 O.3    66  DA66       -0.3510
   1356  C3'       20.5100    3.1250   10.5250 C.3    66  DA66        0.1839
   1357  O3'       21.3780    3.9040   11.3360 O.3    66  DA66       -0.2204
   1358  C2'       19.9740    3.8460    9.2970 C.3    66  DA66        0.0676
   1359  C1'       19.6030    2.6630    8.4010 C.3    66  DA66        0.1450
   1360  N9        18.0560    1.0150   10.5200 N.ar   66  DA66       -0.2032
   1361  C8        18.3820   -0.1390   11.1820 C.ar   66  DA66        0.2005
   1362  N7        17.3750   -0.6850   11.8220 N.ar   66  DA66       -0.2179
   1363  C5        16.3150    0.1700   11.5620 C.ar   66  DA66        0.1534
   1364  C6        14.9650    0.1490   11.9550 C.ar   66  DA66        0.1919
   1365  N6        14.4340   -0.8040   12.7250 N.pl3  66  DA66       -0.1054
   1366  N1        14.1720    1.1530   11.5250 N.ar   66  DA66       -0.2040
   1367  C2        14.7060    2.1070   10.7530 C.ar   66  DA66        0.2016
   1368  N3        15.9570    2.2340   10.3180 N.ar   66  DA66       -0.2031
   1369  C4        16.7190    1.2220   10.7630 C.ar   66  DA66        0.1862
@<TRIPOS>BOND
     1   814   813    2
     2   819   823    1
     3   819   818    1
     4   829   828    1
     5   828   827   ar
     6   828   830   ar
     7   823   824    1
     8   823   822    1
     9   826   827   ar
    10   826   825   ar
    11   827   833   ar
    12   830   831   ar
    13   825   824   ar
    14   833   824   ar
    15   833   832   ar
    16   831   832   ar
    17   815   813    1
    18   818   817    1
    19   818   820    1
    20   813   816    1
    21   813   802    1
    22   817   816    1
    23   822   820    1
    24   802   801    1
    25   820   821    1
    26   821   834    1
    27   801   803    1
    28   801   799    1
    29   840   844    1
    30   840   839    1
    31   803   804    1
    32   844   845    1
    33   844   843    1
    34   834   836    2
    35   834   837    1
    36   834   835    1
    37   845   846   ar
    38   845   855   ar
    39   846   847   ar
    40   838   839    1
    41   838   837    1
    42   839   841    1
    43   855   854   ar
    44   855   848   ar
    45   799   798    1
    46   799   800    1
    47   854   852   ar
    48   795   794    2
    49   847   848   ar
    50   848   849   ar
    51   852   853    1
    52   852   851   ar
    53   798   797    1
    54   849   851   ar
    55   849   850    2
    56   797   794    1
    57   843   841    1
    58   804   800    1
    59   804   805    1
    60   794   796    1
    61   794   783    1
    62   841   842    1
    63   805   812   ar
    64   805   806   ar
    65   812   811   ar
    66   807   806    2
    67   842   856    1
    68   806   808   ar
    69   811   809   ar
    70   783   782    1
    71   808   809   ar
    72   809   810    1
    73   776   775    2
    74   862   866    1
    75   862   861    1
    76   868   869   ar
    77   868   867   ar
    78   777   775    1
    79   869   870   ar
    80   867   866    1
    81   867   877   ar
    82   782   784    1
    83   782   780    1
    84   870   877   ar
    85   870   871   ar
    86   858   856    2
    87   866   865    1
    88   856   859    1
    89   856   857    1
    90   872   871    2
    91   775   778    1
    92   775   763    1
    93   877   876   ar
    94   871   873   ar
    95   860   859    1
    96   860   861    1
    97   876   874   ar
    98   861   863    1
    99   873   874   ar
   100   756   755    2
   101   784   785    1
   102   874   875    1
   103   778   779    1
   104   779   780    1
   105   780   781    1
   106   757   755    1
   107   763   762    1
   108   894   893    2
   109   865   863    1
   110   755   758    1
   111   755   742    1
   112   863   864    1
   113   893   895   ar
   114   893   892   ar
   115   785   786    1
   116   785   781    1
   117   793   792   ar
   118   793   786   ar
   119   758   759    1
   120   759   760    1
   121   792   790   ar
   122   786   787   ar
   123   895   896   ar
   124   891   892   ar
   125   891   890   ar
   126   762   760    1
   127   762   764    1
   128   892   899   ar
   129   787   788    2
   130   787   789   ar
   131   790   789   ar
   132   790   791    1
   133   896   897    1
   134   896   898   ar
   135   742   741    1
   136   864   878    1
   137   890   889   ar
   138   760   761    1
   139   899   898   ar
   140   899   889   ar
   141   889   888    1
   142   880   878    2
   143   764   765    1
   144   735   734    2
   145   774   772    1
   146   884   888    1
   147   884   883    1
   148   741   739    1
   149   741   743    1
   150   888   887    1
   151   878   881    1
   152   878   879    1
   153   773   772   ar
   154   773   766   ar
   155   737   738    1
   156   737   734    1
   157   761   765    1
   158   738   739    1
   159   772   770   ar
   160   916   915    1
   161   881   882    1
   162   765   766    1
   163   734   736    1
   164   734   720    1
   165   766   767   ar
   166   917   915   ar
   167   917   918   ar
   168   739   740    1
   169   915   914   ar
   170   743   744    1
   171   770   771    2
   172   770   769   ar
   173   918   919   ar
   174   883   882    1
   175   883   885    1
   176   767   769   ar
   177   767   768    2
   178   914   913   ar
   179   914   920   ar
   180   887   885    1
   181   913   912   ar
   182   919   920   ar
   183   920   911   ar
   184   940   939    1
   185   720   719    1
   186   740   744    1
   187   912   911   ar
   188   885   886    1
   189   911   910    1
   190   744   745    1
   191   938   939   ar
   192   938   936   ar
   193   939   941   ar
   194   746   745   ar
   195   746   747   ar
   196   937   936    2
   197   745   754   ar
   198   936   935   ar
   199   910   906    1
   200   910   909    1
   201   747   748   ar
   202   906   905    1
   203   754   748   ar
   204   754   753   ar
   205   719   721    1
   206   719   717    1
   207   941   942   ar
   208   748   749   ar
   209   753   752   ar
   210   886   900    1
   211   935   942   ar
   212   935   934   ar
   213   713   712    2
   214   942   932   ar
   215   749   750    1
   216   749   751   ar
   217   752   751   ar
   218   721   722    1
   219   716   715    1
   220   716   717    1
   221   715   712    1
   222   717   718    1
   223   903   904    1
   224   903   900    1
   225   909   907    1
   226   905   904    1
   227   905   907    1
   228   714   712    1
   229   934   933   ar
   230   902   900    2
   231   712   700    1
   232   932   933   ar
   233   932   931    1
   234   900   901    1
   235   931   927    1
   236   931   930    1
   237   907   908    1
   238   722   718    1
   239   722   723    1
   240   956   955    2
   241   927   926    1
   242   723   724   ar
   243   723   733   ar
   244   724   725   ar
   245   957   955   ar
   246   957   958   ar
   247   700   699    1
   248   955   954   ar
   249   733   732   ar
   250   733   726   ar
   251   725   726   ar
   252   732   730   ar
   253   726   727   ar
   254   693   692    2
   255   959   958    2
   256   730   731    1
   257   730   729   ar
   258   930   928    1
   259   958   960   ar
   260   727   729   ar
   261   727   728    2
   262   954   953    1
   263   954   961   ar
   264   953   949    1
   265   953   952    1
   266   949   948    1
   267   694   692    1
   268   960   961   ar
   269   960   962    1
   270   699   701    1
   271   699   697    1
   272   926   928    1
   273   926   925    1
   274   692   695    1
   275   692   680    1
   276   695   696    1
   277   928   929    1
   278   976   975    2
   279   696   697    1
   280   925   924    1
   281   952   950    1
   282   701   702    1
   283   924   921    1
   284   948   947    1
   285   948   950    1
   286   923   921    2
   287   697   698    1
   288   975   977   ar
   289   975   974   ar
   290   977   978   ar
   291   921   922    2
   292   973   969    1
   293   973   974    1
   294   973   972    1
   295   947   946    1
   296   969   968    1
   297   974   981   ar
   298   680   679    1
   299   929   943    1
   300   711   709    1
   301   978   979    1
   302   978   980   ar
   303   950   951    1
   304   709   710   ar
   305   709   707   ar
   306   710   703   ar
   307   703   702    1
   308   703   704   ar
   309   981   980   ar
   310   707   708    2
   311   707   706   ar
   312   702   698    1
   313   946   943    1
   314   706   704   ar
   315   704   705    2
   316   943   945    2
   317   943   944    1
   318   995   994    2
   319   673   672    2
   320   679   681    1
   321   679   677    1
   322   968   967    1
   323   968   970    1
   324   972   970    1
   325   988   992    1
   326   988   987    1
   327   992   993    1
   328   992   991    1
   329   951   963    1
   330   994   993   ar
   331   994   996   ar
   332   967   966    1
   333   993  1000   ar
   334   681   682    1
   335   676   675    1
   336   676   677    1
   337   996   997   ar
   338   675   672    1
   339   966   963    1
   340   987   986    1
   341   987   989    1
   342  1015  1014    2
   343   970   971    1
   344   677   678    1
   345   672   674    1
   346   672   661    1
   347   965   963    2
   348   963   964    1
   349  1000   999   ar
   350   991   989    1
   351   986   985    1
   352   997   999   ar
   353   997   998    2
   354   999  1001    1
   355  1014  1016   ar
   356  1014  1013   ar
   357  1016  1017   ar
   358  1012  1011    1
   359  1012  1013    1
   360  1012  1008    1
   361   971   982    1
   362   989   990    1
   363   985   982    1
   364   682   678    1
   365   682   683    1
   366   683   690   ar
   367   683   684   ar
   368  1011  1009    1
   369   661   660    1
   370  1013  1020   ar
   371   690   689   ar
   372  1008  1007    1
   373  1017  1018    1
   374  1017  1019   ar
   375   685   684    2
   376   982   984    2
   377   982   983    1
   378   684   686   ar
   379   990  1002    1
   380   689   691    1
   381   689   687   ar
   382   686   687   ar
   383   687   688    2
   384  1020  1019   ar
   385  1040  1039   ar
   386  1040  1041   ar
   387  1027  1031    1
   388  1027  1026    1
   389  1007  1009    1
   390  1007  1006    1
   391  1039  1038   ar
   392  1031  1032    1
   393  1031  1030    1
   394   660   658    1
   395   660   662    1
   396  1009  1010    1
   397  1041  1032   ar
   398  1041  1035   ar
   399  1032  1033   ar
   400  1038  1036   ar
   401   657   658    1
   402   657   656    1
   403   654   653    2
   404  1005  1002    1
   405  1005  1006    1
   406  1026  1025    1
   407  1026  1028    1
   408  1035  1036   ar
   409  1035  1034   ar
   410  1036  1037    1
   411  1010  1021    1
   412  1033  1034   ar
   413  1002  1004    2
   414  1002  1003    1
   415   658   659    1
   416   656   653    1
   417  1030  1028    1
   418   662   663    1
   419  1025  1024    1
   420   655   653    1
   421   653   642    1
   422  1024  1021    1
   423  1028  1029    1
   424   671   664   ar
   425   671   670   ar
   426   659   663    1
   427   664   663    1
   428   664   665   ar
   429   670   668   ar
   430  1061  1060    1
   431  1021  1023    2
   432  1021  1022    1
   433  1060  1062   ar
   434  1060  1059   ar
   435   642   641    1
   436  1062  1063   ar
   437  1048  1052    1
   438  1048  1047    1
   439   665   666    2
   440   665   667   ar
   441   668   667   ar
   442   668   669    1
   443  1029  1042    1
   444  1059  1057   ar
   445  1052  1053    1
   446  1052  1051    1
   447  1063  1053   ar
   448  1063  1056   ar
   449  1053  1054   ar
   450  1057  1056   ar
   451  1057  1058    2
   452  1056  1055   ar
   453  1054  1055   ar
   454   641   643    1
   455   641   639    1
   456  1047  1046    1
   457  1047  1049    1
   458  1051  1049    1
   459   643   644    1
   460  1046  1045    1
   461  1042  1045    1
   462  1042  1043    2
   463  1042  1044    1
   464   635   634    2
   465   647   646    2
   466  1049  1050    1
   467   636   634    1
   468   648   646   ar
   469   648   649   ar
   470   639   638    1
   471   639   640    1
   472   646   645   ar
   473   637   638    1
   474   637   634    1
   475   650   649    1
   476   649   651   ar
   477   645   644    1
   478   645   652   ar
   479   634   620    1
   480   644   640    1
   481   651   652   ar
   482  1070  1074    1
   483  1070  1069    1
   484  1050  1064    1
   485  1074  1075    1
   486  1074  1073    1
   487  1076  1075   ar
   488  1076  1077   ar
   489  1075  1084   ar
   490  1067  1064    1
   491  1067  1068    1
   492  1077  1078   ar
   493  1069  1068    1
   494  1069  1071    1
   495  1073  1071    1
   496   620   619    1
   497  1084  1078   ar
   498  1084  1083   ar
   499  1078  1079   ar
   500  1066  1064    2
   501  1083  1082   ar
   502  1064  1065    1
   503  1079  1080    1
   504  1079  1081   ar
   505  1071  1072    1
   506  1082  1081   ar
   507   619   621    1
   508   619   617    1
   509   621   622    1
   510  1072  1085    1
   511   631   630    1
   512   629   630   ar
   513   629   627   ar
   514   630   632   ar
   515   628   627    2
   516   627   626   ar
   517   632   633   ar
   518  1086  1085    2
   519  1091  1090    1
   520  1091  1095    1
   521  1089  1088    1
   522  1089  1090    1
   523   633   626   ar
   524   633   623   ar
   525   626   625   ar
   526   617   616    1
   527   617   618    1
   528  1088  1085    1
   529   622   623    1
   530   622   618    1
   531   623   624   ar
   532   625   624   ar
   533   616   615    1
   534   615   612    1
   535  1090  1092    1
   536  1097  1096   ar
   537  1097  1098   ar
   538  1085  1087    1
   539  1096  1095    1
   540  1096  1105   ar
   541  1095  1094    1
   542   613   612    2
   543  1098  1099   ar
   544   614   612    1
   545  1105  1099   ar
   546  1105  1104   ar
   547   612   600    1
   548  1099  1100   ar
   549  1104  1103   ar
   550  1100  1101    1
   551  1100  1102   ar
   552  1103  1102   ar
   553  1092  1094    1
   554  1092  1093    1
   555   608   607    2
   556  1093  1106    1
   557   607   606   ar
   558   607   609   ar
   559   600   599    1
   560   606   604   ar
   561   611   609    1
   562   601   599    1
   563   601   602    1
   564   609   610   ar
   565   599   597    1
   566   604   605    2
   567   604   603   ar
   568   610   603   ar
   569  1108  1106    2
   570   603   602    1
   571   594   592    2
   572  1106  1107    1
   573  1106  1109    1
   574  1119  1118   ar
   575  1119  1120   ar
   576   602   598    1
   577  1122  1121    2
   578  1118  1117   ar
   579   593   592    1
   580  1120  1121   ar
   581  1120  1127   ar
   582   586   585    2
   583  1121  1123   ar
   584   595   592    1
   585   595   596    1
   586   592   578    1
   587  1112  1116    1
   588  1112  1111    1
   589   572   570    2
   590   597   598    1
   591   597   596    1
   592  1109  1110    1
   593  1117  1127   ar
   594  1117  1116    1
   595  1127  1126   ar
   596  1116  1115    1
   597  1123   587   ar
   598  1123  1124   ar
   599   585   587   ar
   600   585   584   ar
   601   571   570    1
   602  1110  1111    1
   603   587   588   ar
   604   570   573    1
   605   570   556    1
   606   583   584   ar
   607   583   582   ar
   608  1126  1124   ar
   609   507   506    2
   610  1124  1125   ar
   611   584   591   ar
   612   578   577    1
   613  1111  1113    1
   614   527   526    2
   615   573   574    1
   616   550   548    2
   617   577   579    1
   618   577   575    1
   619   485   484    2
   620   549   548    1
   621   528   526    1
   622  1125   589   ar
   623   582   581   ar
   624   588   589   ar
   625   588   590   ar
   626   508   506    1
   627   591   590   ar
   628   591   581   ar
   629   574   575    1
   630  1115  1113    1
   631   526   514    1
   632   526   529    1
   633   506   492    1
   634   506   509    1
   635   548   551    1
   636   548   534    1
   637   581   580    1
   638   579   580    1
   639  1113  1114    1
   640   575   576    1
   641   486   484    1
   642   552   551    1
   643   552   553    1
   644   484   487    1
   645   484   472    1
   646   556   555    1
   647   514   513    1
   648   564   563    2
   649  1144  1143    1
   650   465   464    2
   651   492   491    1
   652   580   576    1
   653   509   510    1
   654   529   530    1
   655   561   562   ar
   656   561   560   ar
   657   555   553    1
   658   555   557    1
   659   510   511    1
   660   563   562   ar
   661   563   565   ar
   662  1143  1142    1
   663  1143  1145    1
   664  1141  1142   ar
   665  1141  1140   ar
   666  1114  1128    1
   667   487   488    1
   668   534   533    1
   669   513   511    1
   670   513   515    1
   671   562   569   ar
   672   560   559   ar
   673   488   489    1
   674   553   554    1
   675  1142  1148   ar
   676   472   471    1
   677   530   531    1
   678   525   523    1
   679  1145   565    1
   680  1145  1146    1
   681  1145   567    1
   682   491   489    1
   683   491   493    1
   684   565   566   ar
   685   464   466    1
   686   464   467    1
   687   464   450    1
   688  1140  1139   ar
   689   533   531    1
   690   533   535    1
   691   511   512    1
   692   557   558    1
   693   569   559   ar
   694   569   568   ar
   695   559   558    1
   696  1130  1128    2
   697   489   490    1
   698  1148  1139   ar
   699  1148  1147    1
   700   467   468    1
   701  1146  1147    1
   702  1146   567    1
   703   554   558    1
   704  1139  1138    1
   705   566   568   ar
   706   566   567    1
   707   531   532    1
   708   515   516    1
   709   539   538   ar
   710   539   540   ar
   711   523   524   ar
   712   523   521   ar
   713   524   517   ar
   714  1128  1131    1
   715  1128  1129    1
   716   468   469    1
   717   471   469    1
   718   471   473    1
   719   538   537   ar
   720   450   449    1
   721   493   494    1
   722  1134  1138    1
   723  1134  1133    1
   724   535   536    1
   725   512   516    1
   726   542   541    2
   727  1131  1132    1
   728  1138  1137    1
   729   469   470    1
   730   540   541   ar
   731   540   547   ar
   732   521   522    2
   733   521   520   ar
   734   537   536    1
   735   537   547   ar
   736   532   536    1
   737   516   517    1
   738   490   494    1
   739   517   518   ar
   740   541   543   ar
   741   446   445    1
   742   446   447    1
   743   473   474    1
   744   496   497   ar
   745   496   495   ar
   746  1132  1133    1
   747   547   546   ar
   748   494   495    1
   749  1165  1164    1
   750   449   447    1
   751   449   451    1
   752   497   498   ar
   753  1133  1135    1
   754   443   442    2
   755   495   505   ar
   756   520   518   ar
   757   445   442    1
   758   543   544   ar
   759   447   448    1
   760   518   519    2
   761   483   481    1
   762   444   442    1
   763   470   474    1
   764  1164  1163   ar
   765  1164  1166   ar
   766   546   544   ar
   767  1137  1135    1
   768  1163  1161   ar
   769   442   428    1
   770   482   481   ar
   771   482   475   ar
   772   498   505   ar
   773   498   499   ar
   774   544   545    1
   775   474   475    1
   776   505   504   ar
   777  1135  1136    1
   778   481   479   ar
   779   451   452    1
   780  1166  1167   ar
   781  1161  1162    2
   782  1161  1160   ar
   783   475   476   ar
   784   428   427    1
   785   499   500    2
   786   499   501   ar
   787   504   502   ar
   788   448   452    1
   789  1184  1183    1
   790   479   480    2
   791   479   478   ar
   792  1167  1160   ar
   793  1160  1159    1
   794   476   478   ar
   795   476   477    2
   796   501   502   ar
   797  1185  1183   ar
   798  1185  1186   ar
   799   502   503    1
   800   452   453    1
   801  1136  1149    1
   802  1183  1182   ar
   803  1159  1155    1
   804  1159  1158    1
   805  1186  1187   ar
   806   427   429    1
   807   427   425    1
   808   453   454   ar
   809   453   463   ar
   810  1155  1154    1
   811   429   430    1
   812   454   455   ar
   813  1227  1226    1
   814  1182  1181   ar
   815  1182  1188   ar
   816  1151  1149    2
   817   462   463   ar
   818   462   460   ar
   819   463   456   ar
   820  1187  1188   ar
   821  1181  1180   ar
   822   425   424    1
   823   425   426    1
   824  1149  1152    1
   825  1149  1150    1
   826  1188  1179   ar
   827   423   424    1
   828   423   420    1
   829   421   420    2
   830   455   456   ar
   831  1226  1225   ar
   832  1226  1228   ar
   833  1152  1153    1
   834  1225  1223   ar
   835  1158  1156    1
   836   460   461    1
   837   460   459   ar
   838   456   457   ar
   839  1154  1153    1
   840  1154  1156    1
   841  1180  1179   ar
   842   430   426    1
   843   430   431    1
   844  1179  1178    1
   845  1205  1204    1
   846   420   422    1
   847   420   406    1
   848  1203  1204   ar
   849  1203  1201   ar
   850  1228  1229   ar
   851  1224  1223    2
   852  1156  1157    1
   853  1223  1222   ar
   854   459   457   ar
   855  1202  1201    2
   856   457   458    2
   857  1204  1206   ar
   858  1178  1174    1
   859  1178  1177    1
   860  1201  1200   ar
   861  1174  1173    1
   862  1229  1222   ar
   863  1229  1219   ar
   864  1243  1242    2
   865   440   441   ar
   866   440   438   ar
   867   431   441   ar
   868   431   432   ar
   869  1222  1221   ar
   870   439   438    1
   871   441   434   ar
   872  1327  1326   ar
   873  1327  1328   ar
   874  1206  1207   ar
   875   406   405    1
   876   438   437   ar
   877  1326  1324   ar
   878   432   433   ar
   879  1262  1261    2
   880  1200  1207   ar
   881  1200  1199    1
   882  1157  1168    1
   883  1242  1244   ar
   884  1242  1241   ar
   885  1244  1245   ar
   886  1219  1218    1
   887  1219  1220   ar
   888  1328  1329   ar
   889   434   433   ar
   890   434   435   ar
   891  1221  1220   ar
   892  1170  1168    2
   893  1177  1175    1
   894   437   435   ar
   895  1199  1195    1
   896  1199  1198    1
   897  1173  1172    1
   898  1173  1175    1
   899  1343  1342    2
   900  1171  1172    1
   901  1171  1168    1
   902  1324  1325    1
   903  1324  1323   ar
   904  1218  1214    1
   905  1218  1217    1
   906  1240  1241    1
   907  1240  1236    1
   908  1240  1239    1
   909  1241  1248   ar
   910   435   436    2
   911  1261  1260   ar
   912  1261  1263   ar
   913  1245  1246    1
   914  1245  1247   ar
   915  1259  1255    1
   916  1259  1260    1
   917  1259  1258    1
   918  1168  1169    1
   919   405   407    1
   920   405   403    1
   921  1214  1213    1
   922  1329  1323   ar
   923  1329  1320   ar
   924  1255  1254    1
   925  1175  1176    1
   926  1195  1194    1
   927  1260  1267   ar
   928  1340  1336    1
   929  1340  1339    1
   930  1340  1341    1
   931  1323  1322   ar
   932  1359  1355    1
   933  1359  1358    1
   934  1236  1235    1
   935  1263  1264   ar
   936   407   408    1
   937  1239  1237    1
   938  1198  1196    1
   939  1336  1335    1
   940  1248  1247   ar
   941  1342  1341   ar
   942  1342  1344   ar
   943   400   398    2
   944  1319  1320    1
   945  1319  1315    1
   946  1319  1318    1
   947  1355  1354    1
   948  1274  1278    1
   949  1274  1273    1
   950  1281  1280    2
   951  1320  1321   ar
   952  1278  1277    1
   953  1278  1279    1
   954  1258  1256    1
   955   401   402    1
   956   401   398    1
   957  1339  1337    1
   958  1217  1215    1
   959  1341  1348   ar
   960   417   416    1
   961  1254  1256    1
   962  1254  1253    1
   963  1322  1321   ar
   964   403   402    1
   965   403   404    1
   966  1358  1356    1
   967  1267  1266   ar
   968  1344  1345   ar
   969   399   398    1
   970   398   387    1
   971  1335  1337    1
   972  1335  1334    1
   973  1273  1272    1
   974  1273  1275    1
   975  1264  1266   ar
   976  1264  1265    1
   977  1315  1314    1
   978  1213  1212    1
   979  1213  1215    1
   980  1277  1275    1
   981  1318  1316    1
   982  1280  1279   ar
   983  1280  1282   ar
   984  1279  1286   ar
   985  1194  1196    1
   986  1194  1193    1
   987  1176  1189    1
   988   418   416   ar
   989   418   419   ar
   990  1293  1297    1
   991  1293  1292    1
   992  1235  1237    1
   993  1235  1234    1
   994   416   415   ar
   995  1196  1197    1
   996  1354  1356    1
   997  1354  1353    1
   998  1256  1257    1
   999  1237  1238    1
  1000  1191  1189    2
  1001  1337  1338    1
  1002  1337  1351    1
  1003   408   404    1
  1004   408   409    1
  1005  1253  1252    1
  1006  1272  1271    1
  1007  1297  1296    1
  1008  1297  1298    1
  1009  1212  1211    1
  1010  1215  1216    1
  1011  1348  1347   ar
  1012  1189  1192    1
  1013  1189  1190    1
  1014  1192  1193    1
  1015  1292  1291    1
  1016  1292  1294    1
  1017  1282  1283   ar
  1018  1345  1347   ar
  1019  1345  1346    1
  1020  1368  1367   ar
  1021  1368  1369   ar
  1022  1275  1276    1
  1023  1338  1349    1
  1024   419   409   ar
  1025   419   412   ar
  1026  1286  1285   ar
  1027  1334  1333    1
  1028   415   413   ar
  1029   409   410   ar
  1030  1352  1353    1
  1031  1352  1349    1
  1032  1291  1290    1
  1033  1257  1268    1
  1034  1360  1369   ar
  1035  1360  1361   ar
  1036  1356  1357    1
  1037  1276  1287    1
  1038  1314  1316    1
  1039  1314  1313    1
  1040   387   386    1
  1041  1238  1249    1
  1042  1252  1249    1
  1043  1367  1366   ar
  1044  1369  1363   ar
  1045  1234  1233    1
  1046  1233  1230    1
  1047  1296  1294    1
  1048  1316  1317    1
  1049  1197  1208    1
  1050  1298  1308   ar
  1051  1298  1299   ar
  1052  1283  1285   ar
  1053  1283  1284    1
  1054   412   413   ar
  1055   412   411   ar
  1056  1307  1308   ar
  1057  1307  1305   ar
  1058  1271  1268    1
  1059   413   414    2
  1060  1361  1362   ar
  1061  1216  1230    1
  1062   410   411   ar
  1063  1333  1330    1
  1064  1210  1208    2
  1065  1294  1295    1
  1066  1211  1208    1
  1067  1308  1301   ar
  1068  1306  1305    1
  1069  1349  1351    1
  1070  1349  1350    2
  1071  1366  1364   ar
  1072  1317  1330    1
  1073  1363  1362   ar
  1074  1363  1364   ar
  1075  1299  1300   ar
  1076  1290  1287    1
  1077  1268  1270    2
  1078  1268  1269    1
  1079  1305  1304   ar
  1080  1313  1312    1
  1081  1295  1309    1
  1082   386   388    1
  1083   386   384    1
  1084   380   379    2
  1085  1208  1209    1
  1086  1249  1251    2
  1087  1249  1250    1
  1088  1364  1365    1
  1089  1287  1288    2
  1090  1287  1289    1
  1091  1230  1232    2
  1092  1230  1231    1
  1093  1312  1309    1
  1094  1301  1300   ar
  1095  1301  1302   ar
  1096  1330  1331    2
  1097  1330  1332    1
  1098   388   389    1
  1099  1304  1302   ar
  1100   382   383    1
  1101   382   379    1
  1102   383   384    1
  1103   379   381    1
  1104   379   368    1
  1105   384   385    1
  1106  1302  1303    2
  1107    17    16    1
  1108  1309  1311    2
  1109  1309  1310    1
  1110    18    16   ar
  1111    18    19   ar
  1112    16    15   ar
  1113   389   385    1
  1114   389   390    1
  1115     4     8    1
  1116     4     3    1
  1117     8     9    1
  1118     8     7    1
  1119   390   397   ar
  1120   390   391   ar
  1121   397   396   ar
  1122    19     9   ar
  1123    19    12   ar
  1124   368   367    1
  1125   392   391    2
  1126    15    13   ar
  1127   391   393   ar
  1128     9    10   ar
  1129   396   394   ar
  1130   393   394   ar
  1131   394   395    1
  1132    12    13   ar
  1133    12    11   ar
  1134    13    14    2
  1135   361   360    2
  1136     3     2    1
  1137     3     5    1
  1138     7     5    1
  1139    10    11   ar
  1140   367   369    1
  1141   367   365    1
  1142   362   360    1
  1143     2     1    1
  1144   360   363    1
  1145   360   347    1
  1146   369   370    1
  1147     5     6    1
  1148    26    30    1
  1149    26    25    1
  1150   363   364    1
  1151   365   364    1
  1152   365   366    1
  1153     6    20    1
  1154    30    31    1
  1155    30    29    1
  1156    24    25    1
  1157    24    23    1
  1158    40    38   ar
  1159    40    41   ar
  1160    39    38    1
  1161    31    41   ar
  1162    31    32   ar
  1163    38    37   ar
  1164    25    27    1
  1165    41    34   ar
  1166   347   346    1
  1167   370   366    1
  1168   370   371    1
  1169    32    33   ar
  1170    37    35   ar
  1171    34    33   ar
  1172    34    35   ar
  1173    23    20    1
  1174   378   371   ar
  1175   378   377   ar
  1176    35    36    2
  1177   371   372   ar
  1178    20    21    2
  1179    20    22    1
  1180   377   375   ar
  1181   340   339    2
  1182   372   373    2
  1183   372   374   ar
  1184   375   374   ar
  1185   375   376    1
  1186    29    27    1
  1187   346   348    1
  1188   346   344    1
  1189    27    28    1
  1190   348   349    1
  1191   341   339    1
  1192   339   342    1
  1193   339   326    1
  1194   342   343    1
  1195    58    57    2
  1196    59    57   ar
  1197    59    60   ar
  1198    61    60    1
  1199   343   344    1
  1200    57    56   ar
  1201   344   345    1
  1202    60    62   ar
  1203    28    42    1
  1204    56    63   ar
  1205    56    55   ar
  1206    62    63   ar
  1207    63    53   ar
  1208    55    54   ar
  1209    53    54   ar
  1210    53    52    1
  1211   326   325    1
  1212   349   345    1
  1213   349   350    1
  1214    52    48    1
  1215    52    51    1
  1216   351   350   ar
  1217   351   352   ar
  1218   350   359   ar
  1219    48    47    1
  1220   352   353   ar
  1221   359   353   ar
  1222   359   358   ar
  1223   353   354   ar
  1224    42    44    2
  1225    42    45    1
  1226    42    43    1
  1227   358   357   ar
  1228   325   327    1
  1229   325   323    1
  1230   354   355    1
  1231   354   356   ar
  1232    45    46    1
  1233   357   356   ar
  1234    82    81   ar
  1235    82    83   ar
  1236    51    49    1
  1237    81    79   ar
  1238    47    46    1
  1239    47    49    1
  1240    83    84   ar
  1241   327   328    1
  1242    79    80    1
  1243    79    78   ar
  1244   322   323    1
  1245   322   321    1
  1246   323   324    1
  1247    84    78   ar
  1248    84    75   ar
  1249   319   318    2
  1250    78    77   ar
  1251    49    50    1
  1252   321   318    1
  1253    75    74    1
  1254    75    76   ar
  1255    77    76   ar
  1256    74    70    1
  1257    74    73    1
  1258    70    69    1
  1259   318   320    1
  1260   318   304    1
  1261   328   324    1
  1262   328   329    1
  1263    50    64    1
  1264   329   338   ar
  1265   329   330   ar
  1266   337   338   ar
  1267   337   336   ar
  1268   338   332   ar
  1269   336   335   ar
  1270   330   331   ar
  1271    73    71    1
  1272    69    68    1
  1273    69    71    1
  1274   104   103    1
  1275   332   331   ar
  1276   332   333   ar
  1277   335   333   ar
  1278   333   334    1
  1279   103   105   ar
  1280   103   102   ar
  1281    66    64    2
  1282    68    67    1
  1283    67    64    1
  1284   105   106   ar
  1285    64    65    1
  1286   304   303    1
  1287   297   296    2
  1288   102   100   ar
  1289    71    72    1
  1290   106    96   ar
  1291   106    99   ar
  1292    95    91    1
  1293    95    96    1
  1294    95    94    1
  1295    91    90    1
  1296   298   296    1
  1297    96    97   ar
  1298   100    99   ar
  1299   100   101    2
  1300    99    98   ar
  1301    97    98   ar
  1302   296   299    1
  1303   296   282    1
  1304   303   305    1
  1305   303   301    1
  1306    72    85    1
  1307    90    89    1
  1308    90    92    1
  1309    94    92    1
  1310   305   306    1
  1311   299   300    1
  1312   300   301    1
  1313    89    88    1
  1314   301   302    1
  1315   126   315    1
  1316   126   125    1
  1317   315   314    1
  1318   282   281    1
  1319    88    85    1
  1320    92    93    1
  1321   125   127    2
  1322   125   124    2
  1323   276   274    1
  1324   314   313    2
  1325   314   316    2
  1326   127   128    1
  1327   124   122    1
  1328   313   311    1
  1329   316   317    1
  1330    85    87    2
  1331    85    86    1
  1332   113   117    1
  1333   113   112    1
  1334   128   121   ar
  1335   128   118   ar
  1336   122   123    2
  1337   122   121    1
  1338   317   310   ar
  1339   317   307   ar
  1340   311   312    2
  1341   311   310    1
  1342   306   307    1
  1343   306   302    1
  1344   277   274    1
  1345   277   278    1
  1346   121   120   ar
  1347   118   117    1
  1348   118   119   ar
  1349   310   309   ar
  1350   307   308   ar
  1351   275   274    1
  1352   275   263    1
  1353   117   116    1
  1354   120   119   ar
  1355   309   308   ar
  1356   281   279    1
  1357   281   283    1
  1358    93   107    1
  1359   278   279    1
  1360   112   111    1
  1361   112   114    1
  1362   111   110    1
  1363   279   280    1
  1364   110   107    1
  1365   283   284    1
  1366   116   114    1
  1367   263   262    1
  1368   252   251    1
  1369   107   108    2
  1370   107   109    1
  1371   114   115    1
  1372   280   284    1
  1373   286   285   ar
  1374   286   287   ar
  1375   284   285    1
  1376   146   147   ar
  1377   146   144   ar
  1378   145   144    1
  1379   147   148   ar
  1380   144   143   ar
  1381   285   295   ar
  1382   287   288   ar
  1383   148   149   ar
  1384   251   250   ar
  1385   251   253   ar
  1386   262   264    1
  1387   262   260    1
  1388   143   149   ar
  1389   143   142   ar
  1390   149   140   ar
  1391   142   141   ar
  1392   140   141   ar
  1393   140   139    1
  1394   295   288   ar
  1395   295   294   ar
  1396   288   289   ar
  1397   115   129    1
  1398   139   135    1
  1399   139   138    1
  1400   250   248   ar
  1401   135   134    1
  1402   264   265    1
  1403   294   292   ar
  1404   289   290    2
  1405   289   291   ar
  1406   253   254   ar
  1407   260   259    1
  1408   259   258    1
  1409   292   291   ar
  1410   292   293    1
  1411   248   249    2
  1412   248   247   ar
  1413   138   136    1
  1414   163   162    2
  1415   134   133    1
  1416   134   136    1
  1417   129   131    2
  1418   129   132    1
  1419   129   130    1
  1420   164   162   ar
  1421   164   165   ar
  1422   254   247   ar
  1423   254   244   ar
  1424   265   242    1
  1425   265   261    1
  1426   265   266    1
  1427   242   243    1
  1428   242   240    1
  1429   162   161   ar
  1430   258   255    1
  1431   166   165    1
  1432   261   240    1
  1433   132   133    1
  1434   268   267    2
  1435   165   167   ar
  1436   247   246   ar
  1437   266   267   ar
  1438   266   273   ar
  1439   243   244    1
  1440   243   239    1
  1441   136   137    1
  1442   161   168   ar
  1443   161   160    1
  1444   267   269   ar
  1445   241   240    1
  1446   273   272   ar
  1447   167   168   ar
  1448   244   245   ar
  1449   156   160    1
  1450   156   155    1
  1451   160   159    1
  1452   256   255    2
  1453   240   238    1
  1454   229   230   ar
  1455   229   227   ar
  1456   228   227    1
  1457   269   270   ar
  1458   255   257    2
  1459   272   270   ar
  1460   137   150    1
  1461   246   245   ar
  1462   230   231   ar
  1463   270   271    1
  1464   227   226   ar
  1465   239   238    1
  1466   188   187    1
  1467   186   187   ar
  1468   186   184   ar
  1469   238   237    1
  1470   187   189   ar
  1471   155   154    1
  1472   155   157    1
  1473   185   184    2
  1474   154   153    1
  1475   184   183   ar
  1476   152   150    2
  1477   159   157    1
  1478   189   190   ar
  1479   183   190   ar
  1480   183   182   ar
  1481   231   232   ar
  1482   190   180   ar
  1483   226   232   ar
  1484   226   225   ar
  1485   150   153    1
  1486   150   151    1
  1487   182   181   ar
  1488   180   181   ar
  1489   180   179    1
  1490   157   158    1
  1491   232   223   ar
  1492   179   175    1
  1493   179   178    1
  1494   175   174    1
  1495   225   224   ar
  1496   237   236    1
  1497   209   210   ar
  1498   209   208   ar
  1499   236   233    1
  1500   210   211   ar
  1501   223   224   ar
  1502   223   222    1
  1503   208   206   ar
  1504   178   176    1
  1505   174   173    1
  1506   174   176    1
  1507   211   202   ar
  1508   211   205   ar
  1509   172   173    1
  1510   172   169    1
  1511   197   201    1
  1512   197   196    1
  1513   206   205   ar
  1514   206   207    1
  1515   234   233    2
  1516   221   222    1
  1517   221   219    1
  1518   202   201    1
  1519   202   203   ar
  1520   233   235    1
  1521   233   220    1
  1522   205   204   ar
  1523   222   218    1
  1524   219   220    1
  1525   219   217    1
  1526   176   177    1
  1527   201   200    1
  1528   171   169    2
  1529   203   204   ar
  1530   169   170    2
  1531   196   195    1
  1532   196   198    1
  1533   195   194    1
  1534   218   217    1
  1535   177   191    1
  1536   217   216    1
  1537   213   212    2
  1538   194   191    1
  1539   216   215    1
  1540   199   198    1
  1541   199   212    1
  1542   200   198    1
  1543   191   193    2
  1544   191   192    1
  1545   212   215    1
  1546   212   214    1
