@<TRIPOS>MOLECULE
dna.pdb
 1463 1640 0 0 0
SMALL
GASTEIGER

@<TRIPOS>ATOM
      1  O5'       -4.6030    1.5100   -4.1970 O.3     1  DA1        -0.2176
      2  C5'       -3.5950    0.8070   -4.9120 C.3     1  DA1         0.2140
      3  C4'       -2.7130    0.0390   -3.9590 C.3     1  DA1         0.1776
      4  O4'       -2.0040    0.9570   -3.0870 O.3     1  DA1        -0.3326
      5  C3'       -3.4600   -0.8800   -3.0070 C.3     1  DA1         0.1559
      6  O3'       -3.7870   -2.1160   -3.6190 O.3     1  DA1        -0.3138
      7  C2'       -2.4960   -1.0100   -1.8320 C.3     1  DA1         0.0865
      8  C1'       -1.8280    0.3690   -1.8120 C.3     1  DA1         0.2094
      9  N9        -2.3360    1.3630   -0.8160 N.ar    1  DA1        -0.2714
     10  C8        -3.3350    2.2930   -0.6910 C.ar    1  DA1         0.1815
     11  N7        -3.6210    2.5970    0.5530 N.ar    1  DA1        -0.2193
     12  C5        -2.7510    1.8130    1.2950 C.ar    1  DA1         0.1518
     13  C6        -2.5520    1.6720    2.6790 C.ar    1  DA1         0.1919
     14  N6        -3.2470    2.3460    3.5990 N.pl3   1  DA1        -0.1054
     15  N1        -1.6040    0.8030    3.0900 N.ar    1  DA1        -0.2040
     16  C2        -0.9090    0.1280    2.1680 C.ar    1  DA1         0.2016
     17  N3        -1.0040    0.1760    0.8410 N.ar    1  DA1        -0.2048
     18  C4        -1.9550    1.0470    0.4650 C.ar    1  DA1         0.1691
     19  P         -5.3070   -2.9360   -3.2850 P.3     2  DT2         0.2141
     20  OP1       -5.8140   -3.8410   -4.3460 O.2     2  DT2        -0.5172
     21  OP2       -6.0370   -1.6870   -2.9810 O.3     2  DT2        -0.4373
     22  O5'       -5.1750   -3.7790   -1.9370 O.3     2  DT2        -0.3114
     23  C5'       -4.6550   -5.0900   -2.0120 C.3     2  DT2         0.1811
     24  C4'       -3.9260   -5.4650   -0.7420 C.3     2  DT2         0.1746
     25  O4'       -3.0190   -4.4300   -0.2890 O.3     2  DT2        -0.3327
     26  C3'       -4.8280   -5.6700    0.4570 C.3     2  DT2         0.1558
     27  O3'       -5.5390   -6.8850    0.2970 O.3     2  DT2        -0.3138
     28  C2'       -3.7740   -5.6920    1.5530 C.3     2  DT2         0.0866
     29  C1'       -2.9180   -4.4980    1.1270 C.3     2  DT2         0.2106
     30  N1        -3.4780   -3.1950    1.6830 N.ar    2  DT2        -0.2559
     31  C2        -3.2970   -2.9130    3.0240 C.ar    2  DT2         0.3545
     32  O2        -2.6890   -3.6480    3.7810 O.2     2  DT2        -0.2443
     33  N3        -3.8580   -1.7330    3.4500 N.ar    2  DT2        -0.1533
     34  C4        -4.5660   -0.8280    2.6880 C.ar    2  DT2         0.2804
     35  O4        -5.0080    0.1900    3.2140 O.2     2  DT2        -0.2654
     36  C5        -4.7120   -1.1920    1.3070 C.ar    2  DT2         0.0534
     37  C6        -4.1760   -2.3340    0.8650 C.ar    2  DT2         0.0824
     38  C7        -5.4680   -0.2710    0.3950 C.3     2  DT2         0.0377
     39  P         -7.1070   -6.9880    0.3640 P.3     3  DC3         0.2141
     40  OP1       -7.7070   -8.1700   -0.2920 O.2     3  DC3        -0.5172
     41  OP2       -7.6270   -5.6340    0.0700 O.3     3  DC3        -0.4373
     42  O5'       -7.1460   -7.2330    1.9480 O.3     3  DC3        -0.3114
     43  C5'       -6.9330   -8.5400    2.4690 C.3     3  DC3         0.1811
     44  C4'       -6.4660   -8.4940    3.9140 C.3     3  DC3         0.1746
     45  O4'       -5.4920   -7.4340    4.0570 O.3     3  DC3        -0.3327
     46  C3'       -7.5190   -8.1520    4.9570 C.3     3  DC3         0.1558
     47  O3'       -8.2740   -9.2960    5.3360 O.3     3  DC3        -0.3138
     48  C2'       -6.6350   -7.6900    6.1080 C.3     3  DC3         0.0866
     49  C1'       -5.5710   -6.8970    5.3600 C.3     3  DC3         0.2106
     50  N1        -5.9440   -5.5170    5.3390 N.ar    3  DC3        -0.2556
     51  C2        -5.7640   -4.6720    6.4400 C.ar    3  DC3         0.3531
     52  O2        -5.3530   -5.1590    7.5070 O.2     3  DC3        -0.2443
     53  N3        -6.0410   -3.3520    6.3110 N.ar    3  DC3        -0.1739
     54  C4        -6.4810   -2.8740    5.1460 C.ar    3  DC3         0.1759
     55  N4        -6.7410   -1.5670    5.0660 N.pl3   3  DC3        -0.1070
     56  C5        -6.6700   -3.7140    4.0190 C.ar    3  DC3         0.0566
     57  C6        -6.3950   -5.0160    4.1500 C.ar    3  DC3         0.0849
     58  P         -9.6200   -9.0590    5.8930 P.3     4  DC4         0.2141
     59  OP1      -10.0140  -10.5060    5.8440 O.3     4  DC4        -0.4373
     60  OP2      -10.2680   -8.0800    4.9690 O.2     4  DC4        -0.5172
     61  O5'       -9.7300   -8.5150    7.3880 O.3     4  DC4        -0.3114
     62  C5'       -9.1420   -9.2410    8.4810 C.3     4  DC4         0.1811
     63  C4'       -9.1270   -8.4030    9.7440 C.3     4  DC4         0.1746
     64  O4'       -8.3060   -7.2240    9.5470 O.3     4  DC4        -0.3327
     65  C3'      -10.4470   -7.8270   10.2150 C.3     4  DC4         0.1558
     66  O3'      -11.2670   -8.7440   10.9140 O.3     4  DC4        -0.3138
     67  C2'       -9.9990   -6.6800   11.1020 C.3     4  DC4         0.0866
     68  C1'       -8.8090   -6.1450   10.3230 C.3     4  DC4         0.2106
     69  N1        -9.2760   -5.0740    9.4320 N.ar    4  DC4        -0.2556
     70  C2        -9.5180   -3.8020    9.9640 C.ar    4  DC4         0.3531
     71  O2        -9.4100   -3.6370   11.1910 O.2     4  DC4        -0.2443
     72  N3        -9.8650   -2.7930    9.1300 N.ar    4  DC4        -0.1739
     73  C4        -9.9700   -3.0180    7.8200 C.ar    4  DC4         0.1759
     74  N4       -10.3140   -1.9930    7.0360 N.pl3   4  DC4        -0.1070
     75  C5        -9.7290   -4.2990    7.2610 C.ar    4  DC4         0.0566
     76  C6        -9.3870   -5.2930    8.0880 C.ar    4  DC4         0.0849
     77  P        -12.8370   -8.5910   10.8200 P.3     5  DG5         0.2141
     78  OP1      -13.9740   -9.3010   11.4640 O.3     5  DG5        -0.4373
     79  OP2      -13.0660   -7.8030    9.5770 O.2     5  DG5        -0.5172
     80  O5'      -12.2060   -7.5930   11.8900 O.3     5  DG5        -0.3114
     81  C5'      -12.4970   -7.7300   13.2730 C.3     5  DG5         0.1811
     82  C4'      -12.2980   -6.4140   13.9940 C.3     5  DG5         0.1746
     83  O4'      -11.4640   -5.5120   13.2170 O.3     5  DG5        -0.3327
     84  C3'      -13.5580   -5.6040   14.2210 C.3     5  DG5         0.1558
     85  O3'      -14.2800   -6.1010   15.3310 O.3     5  DG5        -0.3138
     86  C2'      -12.9890   -4.2220   14.4940 C.3     5  DG5         0.0865
     87  C1'      -11.8690   -4.1710   13.4590 C.3     5  DG5         0.2093
     88  N9       -12.4780   -3.5150   12.2830 N.ar    5  DG5        -0.2733
     89  C8       -12.7110   -4.1490   11.0860 C.ar    5  DG5         0.1815
     90  N7       -13.0900   -3.3360   10.1380 N.ar    5  DG5        -0.2165
     91  C5       -13.1070   -2.0910   10.7390 C.ar    5  DG5         0.1829
     92  C6       -13.4390   -0.8160   10.2130 C.2     5  DG5         0.3303
     93  O6       -13.7980   -0.5320    9.0640 O.2     5  DG5        -0.3177
     94  N1       -13.3250    0.1880   11.1700 N.2     5  DG5        -0.3300
     95  C2       -12.9370   -0.0110   12.4740 C.cat   5  DG5         0.3027
     96  N2       -12.8840    1.0810   13.2480 N.pl3   5  DG5        -0.0763
     97  N3       -12.6260   -1.1900   12.9770 N.pl3   5  DG5        -0.1487
     98  C4       -12.7310   -2.1800   12.0660 C.ar    5  DG5         0.1633
     99  P        -15.7610   -5.8830   15.3340 P.3     6  DT6         0.2141
    100  OP1      -16.3670   -6.5680   16.4830 O.3     6  DT6        -0.4373
    101  OP2      -16.1930   -6.3290   13.9810 O.2     6  DT6        -0.5172
    102  O5'      -16.0150   -4.3110   15.5380 O.3     6  DT6        -0.3114
    103  C5'      -15.9560   -3.7060   16.8460 C.3     6  DT6         0.1811
    104  C4'      -16.1830   -2.2030   16.7620 C.3     6  DT6         0.1746
    105  O4'      -15.2370   -1.6050   15.8510 O.3     6  DT6        -0.3327
    106  C3'      -17.5070   -1.7780   16.1590 C.3     6  DT6         0.1558
    107  O3'      -18.4650   -1.7780   17.1350 O.3     6  DT6        -0.3138
    108  C2'      -17.2430   -0.3360   15.7520 C.3     6  DT6         0.0866
    109  C1'      -15.8610   -0.5250   15.1620 C.3     6  DT6         0.2106
    110  N1       -15.7580   -0.7700   13.7340 N.ar    6  DT6        -0.2559
    111  C2       -15.7080    0.2810   12.8390 C.ar    6  DT6         0.3545
    112  O2       -15.7280    1.4490   13.1840 O.2     6  DT6        -0.2443
    113  N3       -15.6340   -0.0850   11.5170 N.ar    6  DT6        -0.1533
    114  C4       -15.6060   -1.3690   11.0120 C.ar    6  DT6         0.2804
    115  O4       -15.5370   -1.5390    9.7970 O.2     6  DT6        -0.2654
    116  C5       -15.6630   -2.4050   12.0040 C.ar    6  DT6         0.0534
    117  C6       -15.7350   -2.0770   13.2970 C.ar    6  DT6         0.0824
    118  C7       -15.6390   -3.8360   11.5540 C.3     6  DT6         0.0377
    119  P        -19.4140   -2.0610   16.7220 P.3     7  DC7         0.2141
    120  OP1      -20.0650   -2.0160   18.0500 O.3     7  DC7        -0.4373
    121  OP2      -19.8980   -2.9990   15.6780 O.2     7  DC7        -0.5172
    122  O5'      -19.4440   -0.6210   16.0240 O.3     7  DC7        -0.3114
    123  C5'      -20.4320    0.3420   16.3360 C.3     7  DC7         0.1811
    124  C4'      -19.9770    1.7270   15.9610 C.3     7  DC7         0.1746
    125  O4'      -18.7310    1.6600   15.2240 O.3     7  DC7        -0.3327
    126  C3'      -20.9130    2.4620   15.0210 C.3     7  DC7         0.1558
    127  O3'      -22.0340    3.0160   15.6810 O.3     7  DC7        -0.3138
    128  C2'      -19.9920    3.4720   14.3520 C.3     7  DC7         0.0866
    129  C1'      -18.7260    2.6280   14.1940 C.3     7  DC7         0.2106
    130  N1       -18.6750    1.7780   12.8060 N.ar    7  DC7        -0.2556
    131  C2       -18.2580    2.4830   11.6710 C.ar    7  DC7         0.3531
    132  O2       -18.0440    3.7030   11.7720 O.2     7  DC7        -0.2443
    133  N3       -18.1020    1.8180   10.5020 N.ar    7  DC7        -0.1739
    134  C4       -18.3450    0.5080   10.4410 C.ar    7  DC7         0.1759
    135  N4       -18.1770   -0.1040    9.2670 N.pl3   7  DC7        -0.1070
    136  C5       -18.7680   -0.2250   11.5790 C.ar    7  DC7         0.0566
    137  C6       -18.9210    0.4360   12.7320 C.ar    7  DC7         0.0849
    138  P        -23.4330    2.7910   15.0890 P.3     8  DA8         0.2141
    139  OP1      -24.5400    3.3700   15.9000 O.3     8  DA8        -0.4373
    140  OP2      -23.5210    1.3810   14.6390 O.2     8  DA8        -0.5172
    141  O5'      -23.1640    3.7050   13.8060 O.3     8  DA8        -0.3114
    142  C5'      -22.9330    5.1120   13.9380 C.3     8  DA8         0.1811
    143  C4'      -22.7340    5.7520   12.5810 C.3     8  DA8         0.1746
    144  O4'      -21.4680    5.3190   12.0190 O.3     8  DA8        -0.3327
    145  C3'      -23.7750    5.3900   11.5370 C.3     8  DA8         0.1558
    146  O3'      -24.9390    6.2050   11.6120 O.3     8  DA8        -0.3138
    147  C2'      -23.0260    5.5710   10.2270 C.3     8  DA8         0.0865
    148  C1'      -21.5940    5.1890   10.6170 C.3     8  DA8         0.2094
    149  N9       -21.2930    3.8020   10.1830 N.ar    8  DA8        -0.2714
    150  C8       -21.1710    2.6760   10.9550 C.ar    8  DA8         0.1815
    151  N7       -20.8860    1.5940   10.2710 N.ar    8  DA8        -0.2193
    152  C5       -20.8170    2.0390    8.9600 C.ar    8  DA8         0.1518
    153  C6       -20.5500    1.3770    7.7490 C.ar    8  DA8         0.1919
    154  N6       -20.2900    0.0700    7.6630 N.pl3   8  DA8        -0.1054
    155  N1       -20.5580    2.1130    6.6170 N.ar    8  DA8        -0.2040
    156  C2       -20.8170    3.4230    6.7050 C.ar    8  DA8         0.2016
    157  N3       -21.0820    4.1570    7.7830 N.ar    8  DA8        -0.2048
    158  C4       -21.0670    3.3960    8.8900 C.ar    8  DA8         0.1691
    159  P        -26.4370    5.4770   11.5230 P.3     9  DC9         0.2141
    160  OP1      -27.6020    6.2610   11.9930 O.3     9  DC9        -0.4373
    161  OP2      -26.2620    4.0660   11.9280 O.2     9  DC9        -0.5172
    162  O5'      -26.3790    5.5150    9.9270 O.3     9  DC9        -0.3114
    163  C5'      -26.6210    6.7300    9.2240 C.3     9  DC9         0.1811
    164  C4'      -26.5970    6.4830    7.7310 C.3     9  DC9         0.1746
    165  O4'      -25.3510    5.8250    7.3710 O.3     9  DC9        -0.3327
    166  C3'      -27.6840    5.5330    7.2420 C.3     9  DC9         0.1558
    167  O3'      -28.9390    6.2030    7.0690 O.3     9  DC9        -0.3138
    168  C2'      -27.0820    5.0030    5.9440 C.3     9  DC9         0.0866
    169  C1'      -25.6060    4.8700    6.3470 C.3     9  DC9         0.2106
    170  N1       -25.1840    3.4540    6.7730 N.ar    9  DC9        -0.2556
    171  C2       -25.0540    2.4570    5.7990 C.ar    9  DC9         0.3531
    172  O2       -25.2840    2.7480    4.6130 O.2     9  DC9        -0.2443
    173  N3       -24.6840    1.2100    6.1760 N.ar    9  DC9        -0.1739
    174  C4       -24.4490    0.9440    7.4620 C.ar    9  DC9         0.1759
    175  N4       -24.0860   -0.2990    7.7860 N.pl3   9  DC9        -0.1070
    176  C5       -24.5750    1.9400    8.4640 C.ar    9  DC9         0.0566
    177  C6       -24.9410    3.1700    8.0870 C.ar    9  DC9         0.0849
    178  P        -30.1710    5.7070    7.8720 P.3    10  DA10        0.2141
    179  OP1      -31.2510    6.7080    7.7290 O.2    10  DA10       -0.5172
    180  OP2      -30.0060    4.9440    9.1330 O.3    10  DA10       -0.4373
    181  O5'      -30.3920    4.5680    6.7620 O.3    10  DA10       -0.3114
    182  C5'      -31.0520    4.8430    5.5290 C.3    10  DA10        0.1811
    183  C4'      -30.8360    3.7700    4.4820 C.3    10  DA10        0.1746
    184  O4'      -29.5080    3.1880    4.6010 O.3    10  DA10       -0.3327
    185  C3'      -31.7680    2.5650    4.5290 C.3    10  DA10        0.1558
    186  O3'      -33.0320    2.8110    3.9320 O.3    10  DA10       -0.3138
    187  C2'      -30.9670    1.4910    3.8000 C.3    10  DA10        0.0865
    188  C1'      -29.5210    1.8400    4.1740 C.3    10  DA10        0.2094
    189  N9       -28.9700    1.0050    5.0080 N.ar   10  DA10       -0.2714
    190  C8       -28.6800    1.2840    6.3180 C.ar   10  DA10        0.1815
    191  N7       -28.1290    0.2830    6.9630 N.ar   10  DA10       -0.2193
    192  C5       -28.0540   -0.7220    6.0120 C.ar   10  DA10        0.1518
    193  C6       -27.5660   -2.0400    6.0660 C.ar   10  DA10        0.1919
    194  N6       -27.0410   -2.5900    7.1630 N.pl3  10  DA10       -0.1054
    195  N1       -27.6390   -2.7810    4.9400 N.ar   10  DA10       -0.2040
    196  C2       -28.1650   -2.2290    3.8400 C.ar   10  DA10        0.2016
    197  N3       -28.6540   -1.0030    3.6670 N.ar   10  DA10       -0.2048
    198  C4       -28.5690   -0.2930    4.8040 C.ar   10  DA10        0.1691
    199  P        -34.1780    2.1030    4.4310 P.3    11  DC11        0.2141
    200  OP1      -35.4090    2.8340    4.0560 O.2    11  DC11       -0.5172
    201  OP2      -34.0580    1.5250    5.7890 O.3    11  DC11       -0.4373
    202  O5'      -33.9510    0.8510    3.4640 O.3    11  DC11       -0.3114
    203  C5'      -33.6780    0.9530    2.0740 C.3    11  DC11        0.1811
    204  C4'      -33.3860   -0.4190    1.5280 C.3    11  DC11        0.1746
    205  O4'      -32.0090   -0.7690    1.8230 O.3    11  DC11       -0.3327
    206  C3'      -34.1670   -1.5430    2.1880 C.3    11  DC11        0.1558
    207  O3'      -35.4960   -1.6970    1.7330 O.3    11  DC11       -0.3138
    208  C2'      -33.2850   -2.7570    1.9490 C.3    11  DC11        0.0866
    209  C1'      -31.9170   -2.1310    2.1920 C.3    11  DC11        0.2106
    210  N1       -31.3900   -2.1960    3.6150 N.ar   11  DC11       -0.2556
    211  C2       -30.8230   -3.4210    3.9850 C.ar   11  DC11        0.3531
    212  O2       -30.7020   -4.3080    3.1230 O.2    11  DC11       -0.2443
    213  N3       -30.4260   -3.6040    5.2670 N.ar   11  DC11       -0.1739
    214  C4       -30.5770   -2.6240    6.1580 C.ar   11  DC11        0.1759
    215  N4       -30.1700   -2.8490    7.4100 N.pl3  11  DC11       -0.1070
    216  C5       -31.1490   -1.3750    5.8030 C.ar   11  DC11        0.0566
    217  C6       -31.5400   -1.1990    4.5370 C.ar   11  DC11        0.0849
    218  P        -36.2120   -1.9790    2.8170 P.3    12  DC12        0.2141
    219  OP1      -37.3220   -1.5810    1.9130 O.2    12  DC12       -0.5172
    220  OP2      -35.9330   -1.1830    4.0500 O.3    12  DC12       -0.4373
    221  O5'      -36.3320   -3.5240    3.2010 O.3    12  DC12       -0.3114
    222  C5'      -36.3670   -4.4910    2.1660 C.3    12  DC12        0.1811
    223  C4'      -35.8750   -5.8180    2.6580 C.3    12  DC12        0.1746
    224  O4'      -34.4810   -5.7690    3.0490 O.3    12  DC12       -0.3327
    225  C3'      -36.5530   -6.3500    3.8860 C.3    12  DC12        0.1558
    226  O3'      -37.7620   -6.9550    3.5830 O.3    12  DC12       -0.3138
    227  C2'      -35.5880   -7.4070    4.3640 C.3    12  DC12        0.0866
    228  C1'      -34.2360   -6.7860    4.0110 C.3    12  DC12        0.2106
    229  N1       -33.7470   -6.2710    5.2480 N.ar   12  DC12       -0.2556
    230  C2       -33.2400   -7.0920    6.2620 C.ar   12  DC12        0.3531
    231  O2       -33.2760   -8.3250    6.1070 O.2    12  DC12       -0.2443
    232  N3       -32.7280   -6.5220    7.3790 N.ar   12  DC12       -0.1739
    233  C4       -32.7110   -5.1940    7.5020 C.ar   12  DC12        0.1759
    234  N4       -32.1970   -4.6770    8.6200 N.pl3  12  DC12       -0.1070
    235  C5       -33.2200   -4.3440    6.4860 C.ar   12  DC12        0.0566
    236  C6       -33.7240   -4.9120    5.3850 C.ar   12  DC12        0.0849
    237  P        -38.7510   -6.7540    4.5090 P.3    13  DT13        0.2141
    238  OP1      -39.9510   -7.0340    3.6810 O.2    13  DT13       -0.5172
    239  OP2      -38.8220   -5.8590    5.6900 O.3    13  DT13       -0.4373
    240  O5'      -38.0910   -8.1060    5.0590 O.3    13  DT13       -0.3114
    241  C5'      -38.8030   -9.1000    5.7690 C.3    13  DT13        0.1811
    242  C4'      -37.8520   -9.9490    6.5620 C.3    13  DT13        0.1746
    243  O4'      -36.5510   -9.3140    6.6150 O.3    13  DT13       -0.3327
    244  C3'      -38.2290  -10.0810    8.0200 C.3    13  DT13        0.1558
    245  O3'      -39.2410  -11.0360    8.2400 O.3    13  DT13       -0.3138
    246  C2'      -36.9090  -10.4010    8.6970 C.3    13  DT13        0.0866
    247  C1'      -35.9690   -9.5130    7.8890 C.3    13  DT13        0.2106
    248  N1       -35.7320   -8.1770    8.4570 N.ar   13  DT13       -0.2559
    249  C2       -35.0200   -7.9840    9.6260 C.ar   13  DT13        0.3545
    250  O2       -34.6100   -8.9030   10.3130 O.2    13  DT13       -0.2443
    251  N3       -34.8050   -6.6710    9.9650 N.ar   13  DT13       -0.1533
    252  C4       -35.2200   -5.5550    9.2690 C.ar   13  DT13        0.2804
    253  O4       -34.9500   -4.4370    9.7000 O.2    13  DT13       -0.2654
    254  C5       -35.9540   -5.8380    8.0670 C.ar   13  DT13        0.0534
    255  C6       -36.1770   -7.1060    7.7140 C.ar   13  DT13        0.0824
    256  C7       -36.4500   -4.6900    7.2390 C.3    13  DT13        0.0377
    257  P        -40.2330  -10.5370    9.1270 P.3    14  DG14        0.2141
    258  OP1      -41.3710  -11.4920    9.1970 O.3    14  DG14       -0.4373
    259  OP2      -40.4810   -9.1160    8.7770 O.2    14  DG14       -0.5172
    260  O5'      -39.4220  -10.5730   10.4960 O.3    14  DG14       -0.3114
    261  C5'      -39.1070  -11.8110   11.1200 C.3    14  DG14        0.1811
    262  C4'      -38.3520  -11.5770   12.4040 C.3    14  DG14        0.1746
    263  O4'      -37.0500  -10.9850   12.1290 O.3    14  DG14       -0.3327
    264  C3'      -38.9620  -10.6090   13.3990 C.3    14  DG14        0.1558
    265  O3'      -40.0500  -11.1730   14.1110 O.3    14  DG14       -0.3138
    266  C2'      -37.7620  -10.3150   14.2810 C.3    14  DG14        0.0865
    267  C1'      -36.6810  -10.1310   13.2110 C.3    14  DG14        0.2094
    268  N9       -36.6530   -8.7360   12.7620 N.ar   14  DG14       -0.2713
    269  C8       -37.2090   -8.1860   11.6320 C.ar   14  DG14        0.1816
    270  N7       -36.9680   -6.9090   11.5090 N.ar   14  DG14       -0.2173
    271  C5       -36.2080   -6.5940   12.6200 C.ar   14  DG14        0.1748
    272  C6       -35.6490   -5.3580   13.0360 C.ar   14  DG14        0.3023
    273  O6       -35.7220   -4.2570   12.4760 O.2    14  DG14       -0.2633
    274  N1       -34.9460   -5.4810   14.2320 N.ar   14  DG14       -0.1709
    275  C2       -34.8000   -6.6510   14.9390 C.ar   14  DG14        0.2606
    276  N2       -34.0850   -6.5720   16.0700 N.pl3  14  DG14       -0.0859
    277  N3       -35.3140   -7.8060   14.5650 N.ar   14  DG14       -0.1918
    278  C4       -36.0020   -7.7100   13.4070 C.ar   14  DG14        0.1722
    279  P        -41.3790  -10.3340   14.2010 P.3    15  DC15        0.2141
    280  OP1      -42.5500  -11.2120   13.9440 O.2    15  DC15       -0.5172
    281  OP2      -41.6070   -8.8630   14.4230 O.3    15  DC15       -0.4373
    282  O5'      -40.8020  -10.9010   15.5640 O.3    15  DC15       -0.3114
    283  C5'      -41.1630  -10.2960   16.7830 C.3    15  DC15        0.1811
    284  C4'      -39.9530  -10.1460   17.6680 C.3    15  DC15        0.1746
    285  O4'      -38.7930   -9.7780   16.8800 O.3    15  DC15       -0.3327
    286  C3'      -40.0860   -9.0000   18.6410 C.3    15  DC15        0.1558
    287  O3'      -40.8790   -9.3700   19.7320 O.3    15  DC15       -0.3138
    288  C2'      -38.6440   -8.6810   18.9810 C.3    15  DC15        0.0866
    289  C1'      -38.0010   -8.8400   17.6020 C.3    15  DC15        0.2106
    290  N1       -37.9730   -7.5160   16.9300 N.ar   15  DC15       -0.2556
    291  C2       -37.2210   -6.4260   17.3820 C.ar   15  DC15        0.3531
    292  O2       -36.6870   -6.4900   18.5020 O.2    15  DC15       -0.2443
    293  N3       -37.0970   -5.3350   16.5880 N.ar   15  DC15       -0.1739
    294  C4       -37.6890   -5.3100   15.3930 C.ar   15  DC15        0.1759
    295  N4       -37.5390   -4.2140   14.6450 N.pl3  15  DC15       -0.1070
    296  C5       -38.4550   -6.4050   14.9170 C.ar   15  DC15        0.0566
    297  C6       -38.5750   -7.4790   15.7040 C.ar   15  DC15        0.0849
    298  P        -42.0140   -8.4560   20.0930 P.3    16  DT16        0.2141
    299  OP1      -42.6650   -8.9060   21.3430 O.3    16  DT16       -0.4373
    300  OP2      -42.8120   -7.8120   19.0250 O.2    16  DT16       -0.5172
    301  O5'      -40.9010   -7.3680   20.4520 O.3    16  DT16       -0.3114
    302  C5'      -39.9630   -7.6070   21.4890 C.3    16  DT16        0.1811
    303  C4'      -39.1540   -6.3650   21.7590 C.3    16  DT16        0.1746
    304  O4'      -38.3890   -6.0350   20.5720 O.3    16  DT16       -0.3327
    305  C3'      -39.9660   -5.1120   22.0580 C.3    16  DT16        0.1558
    306  O3'      -40.3640   -5.0200   23.4200 O.3    16  DT16       -0.3138
    307  C2'      -39.0350   -3.9940   21.6020 C.3    16  DT16        0.0866
    308  C1'      -38.3240   -4.6360   20.4060 C.3    16  DT16        0.2106
    309  N1       -38.8960   -4.3380   19.1270 N.ar   16  DT16       -0.2559
    310  C2       -38.7540   -3.0300   18.7050 C.ar   16  DT16        0.3545
    311  O2       -38.0930   -2.2050   19.3100 O.2    16  DT16       -0.2443
    312  N3       -39.4180   -2.7190   17.5430 N.ar   16  DT16       -0.1533
    313  C4       -40.1920   -3.5670   16.7780 C.ar   16  DT16        0.2804
    314  O4       -40.7260   -3.1410   15.7560 O.2    16  DT16       -0.2654
    315  C5       -40.2910   -4.9070   17.2820 C.ar   16  DT16        0.0534
    316  C6       -39.6560   -5.2360   18.4100 C.ar   16  DT16        0.0824
    317  C7       -41.1120   -5.9050   16.5200 C.3    16  DT16        0.0377
    318  P        -42.0590   -4.2380   23.9200 P.3    17  DC17        0.2141
    319  OP1      -43.0060   -4.7960   24.9120 O.3    17  DC17       -0.4373
    320  OP2      -42.5530   -3.5930   22.6810 O.2    17  DC17       -0.5172
    321  O5'      -41.1670   -3.1090   24.6240 O.3    17  DC17       -0.3114
    322  C5'      -41.5920   -1.7510   24.6640 C.3    17  DC17        0.1811
    323  C4'      -40.5120   -0.8240   24.1580 C.3    17  DC17        0.1746
    324  O4'      -39.9290   -1.3980   22.9600 O.3    17  DC17       -0.3327
    325  C3'      -40.9500    0.5750   23.7390 C.3    17  DC17        0.1558
    326  O3'      -41.0490    1.4900   24.8240 O.3    17  DC17       -0.3138
    327  C2'      -39.8930    0.9620   22.7080 C.3    17  DC17        0.0866
    328  C1'      -39.6140   -0.3820   22.0330 C.3    17  DC17        0.2106
    329  N1       -40.5070   -0.6180   20.7980 N.ar   17  DC17       -0.2556
    330  C2       -40.2430    0.0780   19.6130 C.ar   17  DC17        0.3531
    331  O2       -39.3680    0.9610   19.6210 O.2    17  DC17       -0.2443
    332  N3       -40.9460   -0.2280   18.4970 N.ar   17  DC17       -0.1739
    333  C4       -41.8760   -1.1830   18.5360 C.ar   17  DC17        0.1759
    334  N4       -42.5440   -1.4510   17.4110 N.pl3  17  DC17       -0.1070
    335  C5       -42.1590   -1.9000   19.7270 C.ar   17  DC17        0.0566
    336  C6       -41.4620   -1.5940   20.8270 C.ar   17  DC17        0.0849
    337  P        -41.3840    2.7540   24.5510 P.3    18  DT18        0.2141
    338  OP1      -40.6900    3.2960   25.7380 O.3    18  DT18       -0.4373
    339  OP2      -42.8610    2.6960   24.5150 O.2    18  DT18       -0.5172
    340  O5'      -41.0040    3.6490   23.2830 O.3    18  DT18       -0.3114
    341  C5'      -39.6540    3.8980   22.9280 C.3    18  DT18        0.1811
    342  C4'      -39.5550    4.4510   21.5260 C.3    18  DT18        0.1746
    343  O4'      -39.7690    3.3930   20.5560 O.3    18  DT18       -0.3327
    344  C3'      -40.5790    5.5110   21.1460 C.3    18  DT18        0.1558
    345  O3'      -40.2420    6.8060   21.6210 O.3    18  DT18       -0.3138
    346  C2'      -40.6350    5.3990   19.6220 C.3    18  DT18        0.0866
    347  C1'      -40.4040    3.9050   19.4020 C.3    18  DT18        0.2105
    348  N1       -41.6530    3.1140   19.2250 N.ar   18  DT18       -0.2592
    349  C2       -42.3070    3.2290   18.0130 C.ar   18  DT18        0.3054
    350  O2       -41.8800    3.8980   17.0890 O.3    18  DT18       -0.4425
    351  N3       -43.4870    2.5310   17.9200 N.ar   18  DT18       -0.1568
    352  C4       -44.0650    1.7460   18.8960 C.ar   18  DT18        0.2803
    353  O4       -45.1300    1.1790   18.6640 O.2    18  DT18       -0.2654
    354  C5       -43.3260    1.6770   20.1260 C.ar   18  DT18        0.0534
    355  C6       -42.1770    2.3470   20.2430 C.ar   18  DT18        0.0823
    356  C7       -43.8730    0.8480   21.2500 C.3    18  DT18        0.0377
    357  P        -41.5720    7.9200   22.1130 P.3    19  DA19        0.2141
    358  OP1      -40.5350    8.9690   22.3000 O.2    19  DA19       -0.5172
    359  OP2      -42.9840    8.2060   22.5130 O.3    19  DA19       -0.4373
    360  O5'      -41.5740    7.4820   20.5890 O.3    19  DA19       -0.3114
    361  C5'      -42.4790    6.4790   20.1090 C.3    19  DA19        0.1811
    362  C4'      -43.3270    7.0360   18.9870 C.3    19  DA19        0.1746
    363  O4'      -44.3790    7.8720   19.5150 O.3    19  DA19       -0.3327
    364  C3'      -42.6060    7.9540   18.0180 C.3    19  DA19        0.1558
    365  O3'      -41.9470    7.1410   17.0550 O.3    19  DA19       -0.3138
    366  C2'      -43.7590    8.7420   17.3780 C.3    19  DA19        0.0865
    367  C1'      -44.8140    8.7450   18.4970 C.3    19  DA19        0.2094
    368  N9       -45.6750    9.4500   19.8410 N.ar   19  DA19       -0.2714
    369  C8       -45.9040    9.1420   21.1560 C.ar   19  DA19        0.1815
    370  N7       -46.7060    9.9820   21.7650 N.ar   19  DA19       -0.2193
    371  C5       -47.0250   10.9070   20.7830 C.ar   19  DA19        0.1518
    372  C6       -47.8400   12.0530   20.7910 C.ar   19  DA19        0.1919
    373  N6       -48.5080   12.4770   21.8670 N.pl3  19  DA19       -0.1054
    374  N1       -47.9440   12.7550   19.6430 N.ar   19  DA19       -0.2040
    375  C2       -47.2750   12.3290   18.5660 C.ar   19  DA19        0.2016
    376  N3       -46.4810   11.2690   18.4350 N.ar   19  DA19       -0.2048
    377  C4       -46.3970   10.5930   19.5930 C.ar   19  DA19        0.1691
    378  P        -40.5270    7.7530   16.3480 P.3    20  DT20        0.2141
    379  OP1      -40.1910    9.1340   15.9410 O.3    20  DT20       -0.4373
    380  OP2      -41.0750    6.7980   15.3590 O.2    20  DT20       -0.5172
    381  O5'      -39.2620    7.0500   16.9770 O.3    20  DT20       -0.3114
    382  C5'      -38.2610    7.8700   17.4650 C.3    20  DT20        0.1811
    383  C4'      -37.2790    6.9870   18.1730 C.3    20  DT20        0.1746
    384  O4'      -37.9770    5.9820   18.9350 O.3    20  DT20       -0.3327
    385  C3'      -36.4270    6.1300   17.2690 C.3    20  DT20        0.1558
    386  O3'      -35.4250    6.9150   16.7220 O.3    20  DT20       -0.3138
    387  C2'      -35.8910    5.1470   18.2850 C.3    20  DT20        0.0866
    388  C1'      -37.1940    4.8140   18.9880 C.3    20  DT20        0.2106
    389  N1       -37.8440    3.7020   18.3770 N.ar   20  DT20       -0.2557
    390  C2       -37.5080    2.4060   18.7170 C.ar   20  DT20        0.3545
    391  O2       -36.6160    2.1350   19.5010 O.2    20  DT20       -0.2443
    392  N3       -38.2560    1.4310   18.1010 N.ar   20  DT20       -0.1532
    393  C4       -39.2830    1.6200   17.2000 C.ar   20  DT20        0.2839
    394  O4       -39.8630    0.6430   16.7310 O.2    20  DT20       -0.2652
    395  C5       -39.5710    2.9930   16.8980 C.ar   20  DT20        0.0966
    396  C6       -38.8600    3.9610   17.4830 C.ar   20  DT20        0.0861
    397  C7       -40.6720    3.3020   15.9270 C.3    20  DT20        0.2415
    398  P        -34.8470    6.5840   15.3630 P.3    21  DT21        0.2141
    399  OP1      -33.9820    7.7240   14.9620 O.3    21  DT21       -0.4373
    400  OP2      -35.7120    5.9310   14.3510 O.2    21  DT21       -0.5172
    401  O5'      -33.9220    5.4710   16.0220 O.3    21  DT21       -0.3114
    402  C5'      -33.1830    5.7550   17.2010 C.3    21  DT21        0.1811
    403  C4'      -32.7310    4.4710   17.8530 C.3    21  DT21        0.1746
    404  O4'      -33.8810    3.7500   18.3760 O.3    21  DT21       -0.3327
    405  C3'      -32.0740    3.4740   16.9180 C.3    21  DT21        0.1558
    406  O3'      -30.7100    3.7750   16.6780 O.3    21  DT21       -0.3138
    407  C2'      -32.2510    2.1640   17.6730 C.3    21  DT21        0.0866
    408  C1'      -33.6530    2.3510   18.2620 C.3    21  DT21        0.2106
    409  N1       -34.6980    1.7650   17.4350 N.ar   21  DT21       -0.2559
    410  C2       -34.8900    0.3990   17.5150 C.ar   21  DT21        0.3545
    411  O2       -34.2180   -0.3250   18.2270 O.2    21  DT21       -0.2443
    412  N3       -35.9030   -0.0930   16.7270 N.ar   21  DT21       -0.1533
    413  C4       -36.7240    0.6290   15.8860 C.ar   21  DT21        0.2804
    414  O4       -37.5920    0.0450   15.2410 O.2    21  DT21       -0.2654
    415  C5       -36.4610    2.0400   15.8570 C.ar   21  DT21        0.0534
    416  C6       -35.4830    2.5450   16.6130 C.ar   21  DT21        0.0824
    417  C7       -37.3010    2.9110   14.9710 C.3    21  DT21        0.0377
    418  P        -29.9140    3.0510   15.3820 P.3    22  DC22        0.2141
    419  OP1      -28.6650    3.8140   15.1400 O.3    22  DC22       -0.4373
    420  OP2      -30.9600    3.0090   14.3280 O.2    22  DC22       -0.5172
    421  O5'      -29.5300    1.5550   15.7780 O.3    22  DC22       -0.3114
    422  C5'      -28.9560    1.2750   17.0550 C.3    22  DC22        0.1811
    423  C4'      -29.1650   -0.1760   17.4270 C.3    22  DC22        0.1746
    424  O4'      -30.5830   -0.4690   17.5350 O.3    22  DC22       -0.3327
    425  C3'      -28.6640   -1.1930   16.4200 C.3    22  DC22        0.1558
    426  O3'      -27.2680   -1.4050   16.5700 O.3    22  DC22       -0.3138
    427  C2'      -29.4690   -2.4340   16.7940 C.3    22  DC22        0.0866
    428  C1'      -30.8190   -1.8210   17.1780 C.3    22  DC22        0.2106
    429  N1       -31.7330   -1.8390   16.0280 N.ar   22  DC22       -0.2556
    430  C2       -32.4220   -3.0120   15.7000 C.ar   22  DC22        0.3531
    431  O2       -32.2370   -4.0280   16.3920 O.2    22  DC22       -0.2443
    432  N3       -33.2660   -3.0070   14.6410 N.ar   22  DC22       -0.1739
    433  C4       -33.4330   -1.8940   13.9260 C.ar   22  DC22        0.1759
    434  N4       -34.2750   -1.9360   12.8910 N.pl3  22  DC22       -0.1070
    435  C5       -32.7440   -0.6950   14.2420 C.ar   22  DC22        0.0566
    436  C6       -31.9120   -0.7040   15.2890 C.ar   22  DC22        0.0849
    437  P        -26.6340   -1.9810   15.5380 P.3    23  DC23        0.2141
    438  OP1      -25.1810   -1.9560   15.8280 O.3    23  DC23       -0.4373
    439  OP2      -27.1040   -1.8100   14.1510 O.2    23  DC23       -0.5172
    440  O5'      -27.2180   -3.3760   16.0490 O.3    23  DC23       -0.3114
    441  C5'      -26.7040   -4.0250   17.2080 C.3    23  DC23        0.1811
    442  C4'      -27.2550   -5.4330   17.1790 C.3    23  DC23        0.1746
    443  O4'      -28.7030   -5.3580   17.0940 O.3    23  DC23       -0.3327
    444  C3'      -26.9010   -6.1960   15.9060 C.3    23  DC23        0.1558
    445  O3'      -25.5570   -6.7160   15.8700 O.3    23  DC23       -0.3138
    446  C2'      -28.0120   -7.2550   15.8760 C.3    23  DC23        0.0866
    447  C1'      -29.2030   -6.3650   16.2230 C.3    23  DC23        0.2106
    448  N1       -29.8360   -5.9000   15.0280 N.ar   23  DC23       -0.2556
    449  C2       -30.7420   -6.6760   14.2960 C.ar   23  DC23        0.3531
    450  O2       -31.0360   -7.8080   14.7160 O.2    23  DC23       -0.2443
    451  N3       -31.2700   -6.1720   13.1550 N.ar   23  DC23       -0.1739
    452  C4       -30.9250   -4.9520   12.7420 C.ar   23  DC23        0.1759
    453  N4       -31.4710   -4.4970   11.6120 N.pl3  23  DC23       -0.1070
    454  C5       -30.0080   -4.1500   13.4700 C.ar   23  DC23        0.0566
    455  C6       -29.4890   -4.6510   14.5960 C.ar   23  DC23        0.0849
    456  P        -24.8680   -7.1420   14.4460 P.3    24  DT24        0.2141
    457  OP1      -23.5870   -6.9230   15.1780 O.3    24  DT24       -0.4373
    458  OP2      -25.2890   -6.1910   13.3940 O.2    24  DT24       -0.5172
    459  O5'      -24.8450   -8.5780   13.7800 O.3    24  DT24       -0.3114
    460  C5'      -25.2000   -9.7160   14.5400 C.3    24  DT24        0.1811
    461  C4'      -26.3300  -10.4560   13.8790 C.3    24  DT24        0.1746
    462  O4'      -27.5640   -9.7070   13.9600 O.3    24  DT24       -0.3327
    463  C3'      -26.2250  -10.7840   12.3930 C.3    24  DT24        0.1558
    464  O3'      -25.3980  -11.9270   12.1780 O.3    24  DT24       -0.3138
    465  C2'      -27.6720  -11.1480   12.0670 C.3    24  DT24        0.0866
    466  C1'      -28.4730  -10.2700   13.0360 C.3    24  DT24        0.2106
    467  N1       -28.9980   -9.2280   12.2590 N.ar   24  DT24       -0.2559
    468  C2       -30.1330   -9.3970   11.4900 C.ar   24  DT24        0.3545
    469  O2       -30.7270  -10.4580   11.4050 O.2    24  DT24       -0.2443
    470  N3       -30.5530   -8.2750   10.8180 N.ar   24  DT24       -0.1533
    471  C4       -29.9630   -7.0280   10.8370 C.ar   24  DT24        0.2804
    472  O4       -30.4580   -6.1150   10.1810 O.2    24  DT24       -0.2654
    473  C5       -28.7890   -6.9330   11.6580 C.ar   24  DT24        0.0534
    474  C6       -28.3590   -8.0090   12.3220 C.ar   24  DT24        0.0824
    475  C7       -28.0750   -5.6170   11.7440 C.3    24  DT24        0.0377
    476  P        -24.1570  -12.0050   10.8940 P.3    25  DC25        0.2141
    477  OP1      -23.1840  -13.1030   10.7780 O.2    25  DC25       -0.5172
    478  OP2      -23.7110  -10.5980   11.0330 O.3    25  DC25       -0.4373
    479  O5'      -25.0500  -12.0840    9.5640 O.3    25  DC25       -0.3114
    480  C5'      -25.6210  -13.2890    9.1540 C.3    25  DC25        0.1811
    481  C4'      -26.5320  -12.9780    7.9820 C.3    25  DC25        0.1746
    482  O4'      -27.6400  -12.1450    8.4470 O.3    25  DC25       -0.3327
    483  C3'      -25.8730  -12.1530    6.8780 C.3    25  DC25        0.1558
    484  O3'      -25.0380  -12.9330    5.9610 O.3    25  DC25       -0.3138
    485  C2'      -27.1270  -11.6000    6.1970 C.3    25  DC25        0.0866
    486  C1'      -28.0300  -11.2770    7.3990 C.3    25  DC25        0.2106
    487  N1       -27.8950   -9.9240    7.8800 N.ar   25  DC25       -0.2556
    488  C2       -28.4810   -8.8530    7.1960 C.ar   25  DC25        0.3531
    489  O2       -29.1420   -9.0880    6.1700 O.2    25  DC25       -0.2443
    490  N3       -28.3120   -7.5960    7.6710 N.ar   25  DC25       -0.1739
    491  C4       -27.5930   -7.3910    8.7750 C.ar   25  DC25        0.1759
    492  N4       -27.4540   -6.1350    9.2060 N.pl3  25  DC25       -0.1070
    493  C5       -26.9910   -8.4630    9.4830 C.ar   25  DC25        0.0566
    494  C6       -27.1610   -9.7030    9.0110 C.ar   25  DC25        0.0849
    495  P        -23.5570  -12.4910    5.3440 P.3    26  DT26        0.2141
    496  OP1      -22.9370  -13.7510    4.9080 O.2    26  DT26       -0.5172
    497  OP2      -22.8660  -11.8580    6.4960 O.3    26  DT26       -0.4373
    498  O5'      -23.7380  -11.4050    4.1970 O.3    26  DT26       -0.3114
    499  C5'      -24.4490  -11.7620    3.0140 C.3    26  DT26        0.1811
    500  C4'      -25.0490  -10.5400    2.3780 C.3    26  DT26        0.1746
    501  O4'      -26.0090   -9.9420    3.2900 O.3    26  DT26       -0.3327
    502  C3'      -24.1130   -9.3710    2.0430 C.3    26  DT26        0.1558
    503  O3'      -23.4250   -9.5940    0.8340 O.3    26  DT26       -0.3138
    504  C2'      -25.1870   -8.3000    1.7880 C.3    26  DT26        0.0866
    505  C1'      -26.1440   -8.5660    2.9560 C.3    26  DT26        0.2106
    506  N1       -25.8100   -7.7410    4.1390 N.ar   26  DT26       -0.2559
    507  C2       -26.1820   -6.4100    4.1470 C.ar   26  DT26        0.3545
    508  O2       -26.6780   -5.8530    3.1840 O.2    26  DT26       -0.2443
    509  N3       -25.9490   -5.7490    5.3290 N.ar   26  DT26       -0.1533
    510  C4       -25.3950   -6.2730    6.4780 C.ar   26  DT26        0.2804
    511  O4       -25.2500   -5.5530    7.4630 O.2    26  DT26       -0.2654
    512  C5       -25.0350   -7.6600    6.3900 C.ar   26  DT26        0.0534
    513  C6       -25.2500   -8.3270    5.2530 C.ar   26  DT26        0.0824
    514  C7       -24.4240   -8.3220    7.5890 C.3    26  DT26        0.0377
    515  P        -21.8020   -9.2930    0.5890 P.3    27  DG27        0.2141
    516  OP1      -21.2980  -10.1800   -0.4900 O.2    27  DG27       -0.5172
    517  OP2      -21.0790   -9.1220    1.8690 O.3    27  DG27       -0.4373
    518  O5'      -21.9760   -7.8030    0.0610 O.3    27  DG27       -0.3114
    519  C5'      -22.8980   -7.6980   -1.0060 C.3    27  DG27        0.1811
    520  C4'      -23.3390   -6.2790   -1.2270 C.3    27  DG27        0.1746
    521  O4'      -24.4030   -5.9410   -0.3000 O.3    27  DG27       -0.3327
    522  C3'      -22.2870   -5.2100   -0.9860 C.3    27  DG27        0.1558
    523  O3'      -21.3170   -5.1460   -2.0250 O.3    27  DG27       -0.3138
    524  C2'      -23.1750   -3.9820   -0.8460 C.3    27  DG27        0.0865
    525  C1'      -24.3200   -4.5660   -0.0070 C.3    27  DG27        0.2094
    526  N9       -24.0870   -4.4700    1.4690 N.ar   27  DG27       -0.2713
    527  C8       -23.5180   -5.4010    2.3040 C.ar   27  DG27        0.1816
    528  N7       -23.2740   -4.9400    3.5000 N.ar   27  DG27       -0.2173
    529  C5       -23.7080   -3.6280    3.4570 C.ar   27  DG27        0.1748
    530  C6       -23.7010   -2.6200    4.4550 C.ar   27  DG27        0.3023
    531  O6       -23.2930   -2.6990    5.6210 O.2    27  DG27       -0.2633
    532  N1       -24.2350   -1.4220    3.9890 N.ar   27  DG27       -0.1709
    533  C2       -24.7170   -1.2200    2.7180 C.ar   27  DG27        0.2606
    534  N2       -25.1940    0.0040    2.4540 N.pl3  27  DG27       -0.0859
    535  N3       -24.7290   -2.1460    1.7800 N.ar   27  DG27       -0.1918
    536  C4       -24.2140   -3.3180    2.2090 C.ar   27  DG27        0.1722
    537  P        -19.8710   -4.5830   -2.0300 P.3    28  DT28        0.2141
    538  OP1      -19.5520   -4.7060   -3.4700 O.2    28  DT28       -0.5172
    539  OP2      -18.7850   -4.3820   -1.0450 O.3    28  DT28       -0.4373
    540  O5'      -20.9370   -3.4070   -1.8260 O.3    28  DT28       -0.3114
    541  C5'      -20.9830   -2.3210   -2.7390 C.3    28  DT28        0.1811
    542  C4'      -21.1880   -0.9930   -2.0290 C.3    28  DT28        0.1746
    543  O4'      -21.9600   -1.1680   -0.8140 O.3    28  DT28       -0.3327
    544  C3'      -19.9180   -0.3230   -1.5300 C.3    28  DT28        0.1558
    545  O3'      -19.2380    0.3100   -2.6060 O.3    28  DT28       -0.3138
    546  C2'      -20.5050    0.6920   -0.5530 C.3    28  DT28        0.0866
    547  C1'      -21.6540   -0.1010    0.0680 C.3    28  DT28        0.2106
    548  N1       -21.2630   -0.5780    1.3380 N.ar   28  DT28       -0.2559
    549  C2       -21.2800    0.2720    2.4280 C.ar   28  DT28        0.3545
    550  O2       -21.5840    1.4490    2.3470 O.2    28  DT28       -0.2443
    551  N3       -20.9250   -0.3070    3.6220 N.ar   28  DT28       -0.1533
    552  C4       -20.5630   -1.6220    3.8320 C.ar   28  DT28        0.2804
    553  O4       -20.2710   -1.9960    4.9650 O.2    28  DT28       -0.2654
    554  C5       -20.5690   -2.4400    2.6520 C.ar   28  DT28        0.0534
    555  C6       -20.9100   -1.9030    1.4780 C.ar   28  DT28        0.0824
    556  C7       -20.1890   -3.8860    2.7760 C.3    28  DT28        0.0377
    557  P        -17.7210    0.4920   -2.5720 P.3    29  DT29        0.2141
    558  OP1      -16.9630    0.7580   -3.8150 O.2    29  DT29       -0.5172
    559  OP2      -17.5480   -0.7830   -1.8340 O.3    29  DT29       -0.4373
    560  O5'      -17.4570    1.7130   -1.5780 O.3    29  DT29       -0.3114
    561  C5'      -17.2880    2.9970   -2.1450 C.3    29  DT29        0.1812
    562  C4'      -17.8130    4.0500   -1.1950 C.3    29  DT29        0.1775
    563  O4'      -18.8280    3.4830   -0.3340 O.3    29  DT29       -0.3326
    564  C3'      -16.7760    4.5460   -0.2090 C.3    29  DT29        0.1859
    565  O3'      -15.9450    5.4940   -0.8240 O.3    29  DT29       -0.2202
    566  C2'      -17.6480    5.1260    0.9000 C.3    29  DT29        0.0895
    567  C1'      -18.7180    4.0450    0.9640 C.3    29  DT29        0.2107
    568  N1       -18.4050    2.9500    1.9590 N.ar   29  DT29       -0.2559
    569  C2       -18.7230    3.1720    3.2850 C.ar   29  DT29        0.3545
    570  O2       -19.0760    4.2580    3.7100 O.2    29  DT29       -0.2443
    571  N3       -18.6120    2.0730    4.1020 N.ar   29  DT29       -0.1533
    572  C4       -18.2230    0.8020    3.7330 C.ar   29  DT29        0.2804
    573  O4       -18.1720   -0.0850    4.5820 O.2    29  DT29       -0.2654
    574  C5       -17.9080    0.6520    2.3400 C.ar   29  DT29        0.0534
    575  C6       -18.0080    1.7040    1.5240 C.ar   29  DT29        0.0824
    576  C7       -17.4730   -0.6940    1.8400 C.3    29  DT29        0.0377
    577  P        -14.5220    5.0160   -0.9190 P.3    30  DG30        0.4149
    578  OP1      -13.7590    5.8610   -1.8770 O.3    30  DG30       -0.1481
    579  OP2      -13.8790    3.8150   -0.3230 O.2    30  DG30       -0.2668
    580  O5'      -15.0340    5.9360    0.2720 O.3    30  DG30       -0.2177
    581  C5'      -14.3260    5.9840    1.5090 C.3    30  DG30        0.2140
    582  C4'      -15.0940    6.8010    2.5130 C.3    30  DG30        0.1776
    583  O4'      -16.3660    6.1580    2.8020 O.3    30  DG30       -0.3326
    584  C3'      -14.4040    6.8950    3.8570 C.3    30  DG30        0.1559
    585  O3'      -13.4170    7.9120    3.8670 O.3    30  DG30       -0.3138
    586  C2'      -15.5620    7.1310    4.8130 C.3    30  DG30        0.0865
    587  C1'      -16.6460    6.2480    4.1910 C.3    30  DG30        0.2094
    588  N9       -16.5740    4.8950    4.7480 N.ar   30  DG30       -0.2713
    589  C8       -16.1220    3.7640    4.1130 C.ar   30  DG30        0.1816
    590  N7       -16.1170    2.7090    4.8820 N.ar   30  DG30       -0.2173
    591  C5       -16.5940    3.1670    6.0960 C.ar   30  DG30        0.1748
    592  C6       -16.8110    2.4840    7.3200 C.ar   30  DG30        0.3023
    593  O6       -16.6140    1.2890    7.5760 O.2    30  DG30       -0.2633
    594  N1       -17.3070    3.3300    8.3080 N.ar   30  DG30       -0.1709
    595  C2       -17.5620    4.6690    8.1380 C.ar   30  DG30        0.2606
    596  N2       -18.0400    5.3200    9.2070 N.pl3  30  DG30       -0.0859
    597  N3       -17.3650    5.3180    7.0070 N.ar   30  DG30       -0.1918
    598  C4       -16.8830    4.5170    6.0340 C.ar   30  DG30        0.1722
    599  P        -12.0290    7.6330    4.5870 P.3    31  DA31        0.2141
    600  OP1      -11.3920    8.7300    3.8210 O.2    31  DA31       -0.5172
    601  OP2      -11.8140    6.2190    4.2070 O.3    31  DA31       -0.4373
    602  O5'      -11.5760    7.6880    6.1190 O.3    31  DA31       -0.3114
    603  C5'      -12.0130    8.7910    6.8950 C.3    31  DA31        0.1811
    604  C4'      -12.2490    8.4250    8.3410 C.3    31  DA31        0.1746
    605  O4'      -13.4180    7.5750    8.4790 O.3    31  DA31       -0.3327
    606  C3'      -11.1540    7.6330    9.0320 C.3    31  DA31        0.1558
    607  O3'      -10.0380    8.4250    9.3940 O.3    31  DA31       -0.3138
    608  C2'      -11.9070    7.0900   10.2350 C.3    31  DA31        0.0865
    609  C1'      -13.2590    6.7420    9.6110 C.3    31  DA31        0.2094
    610  N9       -13.3160    5.3710    9.1190 N.ar   31  DA31       -0.2714
    611  C8       -13.2070    5.0190    7.7990 C.ar   31  DA31        0.1815
    612  N7       -13.4240    3.7450    7.5720 N.ar   31  DA31       -0.2190
    613  C5       -13.6930    3.2250    8.8280 C.ar   31  DA31        0.1560
    614  C6       -14.0040    1.9260    9.2670 C.ar   31  DA31        0.2233
    615  N6       -14.1010    0.8740    8.4510 N.2    31  DA31       -0.0526
    616  N1       -14.2140    1.7450   10.5880 N.ar   31  DA31       -0.2004
    617  C2       -14.1170    2.8010   11.4040 C.ar   31  DA31        0.2018
    618  N3       -13.8330    4.0670   11.1110 N.ar   31  DA31       -0.2048
    619  C4       -13.6280    4.2140    9.7910 C.ar   31  DA31        0.1694
    620  P         -8.1700    7.6280   10.1300 P.3    32  DA32        0.2141
    621  OP1       -7.4580    8.6480   10.9420 O.3    32  DA32       -0.4373
    622  OP2       -7.4110    6.7300    9.2280 O.2    32  DA32       -0.5172
    623  O5'       -9.0270    6.7180   11.0990 O.3    32  DA32       -0.3114
    624  C5'       -9.4270    7.2130   12.3530 C.3    32  DA32        0.1811
    625  C4'       -9.4220    6.0990   13.3480 C.3    32  DA32        0.1746
    626  O4'      -10.4950    5.2020   12.9740 O.3    32  DA32       -0.3327
    627  C3'       -8.1490    5.2500   13.4000 C.3    32  DA32        0.1558
    628  O3'       -7.1700    5.7430   14.3440 O.3    32  DA32       -0.3138
    629  C2'       -8.7010    3.9230   13.8630 C.3    32  DA32        0.0865
    630  C1'      -10.0720    3.8800   13.1690 C.3    32  DA32        0.2094
    631  N9       -10.1110    3.2420   11.7520 N.ar   32  DA32       -0.2714
    632  C8        -9.7630    3.7440   10.5250 C.ar   32  DA32        0.1815
    633  N7        -9.6000    2.8230    9.6040 N.ar   32  DA32       -0.2193
    634  C5        -9.8570    1.6370   10.2720 C.ar   32  DA32        0.1518
    635  C6        -9.8530    0.2950    9.8520 C.ar   32  DA32        0.1919
    636  N6        -9.5690   -0.0890    8.6050 N.pl3  32  DA32       -0.1054
    637  N1       -10.1540   -0.6490   10.7690 N.ar   32  DA32       -0.2040
    638  C2       -10.4390   -0.2640   12.0180 C.ar   32  DA32        0.2016
    639  N3       -10.4770    0.9640   12.5310 N.ar   32  DA32       -0.2048
    640  C4       -10.1720    1.8790   11.5960 C.ar   32  DA32        0.1691
    641  P         -5.6870    5.1520   14.4150 P.3    33  DG33        0.2141
    642  OP1       -5.0250    5.6600   15.6390 O.3    33  DG33       -0.4373
    643  OP2       -5.2230    5.6180   13.0780 O.2    33  DG33       -0.5172
    644  O5'       -5.6420    3.5710   14.4260 O.3    33  DG33       -0.3114
    645  C5'       -6.3720    2.8840   15.4250 C.3    33  DG33        0.1811
    646  C4'       -6.5490    1.4370   15.0650 C.3    33  DG33        0.1746
    647  O4'       -7.6160    1.2380   14.1070 O.3    33  DG33       -0.3327
    648  C3'       -5.3440    0.7950   14.4120 C.3    33  DG33        0.1558
    649  O3'       -4.4090    0.4580   15.3930 O.3    33  DG33       -0.3138
    650  C2'       -5.9510   -0.4360   13.7530 C.3    33  DG33        0.0865
    651  C1'       -7.3120    0.1040   13.3060 C.3    33  DG33        0.2093
    652  N9        -7.1900    0.5160   11.9360 N.ar   33  DG33       -0.2733
    653  C8        -7.0330    1.7780   11.4170 C.ar   33  DG33        0.1815
    654  N7        -6.7690    1.7810   10.1390 N.ar   33  DG33       -0.2165
    655  C5        -6.7510    0.4440    9.7890 C.ar   33  DG33        0.1829
    656  C6        -6.5160   -0.1800    8.5370 C.2    33  DG33        0.3303
    657  O6        -6.2690    0.3560    7.4490 O.2    33  DG33       -0.3177
    658  N1        -6.5900   -1.5670    8.6240 N.2    33  DG33       -0.3300
    659  C2        -6.8580   -2.2670    9.7760 C.cat  33  DG33        0.3027
    660  N2        -6.8890   -3.6020    9.6630 N.pl3  33  DG33       -0.0763
    661  N3        -7.0780   -1.7020   10.9470 N.pl3  33  DG33       -0.1487
    662  C4        -7.0100   -0.3550   10.8860 C.ar   33  DG33        0.1633
    663  P         -2.9480    1.0490   15.3010 P.3    34  DA34        0.2141
    664  OP1       -1.9600    0.8820   16.3910 O.3    34  DA34       -0.4373
    665  OP2       -2.8430    2.1740   14.3420 O.2    34  DA34       -0.5172
    666  O5'       -2.9050   -0.2620   14.3900 O.3    34  DA34       -0.3114
    667  C5'       -2.8910   -1.5250   15.0350 C.3    34  DA34        0.1811
    668  C4'       -2.5800   -2.6240   14.0560 C.3    34  DA34        0.1746
    669  O4'       -3.6660   -2.7410   13.1010 O.3    34  DA34       -0.3327
    670  C3'       -1.3550   -2.3950   13.1870 C.3    34  DA34        0.1558
    671  O3'       -0.1330   -2.6850   13.8370 O.3    34  DA34       -0.3138
    672  C2'       -1.6410   -3.2870   11.9910 C.3    34  DA34        0.0865
    673  C1'       -3.1410   -3.0510   11.8290 C.3    34  DA34        0.2094
    674  N9        -3.4130   -1.8460   10.9540 N.ar   34  DA34       -0.2714
    675  C8        -3.8990   -0.6480   11.4080 C.ar   34  DA34        0.1815
    676  N7        -4.2560    0.1750   10.4510 N.ar   34  DA34       -0.2190
    677  C5        -3.9850   -0.5300    9.2890 C.ar   34  DA34        0.1560
    678  C6        -4.1430   -0.2090    7.9290 C.ar   34  DA34        0.2233
    679  N6        -4.6330    0.9550    7.4970 N.2    34  DA34       -0.0526
    680  N1        -3.7750   -1.1360    7.0200 N.ar   34  DA34       -0.2004
    681  C2        -3.2840   -2.3030    7.4540 C.ar   34  DA34        0.2018
    682  N3        -3.0900   -2.7200    8.7030 N.ar   34  DA34       -0.2048
    683  C4        -3.4650   -1.7760    9.5830 C.ar   34  DA34        0.1694
    684  P          0.8650   -1.6900   13.6890 P.3    35  DA35        0.2141
    685  OP1        1.7420   -1.7240   14.8820 O.3    35  DA35       -0.4373
    686  OP2        0.8160   -0.4860   12.8290 O.2    35  DA35       -0.5172
    687  O5'        1.2650   -2.8780   12.6880 O.3    35  DA35       -0.3114
    688  C5'        2.1230   -2.6640   11.5750 C.3    35  DA35        0.1811
    689  C4'        1.5400   -3.2640   10.3180 C.3    35  DA35        0.1746
    690  O4'        0.1350   -2.9050   10.2290 O.3    35  DA35       -0.3327
    691  C3'        2.1220   -2.7670    9.0020 C.3    35  DA35        0.1558
    692  O3'        3.3470   -3.3800    8.6330 O.3    35  DA35       -0.3138
    693  C2'        0.9770   -3.0330    8.0330 C.3    35  DA35        0.0865
    694  C1'       -0.2050   -2.5940    8.8940 C.3    35  DA35        0.2094
    695  N9        -0.5390   -1.1240    8.9090 N.ar   35  DA35       -0.2714
    696  C8        -0.4360   -0.3250   10.0180 C.ar   35  DA35        0.1815
    697  N7        -0.9690    0.8640    9.8640 N.ar   35  DA35       -0.2193
    698  C5        -1.4550    0.8440    8.5660 C.ar   35  DA35        0.1518
    699  C6        -2.1320    1.8050    7.7950 C.ar   35  DA35        0.1919
    700  N6        -2.4500    3.0220    8.2430 N.pl3  35  DA35       -0.1054
    701  N1        -2.4760    1.4680    6.5340 N.ar   35  DA35       -0.2040
    702  C2        -2.1570    0.2470    6.0860 C.ar   35  DA35        0.2016
    703  N3        -1.5240   -0.7400    6.7150 N.ar   35  DA35       -0.2048
    704  C4        -1.1960   -0.3730    7.9650 C.ar   35  DA35        0.1691
    705  P          4.1340   -2.5810    8.1980 P.3    36  DC36        0.2141
    706  OP1        5.2040   -3.5710    7.9060 O.2    36  DC36       -0.5172
    707  OP2        4.4500   -1.3600    8.9810 O.3    36  DC36       -0.4373
    708  O5'        3.4630   -2.1350    6.8220 O.3    36  DC36       -0.3114
    709  C5'        3.2600   -3.0830    5.7510 C.3    36  DC36        0.1811
    710  C4'        2.6640   -2.3950    4.5440 C.3    36  DC36        0.1746
    711  O4'        1.4000   -1.8000    4.9290 O.3    36  DC36       -0.3327
    712  C3'        3.4830   -1.2500    3.9630 C.3    36  DC36        0.1558
    713  O3'        4.4000   -1.7260    2.9840 O.3    36  DC36       -0.3138
    714  C2'        2.4210   -0.3630    3.3250 C.3    36  DC36        0.0866
    715  C1'        1.2280   -0.5620    4.2630 C.3    36  DC36        0.2106
    716  N1         1.1830    0.4800    5.2900 N.ar   36  DC36       -0.2556
    717  C2         0.6980    1.7350    4.9050 C.ar   36  DC36        0.3531
    718  O2         0.2400    1.8730    3.7580 O.2    36  DC36       -0.2443
    719  N3         0.7430    2.7590    5.7910 N.ar   36  DC36       -0.1739
    720  C4         1.2440    2.5650    7.0110 C.ar   36  DC36        0.1759
    721  N4         1.2680    3.6040    7.8490 N.pl3  36  DC36       -0.1070
    722  C5         1.7410    1.3010    7.4200 C.ar   36  DC36        0.0566
    723  C6         1.6950    0.2920    6.5430 C.ar   36  DC36        0.0849
    724  P          5.4840   -0.7100    2.3710 P.3    37  DC37        0.2141
    725  OP1        6.5530   -1.1120    1.4290 O.2    37  DC37       -0.5172
    726  OP2        5.8060   -0.0960    3.6800 O.3    37  DC37       -0.4373
    727  O5'        4.5540    0.3770    1.6630 O.3    37  DC37       -0.3114
    728  C5'        3.9570    0.1530    0.3970 C.3    37  DC37        0.1811
    729  C4'        3.2290    1.4040   -0.0050 C.3    37  DC37        0.1746
    730  O4'        2.3920    1.8030    1.0940 O.3    37  DC37       -0.3327
    731  C3'        4.1210    2.5910   -0.3370 C.3    37  DC37        0.1558
    732  O3'        3.8560    2.9570   -1.6840 O.3    37  DC37       -0.3138
    733  C2'        3.7700    3.6950    0.6550 C.3    37  DC37        0.0866
    734  C1'        2.4910    3.1830    1.3150 C.3    37  DC37        0.2106
    735  N1         2.5920    3.4190    2.6480 N.ar   37  DC37       -0.2556
    736  C2         2.4280    4.8050    2.7470 C.ar   37  DC37        0.3531
    737  O2         1.6900    5.3800    1.9280 O.2    37  DC37       -0.2443
    738  N3         3.0770    5.4780    3.7270 N.ar   37  DC37       -0.1739
    739  C4         3.8590    4.8200    4.5830 C.ar   37  DC37        0.1759
    740  N4         4.4780    5.5250    5.5320 N.pl3  37  DC37       -0.1070
    741  C5         4.0380    3.4150    4.5000 C.ar   37  DC37        0.0566
    742  C6         3.3960    2.7550    3.5310 C.ar   37  DC37        0.0849
    743  P          4.8600    4.0290   -2.6720 P.3    38  DA38        0.2141
    744  OP1        4.7660    3.9590   -4.1460 O.2    38  DA38       -0.5172
    745  OP2        6.1370    3.7190   -1.9810 O.3    38  DA38       -0.4373
    746  O5'        4.4940    5.5120   -2.1930 O.3    38  DA38       -0.3114
    747  C5'        3.4860    6.2630   -2.8540 C.3    38  DA38        0.1811
    748  C4'        3.0240    7.4280   -2.0160 C.3    38  DA38        0.1746
    749  O4'        2.8020    6.9770   -0.6570 O.3    38  DA38       -0.3327
    750  C3'        4.0100    8.5750   -1.8730 C.3    38  DA38        0.1558
    751  O3'        3.9400    9.5110   -2.9280 O.3    38  DA38       -0.3138
    752  C2'        3.6430    9.1930   -0.5360 C.3    38  DA38        0.0865
    753  C1'        3.2400    7.9550    0.2610 C.3    38  DA38        0.2094
    754  N9         4.5090    7.3830    0.9080 N.ar   38  DA38       -0.2714
    755  C8         5.2170    6.2880    0.4850 C.ar   38  DA38        0.1815
    756  N7         6.2110    5.9630    1.2780 N.ar   38  DA38       -0.2193
    757  C5         6.1520    6.9100    2.2890 C.ar   38  DA38        0.1518
    758  C6         6.9330    7.1150    3.4390 C.ar   38  DA38        0.1919
    759  N6         7.9700    6.3440    3.7760 N.pl3  38  DA38       -0.1054
    760  N1         6.6090    8.1520    4.2410 N.ar   38  DA38       -0.2040
    761  C2         5.5690    8.9230    3.9030 C.ar   38  DA38        0.2016
    762  N3         4.7600    8.8300    2.8500 N.ar   38  DA38       -0.2048
    763  C4         5.1090    7.7910    2.0740 C.ar   38  DA38        0.1691
    764  P          5.2160   10.0070   -3.4370 P.3    39  DC39        0.2141
    765  OP1        5.1600   11.0710   -4.4620 O.2    39  DC39       -0.5172
    766  OP2        6.3050    8.9910   -3.4910 O.3    39  DC39       -0.4373
    767  O5'        5.1990   10.7290   -2.0140 O.3    39  DC39       -0.3114
    768  C5'        4.3080   11.8260   -1.7440 C.3    39  DC39        0.1811
    769  C4'        4.8750   12.7050   -0.6480 C.3    39  DC39        0.1746
    770  O4'        4.7720   12.0210    0.6240 O.3    39  DC39       -0.3327
    771  C3'        6.3530   12.9980   -0.7980 C.3    39  DC39        0.1558
    772  O3'        6.6160   14.0990   -1.6490 O.3    39  DC39       -0.3138
    773  C2'        6.8000   13.2310    0.6340 C.3    39  DC39        0.0866
    774  C1'        5.9580   12.2030    1.3770 C.3    39  DC39        0.2106
    775  N1         6.7240   10.8730    1.4280 N.ar   39  DC39       -0.2556
    776  C2         7.6050   10.6980    2.5010 C.ar   39  DC39        0.3533
    777  O2         7.6390   11.5610    3.3940 O.2    39  DC39       -0.2443
    778  N3         8.3940    9.5970    2.5340 N.ar   39  DC39       -0.1698
    779  C4         8.3240    8.6970    1.5520 C.ar   39  DC39        0.2067
    780  N4         9.1200    7.6280    1.6270 N.4    39  DC39       -0.0555
    781  C5         7.4380    8.8560    0.4560 C.ar   39  DC39        0.0610
    782  C6         6.6610    9.9450    0.4280 C.ar   39  DC39        0.0852
    783  P          7.9220   13.9940   -3.0460 P.3    40  DT40        0.2141
    784  OP1        8.0810   15.0020   -4.1190 O.2    40  DT40       -0.5172
    785  OP2        8.5900   12.6820   -3.1870 O.3    40  DT40       -0.4373
    786  O5'        8.3680   14.7520   -1.7430 O.3    40  DT40       -0.3114
    787  C5'        9.2700   14.0850   -0.9990 C.3    40  DT40        0.1811
    788  C4'        9.8370   14.9900    0.0380 C.3    40  DT40        0.1746
    789  O4'        9.4230   14.3970    1.2750 O.3    40  DT40       -0.3327
    790  C3'       11.3230   14.7590   -0.0570 C.3    40  DT40        0.1558
    791  O3'       11.9710   15.8710   -0.6500 O.3    40  DT40       -0.3138
    792  C2'       11.7600   14.2890    1.3350 C.3    40  DT40        0.0866
    793  C1'       10.4860   13.6110    1.8310 C.3    40  DT40        0.2106
    794  N1        10.2850   12.1480    1.6610 N.ar   40  DT40       -0.2559
    795  C2        10.7890   11.3690    2.6860 C.ar   40  DT40        0.3545
    796  O2        11.1200   11.8260    3.7660 O.2    40  DT40       -0.2443
    797  N3        10.8950   10.0300    2.3990 N.ar   40  DT40       -0.1548
    798  C4        10.5550    9.4040    1.2180 C.ar   40  DT40        0.2598
    799  O4        10.7070    8.1900    1.1110 O.3    40  DT40       -0.3326
    800  C5        10.0400   10.2800    0.2030 C.ar   40  DT40        0.0516
    801  C6         9.9260   11.5870    0.4550 C.ar   40  DT40        0.0824
    802  C7         9.6420    9.6940   -1.1190 C.3    40  DT40        0.0376
    803  P         12.9980   15.5860   -1.7390 P.3    41  DT41        0.2141
    804  OP1       13.1470   17.0640   -1.7230 O.3    41  DT41       -0.4373
    805  OP2       12.8590   14.8500   -3.0440 O.2    41  DT41       -0.5172
    806  O5'       14.1510   14.9030   -0.8600 O.3    41  DT41       -0.3114
    807  C5'       14.6410   15.5540    0.3370 C.3    41  DT41        0.1811
    808  C4'       15.8480   14.8300    0.9080 C.3    41  DT41        0.1746
    809  O4'       15.4530   13.8580    1.9120 O.3    41  DT41       -0.3327
    810  C3'       16.8080   14.1300   -0.0440 C.3    41  DT41        0.1558
    811  O3'       18.1210   14.4890    0.4130 O.3    41  DT41       -0.3138
    812  C2'       16.4490   12.6560    0.1740 C.3    41  DT41        0.0866
    813  C1'       16.0980   12.6390    1.6610 C.3    41  DT41        0.2106
    814  N1        15.1250   11.6810    2.0740 N.ar   41  DT41       -0.2559
    815  C2        15.4390   10.6330    2.9180 C.ar   41  DT41        0.3545
    816  O2        16.1960   10.7470    3.8670 O.2    41  DT41       -0.2443
    817  N3        14.8350    9.4380    2.6110 N.ar   41  DT41       -0.1533
    818  C4        13.9670    9.1910    1.5680 C.ar   41  DT41        0.2804
    819  O4        13.5030    8.0630    1.4210 O.2    41  DT41       -0.2654
    820  C5        13.6910   10.3290    0.7360 C.ar   41  DT41        0.0534
    821  C6        14.2660   11.5030    1.0120 C.ar   41  DT41        0.0824
    822  C7        12.7580   10.1620   -0.4270 C.3    41  DT41        0.0377
    823  P         19.2330   14.0950   -0.4230 P.3    42  DC42        0.2141
    824  OP1       20.3380   15.0960   -0.4000 O.3    42  DC42       -0.4373
    825  OP2       18.6540   13.6660   -1.7260 O.2    42  DC42       -0.5172
    826  O5'       19.7390   12.8020    0.3640 O.3    42  DC42       -0.3114
    827  C5'       20.8030   12.9120    1.2990 C.3    42  DC42        0.1811
    828  C4'       20.7650   11.7790    2.2990 C.3    42  DC42        0.1746
    829  O4'       19.3810   11.4400    2.6050 O.3    42  DC42       -0.3327
    830  C3'       21.3450   10.4350    1.8830 C.3    42  DC42        0.1558
    831  O3'       22.7780   10.4210    1.9330 O.3    42  DC42       -0.3138
    832  C2'       20.7360    9.5240    2.9420 C.3    42  DC42        0.0866
    833  C1'       19.3230   10.0990    3.0620 C.3    42  DC42        0.2106
    834  N1        18.4590    9.3140    2.2390 N.ar   42  DC42       -0.2556
    835  C2        18.0260    8.0420    2.6320 C.ar   42  DC42        0.3531
    836  O2        18.5390    7.5200    3.6360 O.2    42  DC42       -0.2443
    837  N3        17.0660    7.4190    1.9080 N.ar   42  DC42       -0.1739
    838  C4        16.5450    8.0180    0.8360 C.ar   42  DC42        0.1759
    839  N4        15.6010    7.3660    0.1530 N.pl3  42  DC42       -0.1070
    840  C5        16.9700    9.3060    0.4210 C.ar   42  DC42        0.0566
    841  C6        17.9180    9.9180    1.1390 C.ar   42  DC42        0.0849
    842  P         23.6530    9.2720    1.0180 P.3    43  DC43        0.2141
    843  OP1       25.0040    9.8340    1.0980 O.3    43  DC43       -0.4373
    844  OP2       23.0580    8.8690   -0.3140 O.2    43  DC43       -0.5172
    845  O5'       23.6160    7.9660    1.9430 O.3    43  DC43       -0.3114
    846  C5'       24.6980    7.0330    1.9350 C.3    43  DC43        0.1811
    847  C4'       24.2290    5.7280    2.5160 C.3    43  DC43        0.1746
    848  O4'       22.8000    5.8620    2.4770 O.3    43  DC43       -0.3327
    849  C3'       24.3510    4.4470    1.7350 C.3    43  DC43        0.1558
    850  O3'       25.6520    3.8180    1.8540 O.3    43  DC43       -0.3138
    851  C2'       23.2600    3.6330    2.4150 C.3    43  DC43        0.0866
    852  C1'       22.1370    4.6150    2.3920 C.3    43  DC43        0.2106
    853  N1        21.2460    4.5830    1.4650 N.ar   43  DC43       -0.2556
    854  C2        20.3310    3.5480    1.2380 C.ar   43  DC43        0.3531
    855  O2        20.4760    2.4770    1.8520 O.2    43  DC43       -0.2443
    856  N3        19.3200    3.7420    0.3590 N.ar   43  DC43       -0.1739
    857  C4        19.2040    4.9080   -0.2790 C.ar   43  DC43        0.1759
    858  N4        18.1920    5.0530   -1.1360 N.pl3  43  DC43       -0.1070
    859  C5        20.1200    5.9690   -0.0630 C.ar   43  DC43        0.0566
    860  C6        21.1180    5.7730    0.8060 C.ar   43  DC43        0.0849
    861  P         26.2160    3.3900    0.4830 P.3    44  DG44        0.2141
    862  OP1       27.5660    2.8180    0.7210 O.3    44  DG44       -0.4373
    863  OP2       25.9770    4.2530   -0.7020 O.2    44  DG44       -0.5172
    864  O5'       25.1620    2.1930    0.4590 O.3    44  DG44       -0.3114
    865  C5'       25.3190    1.0760    1.3250 C.3    44  DG44        0.1811
    866  C4'       24.4010   -0.0580    0.9160 C.3    44  DG44        0.1746
    867  O4'       23.0160    0.3260    1.1150 O.3    44  DG44       -0.3327
    868  C3'       24.4430   -0.5030   -0.5380 C.3    44  DG44        0.1558
    869  O3'       25.5430   -1.3710   -0.7930 O.3    44  DG44       -0.3138
    870  C2'       23.1130   -1.2350   -0.6710 C.3    44  DG44        0.0865
    871  C1'       22.1990   -0.3520    0.1760 C.3    44  DG44        0.2094
    872  N9        21.4600    0.6550   -0.6300 N.ar   44  DG44       -0.2713
    873  C8        21.8400    1.9110   -1.0380 C.ar   44  DG44        0.1816
    874  N7        21.0020    2.4550   -1.8780 N.ar   44  DG44       -0.2173
    875  C5        20.0080    1.5070   -2.0350 C.ar   44  DG44        0.1748
    876  C6        18.8300    1.5270   -2.8250 C.ar   44  DG44        0.3023
    877  O6        18.4220    2.4260   -3.5700 O.2    44  DG44       -0.2633
    878  N1        18.0950    0.3520   -2.6920 N.ar   44  DG44       -0.1709
    879  C2        18.4510   -0.7100   -1.8960 C.ar   44  DG44        0.2606
    880  N2        17.6140   -1.7560   -1.8970 N.pl3  44  DG44       -0.0859
    881  N3        19.5420   -0.7430   -1.1570 N.ar   44  DG44       -0.1918
    882  C4        20.2720    0.3870   -1.2710 C.ar   44  DG44        0.1722
    883  P         25.9820   -1.7570   -2.4130 P.3    45  DG45        0.2141
    884  OP1       27.0200   -2.7750   -2.1380 O.3    45  DG45       -0.4373
    885  OP2       26.2290   -0.7010   -3.4210 O.2    45  DG45       -0.5172
    886  O5'       24.6510   -2.5430   -2.8160 O.3    45  DG45       -0.3114
    887  C5'       24.7400   -3.8610   -3.3340 C.3    45  DG45        0.1811
    888  C4'       23.3610   -4.4120   -3.6600 C.3    45  DG45        0.1746
    889  O4'       22.3090   -3.5420   -3.1540 O.3    45  DG45       -0.3327
    890  C3'       23.0190   -4.5290   -5.1390 C.3    45  DG45        0.1558
    891  O3'       23.6910   -5.6310   -5.7490 O.3    45  DG45       -0.3138
    892  C2'       21.5190   -4.7500   -5.0010 C.3    45  DG45        0.0865
    893  C1'       21.1880   -3.6300   -4.0190 C.3    45  DG45        0.2094
    894  N9        20.9750   -2.2950   -4.8350 N.ar   45  DG45       -0.2713
    895  C8        21.7610   -1.1710   -4.7530 C.ar   45  DG45        0.1816
    896  N7        21.2320   -0.1290   -5.3340 N.ar   45  DG45       -0.2173
    897  C5        20.0250   -0.5880   -5.8280 C.ar   45  DG45        0.1748
    898  C6        19.0100    0.0850   -6.5550 C.ar   45  DG45        0.3023
    899  O6        18.9830    1.2680   -6.9180 O.2    45  DG45       -0.2633
    900  N1        17.9450   -0.7570   -6.8630 N.ar   45  DG45       -0.1709
    901  C2        17.8670   -2.0840   -6.5130 C.ar   45  DG45        0.2606
    902  N2        16.7600   -2.7330   -6.8980 N.pl3  45  DG45       -0.0859
    903  N3        18.8030   -2.7230   -5.8380 N.ar   45  DG45       -0.1918
    904  C4        19.8470   -1.9250   -5.5290 C.ar   45  DG45        0.1722
    905  P         24.3930   -5.5050   -7.2880 P.3    46  DA46        0.2141
    906  OP1       25.3180   -6.1960   -8.2110 O.2    46  DA46       -0.5172
    907  OP2       24.5680   -4.0600   -7.0260 O.3    46  DA46       -0.4373
    908  O5'       22.9050   -5.7360   -7.8250 O.3    46  DA46       -0.3114
    909  C5'       22.5310   -6.9770   -8.4010 C.3    46  DA46        0.1811
    910  C4'       21.0450   -7.0000   -8.6880 C.3    46  DA46        0.1746
    911  O4'       20.3760   -5.8840   -8.0500 O.3    46  DA46       -0.3327
    912  C3'       20.7320   -6.8080  -10.1540 C.3    46  DA46        0.1558
    913  O3'       20.8110   -8.0340  -10.8380 O.3    46  DA46       -0.3138
    914  C2'       19.3230   -6.2370  -10.1350 C.3    46  DA46        0.0865
    915  C1'       19.4310   -5.3010   -8.9350 C.3    46  DA46        0.2094
    916  N9        19.9910   -3.8400   -9.3280 N.ar   46  DA46       -0.2714
    917  C8        21.1560   -3.2650   -8.8900 C.ar   46  DA46        0.1815
    918  N7        21.2180   -1.9710   -9.1000 N.ar   46  DA46       -0.2193
    919  C5        20.0130   -1.6770   -9.7190 C.ar   46  DA46        0.1518
    920  C6        19.4650   -0.4750  -10.1980 C.ar   46  DA46        0.1919
    921  N6        20.0880    0.7040  -10.1230 N.pl3  46  DA46       -0.1054
    922  N1        18.2400   -0.5260  -10.7640 N.ar   46  DA46       -0.2040
    923  C2        17.6160   -1.7080  -10.8370 C.ar   46  DA46        0.2016
    924  N3        18.0280   -2.9030  -10.4230 N.ar   46  DA46       -0.2048
    925  C4        19.2480   -2.8180   -9.8670 C.ar   46  DA46        0.1691
    926  P         21.3180   -8.0840  -12.1840 P.3    47  DA47        0.2141
    927  OP1       21.4110   -9.4530  -12.7370 O.2    47  DA47       -0.5172
    928  OP2       22.4740   -7.1590  -12.3330 O.3    47  DA47       -0.4373
    929  O5'       20.0200   -7.4020  -12.8170 O.3    47  DA47       -0.3114
    930  C5'       18.7510   -8.0840  -12.8150 C.3    47  DA47        0.1811
    931  C4'       17.6730   -7.1980  -13.4070 C.3    47  DA47        0.1746
    932  O4'       17.5710   -5.9740  -12.6390 O.3    47  DA47       -0.3327
    933  C3'       17.8980   -6.7490  -14.8450 C.3    47  DA47        0.1558
    934  O3'       17.3510   -7.7320  -15.7280 O.3    47  DA47       -0.3138
    935  C2'       17.0960   -5.4520  -14.9120 C.3    47  DA47        0.0865
    936  C1'       17.2960   -4.8860  -13.5040 C.3    47  DA47        0.2094
    937  N9        18.4650   -3.9430  -13.4120 N.ar   47  DA47       -0.2714
    938  C8        19.6960   -4.2150  -12.8730 C.ar   47  DA47        0.1815
    939  N7        20.4880   -3.1710  -12.8080 N.ar   47  DA47       -0.2193
    940  C5        19.7250   -2.1430  -13.3410 C.ar   47  DA47        0.1518
    941  C6        19.9930   -0.7790  -13.5520 C.ar   47  DA47        0.1919
    942  N6        21.1510   -0.1950  -13.2360 N.pl3  47  DA47       -0.1054
    943  N1        19.0160   -0.0280  -14.1050 N.ar   47  DA47       -0.2040
    944  C2        17.8560   -0.6140  -14.4200 C.ar   47  DA47        0.2016
    945  N3        17.4870   -1.8840  -14.2690 N.ar   47  DA47       -0.2048
    946  C4        18.4780   -2.6040  -13.7180 C.ar   47  DA47        0.1691
    947  P         18.1500   -8.1710  -17.2150 P.3    48  DA48        0.2141
    948  OP1       17.9000   -9.3750  -18.0440 O.2    48  DA48       -0.5172
    949  OP2       19.5420   -7.7750  -16.9120 O.3    48  DA48       -0.4373
    950  O5'       17.4770   -6.8950  -17.8690 O.3    48  DA48       -0.3114
    951  C5'       18.2410   -6.0480  -18.6820 C.3    48  DA48        0.1811
    952  C4'       17.4040   -4.9120  -19.1750 C.3    48  DA48        0.1744
    953  O4'       17.1390   -4.0420  -18.0480 O.3    48  DA48       -0.3349
    954  C3'       18.0970   -4.0830  -20.2260 C.3    48  DA48        0.1555
    955  O3'       17.9540   -4.4600  -21.5830 O.3    48  DA48       -0.3139
    956  C2'       18.0800   -2.6330  -19.7630 C.3    48  DA48        0.0835
    957  C1'       17.5630   -2.7210  -18.3260 C.3    48  DA48        0.1974
    958  N9        18.7210   -2.4740  -17.4690 N.pl3  48  DA48       -0.2459
    959  C8        19.6320   -3.2640  -16.8180 C.2    48  DA48        0.1667
    960  N7        20.7070   -2.6200  -16.4290 N.2    48  DA48       -0.2251
    961  C5        20.4870   -1.3190  -16.8540 C.2    48  DA48        0.1419
    962  C6        21.2550   -0.1470  -16.7480 C.ar   48  DA48        0.2322
    963  N6        22.4500   -0.0960  -16.1540 N.ar   48  DA48       -0.0514
    964  N1        20.7470    0.9850  -17.2800 N.ar   48  DA48       -0.1504
    965  C2        19.5490    0.9340  -17.8750 C.2    48  DA48        0.2118
    966  N3        18.7350   -0.1060  -18.0360 N.2    48  DA48       -0.2242
    967  C4        19.2690   -1.2150  -17.4980 C.3    48  DA48        0.2269
    968  P         19.3160   -4.6890  -22.5150 P.3    49  DT49        0.2141
    969  OP1       19.1220   -5.0800  -23.9360 O.2    49  DT49       -0.5172
    970  OP2       20.3810   -5.3380  -21.7130 O.3    49  DT49       -0.4373
    971  O5'       19.5690   -3.1210  -22.4150 O.3    49  DT49       -0.3114
    972  C5'       18.7230   -2.1670  -23.0910 C.3    49  DT49        0.1811
    973  C4'       19.4000   -0.8160  -23.1100 C.3    49  DT49        0.1746
    974  O4'       19.4330   -0.2700  -21.7620 O.3    49  DT49       -0.3327
    975  C3'       20.8580   -0.8760  -23.5330 C.3    49  DT49        0.1558
    976  O3'       21.0170   -0.8430  -24.9350 O.3    49  DT49       -0.3138
    977  C2'       21.4800    0.3220  -22.8300 C.3    49  DT49        0.0866
    978  C1'       20.6910    0.3510  -21.5220 C.3    49  DT49        0.2106
    979  N1        21.4270   -0.4340  -20.4570 N.ar   49  DT49       -0.2559
    980  C2        22.3860    0.2690  -19.7530 C.ar   49  DT49        0.3545
    981  O2        22.6370    1.4430  -19.9640 O.2    49  DT49       -0.2443
    982  N3        23.0460   -0.4540  -18.7890 N.ar   49  DT49       -0.1533
    983  C4        22.8480   -1.7800  -18.4660 C.ar   49  DT49        0.2804
    984  O4        23.5190   -2.2920  -17.5730 O.2    49  DT49       -0.2654
    985  C5        21.8370   -2.4410  -19.2410 C.ar   49  DT49        0.0534
    986  C6        21.1790   -1.7620  -20.1850 C.ar   49  DT49        0.0824
    987  C7        21.5480   -3.8870  -18.9640 C.3    49  DT49        0.0377
    988  P         22.1490   -1.7030  -25.5590 P.3    50  DA50        0.2141
    989  OP1       22.0440   -2.3610  -26.8850 O.2    50  DA50       -0.5172
    990  OP2       23.2550   -2.0370  -24.6310 O.3    50  DA50       -0.4373
    991  O5'       22.2190   -0.1140  -25.7340 O.3    50  DA50       -0.3114
    992  C5'       23.4730    0.4690  -26.0290 C.3    50  DA50        0.1811
    993  C4'       23.7420    1.7240  -25.2410 C.3    50  DA50        0.1746
    994  O4'       23.4020    1.5620  -23.8380 O.3    50  DA50       -0.3327
    995  C3'       25.2080    2.0770  -25.1810 C.3    50  DA50        0.1558
    996  O3'       25.6840    2.6070  -26.3990 O.3    50  DA50       -0.3138
    997  C2'       25.2820    2.9960  -23.9710 C.3    50  DA50        0.0865
    998  C1'       24.3240    2.2710  -23.0280 C.3    50  DA50        0.2094
    999  N9        25.0710    1.3330  -22.1100 N.ar   50  DA50       -0.2714
   1000  C8        24.7020    0.0220  -21.9570 C.ar   50  DA50        0.1815
   1001  N7        25.2450   -0.5630  -20.9150 N.ar   50  DA50       -0.2193
   1002  C5        26.0240    0.4320  -20.3460 C.ar   50  DA50        0.1518
   1003  C6        26.8540    0.4500  -19.2110 C.ar   50  DA50        0.1919
   1004  N6        27.0430   -0.6050  -18.4160 N.pl3  50  DA50       -0.1054
   1005  N1        27.4910    1.6050  -18.9190 N.ar   50  DA50       -0.2040
   1006  C2        27.3000    2.6620  -19.7160 C.ar   50  DA50        0.2016
   1007  N3        26.5460    2.7680  -20.8070 N.ar   50  DA50       -0.2048
   1008  C4        25.9280    1.6050  -21.0710 C.ar   50  DA50        0.1691
   1009  P         26.6000    1.7600  -26.8300 P.3    51  DA51        0.2141
   1010  OP1       25.9360    2.0980  -28.1160 O.2    51  DA51       -0.5172
   1011  OP2       27.2200    0.4240  -26.6460 O.3    51  DA51       -0.4373
   1012  O5'       27.7120    2.8620  -26.5790 O.3    51  DA51       -0.3114
   1013  C5'       27.3300    4.2240  -26.3550 C.3    51  DA51        0.1811
   1014  C4'       28.1190    4.7990  -25.2130 C.3    51  DA51        0.1746
   1015  O4'       27.6860    4.2390  -23.9470 O.3    51  DA51       -0.3327
   1016  C3'       29.5960    4.4770  -25.2590 C.3    51  DA51        0.1558
   1017  O3'       30.2540    5.3200  -26.1920 O.3    51  DA51       -0.3138
   1018  C2'       30.0120    4.7140  -23.8120 C.3    51  DA51        0.0865
   1019  C1'       28.7920    4.1680  -23.0610 C.3    51  DA51        0.2094
   1020  N9        28.8820    2.8710  -22.6480 N.ar   51  DA51       -0.2714
   1021  C8        28.2650    1.7810  -23.2030 C.ar   51  DA51        0.1815
   1022  N7        28.6390    0.6380  -22.6790 N.ar   51  DA51       -0.2193
   1023  C5        29.5650    1.0020  -21.7150 C.ar   51  DA51        0.1518
   1024  C6        30.3310    0.2500  -20.8070 C.ar   51  DA51        0.1919
   1025  N6        30.2780   -1.0810  -20.7210 N.pl3  51  DA51       -0.1054
   1026  N1        31.1610    0.9210  -19.9800 N.ar   51  DA51       -0.2040
   1027  C2        31.2110    2.2560  -20.0660 C.ar   51  DA51        0.2016
   1028  N3        30.5420    3.0720  -20.8770 N.ar   51  DA51       -0.2048
   1029  C4        29.7270    2.3740  -21.6850 C.ar   51  DA51        0.1691
   1030  P         31.6850    4.6990  -27.1490 P.3    52  DG52        0.2141
   1031  OP1       32.4320    5.4990  -28.1370 O.2    52  DG52       -0.5172
   1032  OP2       31.5070    3.2460  -27.3470 O.3    52  DG52       -0.4373
   1033  O5'       32.3430    4.9200  -25.7170 O.3    52  DG52       -0.3114
   1034  C5'       32.9160    6.1580  -25.3640 C.3    52  DG52        0.1812
   1035  C4'       33.9490    5.9410  -24.2780 C.3    52  DG52        0.1775
   1036  O4'       33.3110    5.4410  -23.0820 O.3    52  DG52       -0.3326
   1037  C3'       34.9750    4.8740  -24.5920 C.3    52  DG52        0.1864
   1038  O3'       35.9950    5.4300  -25.3350 O.3    52  DG52       -0.1389
   1039  C2'       35.4810    4.5330  -23.2050 C.3    52  DG52        0.0894
   1040  C1'       34.1650    4.5090  -22.4480 C.3    52  DG52        0.2095
   1041  N9        33.6010    3.1820  -22.5130 N.ar   52  DG52       -0.2713
   1042  C8        32.6060    2.7170  -23.3380 C.ar   52  DG52        0.1816
   1043  N7        32.4310    1.4260  -23.2590 N.ar   52  DG52       -0.2173
   1044  C5        33.3630    1.0110  -22.3260 C.ar   52  DG52        0.1748
   1045  C6        33.6520   -0.2840  -21.8220 C.ar   52  DG52        0.3025
   1046  O6        33.1140   -1.3580  -22.1190 O.2    52  DG52       -0.2633
   1047  N1        34.6800   -0.2600  -20.8840 N.ar   52  DG52       -0.1685
   1048  C2        35.3470    0.8710  -20.4790 C.ar   52  DG52        0.2746
   1049  N2        36.3080    0.6950  -19.5630 N.ar   52  DG52       -0.1050
   1050  N3        35.0900    2.0800  -20.9380 N.ar   52  DG52       -0.1895
   1051  C4        34.0960    2.0820  -21.8520 C.ar   52  DG52        0.1725
   1052  P         36.7800    4.5840  -25.8880 P.3    53  DA53        0.4714
   1053  OP1       36.3890    3.8980  -27.1490 O.2    53  DA53       -0.2429
   1054  OP2       35.9520    4.4240  -24.6670 O.3    53  DA53       -0.2126
   1055  O5'       38.2370    4.0920  -25.4130 O.3    53  DA53       -0.2823
   1056  C5'       38.9790    4.8830  -24.4810 C.3    53  DA53        0.1839
   1057  C4'       39.3560    4.1620  -23.1980 C.3    53  DA53        0.1747
   1058  O4'       38.2200    3.5110  -22.5840 O.3    53  DA53       -0.3327
   1059  C3'       40.3320    3.0100  -23.3850 C.3    53  DA53        0.1558
   1060  O3'       41.6750    3.4490  -23.5440 O.3    53  DA53       -0.3138
   1061  C2'       40.1940    2.2560  -22.0790 C.3    53  DA53        0.0865
   1062  C1'       38.6870    2.4010  -21.8140 C.3    53  DA53        0.2094
   1063  N9        37.9810    1.2700  -22.2900 N.ar   53  DA53       -0.2714
   1064  C8        37.0640    1.2920  -23.3090 C.ar   53  DA53        0.1815
   1065  N7        36.4730    0.1380  -23.5130 N.ar   53  DA53       -0.2193
   1066  C5        37.0400   -0.6980  -22.5650 C.ar   53  DA53        0.1518
   1067  C6        36.8390   -2.0560  -22.2600 C.ar   53  DA53        0.1919
   1068  N6        35.9740   -2.8390  -22.9080 N.pl3  53  DA53       -0.1054
   1069  N1        37.5680   -2.5860  -21.2540 N.ar   53  DA53       -0.2040
   1070  C2        38.4340   -1.8000  -20.6050 C.ar   53  DA53        0.2016
   1071  N3        38.7100   -0.5130  -20.7990 N.ar   53  DA53       -0.2048
   1072  C4        37.9710   -0.0160  -21.8050 C.ar   53  DA53        0.1691
   1073  P         42.5290    2.9510  -24.9260 P.3    54  DG54        0.2141
   1074  OP1       43.7080    3.7920  -25.2520 O.3    54  DG54       -0.4373
   1075  OP2       41.4440    2.7930  -25.9330 O.2    54  DG54       -0.5172
   1076  O5'       43.0650    1.5000  -24.5490 O.3    54  DG54       -0.3114
   1077  C5'       43.9470    1.3410  -23.4480 C.3    54  DG54        0.1811
   1078  C4'       43.8830   -0.0610  -22.9140 C.3    54  DG54        0.1746
   1079  O4'       42.5550   -0.3540  -22.4220 O.3    54  DG54       -0.3327
   1080  C3'       44.1890   -1.1870  -23.8780 C.3    54  DG54        0.1558
   1081  O3'       45.5900   -1.3790  -24.0110 O.3    54  DG54       -0.3138
   1082  C2'       43.5410   -2.3780  -23.1890 C.3    54  DG54        0.0865
   1083  C1'       42.3200   -1.7390  -22.5300 C.3    54  DG54        0.2094
   1084  N9        41.1830   -1.9160  -23.3480 N.ar   54  DG54       -0.2713
   1085  C8        40.5590   -1.0200  -24.1810 C.ar   54  DG54        0.1816
   1086  N7        39.6060   -1.5570  -24.8940 N.ar   54  DG54       -0.2173
   1087  C5        39.5970   -2.8850  -24.5100 C.ar   54  DG54        0.1748
   1088  C6        38.7830   -3.9650  -24.9390 C.ar   54  DG54        0.3023
   1089  O6        37.8730   -3.9520  -25.7770 O.2    54  DG54       -0.2633
   1090  N1        39.1090   -5.1530  -24.2910 N.ar   54  DG54       -0.1709
   1091  C2        40.0980   -5.2840  -23.3450 C.ar   54  DG54        0.2606
   1092  N2        40.2640   -6.5100  -22.8310 N.pl3  54  DG54       -0.0859
   1093  N3        40.8630   -4.2910  -22.9370 N.ar   54  DG54       -0.1918
   1094  C4        40.5650   -3.1280  -23.5540 C.ar   54  DG54        0.1722
   1095  P         46.2010   -2.4610  -25.1930 P.3    55  DT55        0.2141
   1096  OP1       47.6730   -2.4630  -25.3610 O.3    55  DT55       -0.4373
   1097  OP2       45.3090   -2.0030  -26.2820 O.2    55  DT55       -0.5172
   1098  O5'       45.6760   -3.9430  -24.9040 O.3    55  DT55       -0.3114
   1099  C5'       46.2650   -4.6810  -23.8430 C.3    55  DT55        0.1811
   1100  C4'       45.6460   -6.0460  -23.6610 C.3    55  DT55        0.1746
   1101  O4'       44.2980   -5.8780  -23.1350 O.3    55  DT55       -0.3327
   1102  C3'       45.4840   -6.8650  -24.9380 C.3    55  DT55        0.1558
   1103  O3'       46.5100   -7.8250  -25.1660 O.3    55  DT55       -0.3138
   1104  C2'       44.1530   -7.5880  -24.7610 C.3    55  DT55        0.0866
   1105  C1'       43.3680   -6.7200  -23.7920 C.3    55  DT55        0.2106
   1106  N1        42.3860   -5.9170  -24.6290 N.ar   55  DT55       -0.2559
   1107  C2        41.2620   -6.6400  -24.9800 C.ar   55  DT55        0.3545
   1108  O2        41.0630   -7.7820  -24.6050 O.2    55  DT55       -0.2443
   1109  N3        40.3740   -5.9760  -25.7920 N.ar   55  DT55       -0.1533
   1110  C4        40.4950   -4.6910  -26.2760 C.ar   55  DT55        0.2804
   1111  O4        39.6120   -4.2300  -26.9950 O.2    55  DT55       -0.2654
   1112  C5        41.6890   -4.0060  -25.8680 C.ar   55  DT55        0.0534
   1113  C6        42.5690   -4.6280  -25.0790 C.ar   55  DT55        0.0824
   1114  C7        41.9130   -2.6010  -26.3440 C.3    55  DT55        0.0377
   1115  P         46.7420   -8.0660  -26.7150 P.3    56  DG56        0.2141
   1116  OP1       47.8480   -8.1730  -27.7080 O.2    56  DG56       -0.5172
   1117  OP2       45.5530   -7.2520  -27.0480 O.3    56  DG56       -0.4373
   1118  O5'       46.1900   -9.5120  -26.3540 O.3    56  DG56       -0.3114
   1119  C5'       45.7870  -10.4340  -27.3720 C.3    56  DG56        0.1811
   1120  C4'       45.1930  -11.6490  -26.7040 C.3    56  DG56        0.1746
   1121  O4'       46.2560  -12.2660  -25.9130 O.3    56  DG56       -0.3327
   1122  C3'       44.1410  -11.2480  -25.6990 C.3    56  DG56        0.1558
   1123  O3'       42.8320  -11.1670  -26.2660 O.3    56  DG56       -0.3138
   1124  C2'       44.2760  -12.3070  -24.6080 C.3    56  DG56        0.0865
   1125  C1'       45.7690  -12.6190  -24.6370 C.3    56  DG56        0.2094
   1126  N9        46.5890  -11.8820  -23.6610 N.ar   56  DG56       -0.2713
   1127  C8        47.4330  -10.8110  -23.8270 C.ar   56  DG56        0.1816
   1128  N7        47.9590  -10.3930  -22.7090 N.ar   56  DG56       -0.2173
   1129  C5        47.4360  -11.2360  -21.7460 C.ar   56  DG56        0.1748
   1130  C6        47.6380  -11.2730  -20.3430 C.ar   56  DG56        0.3023
   1131  O6        48.3520  -10.5340  -19.6520 O.2    56  DG56       -0.2633
   1132  N1        46.9100  -12.2930  -19.7380 N.ar   56  DG56       -0.1709
   1133  C2        46.0880  -13.1710  -20.4040 C.ar   56  DG56        0.2606
   1134  N2        45.4690  -14.0890  -19.6500 N.pl3  56  DG56       -0.0859
   1135  N3        45.8890  -13.1480  -21.7070 N.ar   56  DG56       -0.1918
   1136  C4        46.5860  -12.1640  -22.3150 C.ar   56  DG56        0.1722
   1137  P         42.0680  -10.7560  -25.5120 P.3    57  DG57        0.2141
   1138  OP1       41.9160  -10.2580  -26.9040 O.2    57  DG57       -0.5172
   1139  OP2       42.2910   -9.7890  -24.4090 O.3    57  DG57       -0.4373
   1140  O5'       40.7850  -11.6250  -25.1250 O.3    57  DG57       -0.3114
   1141  C5'       40.0400  -11.3480  -23.9400 C.3    57  DG57        0.1811
   1142  C4'       40.2000  -12.4780  -22.9510 C.3    57  DG57        0.1746
   1143  O4'       41.6110  -12.6350  -22.6330 O.3    57  DG57       -0.3327
   1144  C3'       39.5280  -12.2960  -21.5960 C.3    57  DG57        0.1558
   1145  O3'       38.1590  -12.6790  -21.6210 O.3    57  DG57       -0.3138
   1146  C2'       40.3540  -13.2140  -20.7070 C.3    57  DG57        0.0865
   1147  C1'       41.7550  -12.9780  -21.2650 C.3    57  DG57        0.2094
   1148  N9        42.7730  -11.7240  -20.8400 N.ar   57  DG57       -0.2713
   1149  C8        43.3820  -10.8240  -21.6800 C.ar   57  DG57        0.1816
   1150  N7        44.3060  -10.1140  -21.0930 N.ar   57  DG57       -0.2173
   1151  C5        44.3120  -10.5700  -19.7880 C.ar   57  DG57        0.1748
   1152  C6        45.1000  -10.1770  -18.6750 C.ar   57  DG57        0.3023
   1153  O6        45.9840   -9.3120  -18.6300 O.2    57  DG57       -0.2633
   1154  N1        44.7790  -10.8990  -17.5290 N.ar   57  DG57       -0.1709
   1155  C2        43.8180  -11.8790  -17.4630 C.ar   57  DG57        0.2606
   1156  N2        43.6530  -12.4650  -16.2690 N.pl3  57  DG57       -0.0859
   1157  N3        43.0780  -12.2550  -18.4870 N.ar   57  DG57       -0.1918
   1158  C4        43.3710  -11.5660  -19.6110 C.ar   57  DG57        0.1722
   1159  P         37.1990  -12.4160  -20.2880 P.3    58  DT58        0.2141
   1160  OP1       36.8970  -13.4470  -19.2650 O.3    58  DT58       -0.4373
   1161  OP2       36.1120  -11.8600  -21.1250 O.2    58  DT58       -0.5172
   1162  O5'       37.8490  -11.1220  -19.5930 O.3    58  DT58       -0.3114
   1163  C5'       39.0860  -11.1930  -18.8860 C.3    58  DT58        0.1811
   1164  C4'       39.5910   -9.8480  -18.3980 C.3    58  DT58        0.1746
   1165  O4'       39.8250   -8.9390  -19.5080 O.3    58  DT58       -0.3327
   1166  C3'       38.6790   -9.0790  -17.4550 C.3    58  DT58        0.1558
   1167  O3'       38.8040   -9.5220  -16.1160 O.3    58  DT58       -0.3138
   1168  C2'       39.1430   -7.6410  -17.6390 C.3    58  DT58        0.0866
   1169  C1'       39.5400   -7.6110  -19.1170 C.3    58  DT58        0.2106
   1170  N1        38.4380   -7.0890  -19.9940 N.ar   58  DT58       -0.2559
   1171  C2        38.3890   -5.7320  -20.2500 C.ar   58  DT58        0.3545
   1172  O2        39.1780   -4.9360  -19.7710 O.2    58  DT58       -0.2443
   1173  N3        37.3770   -5.3350  -21.0900 N.ar   58  DT58       -0.1533
   1174  C4        36.4300   -6.1410  -21.6870 C.ar   58  DT58        0.2804
   1175  O4        35.5830   -5.6380  -22.4210 O.2    58  DT58       -0.2654
   1176  C5        36.5470   -7.5370  -21.3720 C.ar   58  DT58        0.0534
   1177  C6        37.5220   -7.9500  -20.5570 C.ar   58  DT58        0.0824
   1178  C7        35.5620   -8.4960  -21.9730 C.3    58  DT58        0.0377
   1179  P         37.5650   -9.4280  -15.1380 P.3    59  DG59        0.2141
   1180  OP1       37.4830  -10.0480  -13.7820 O.3    59  DG59       -0.4373
   1181  OP2       36.3300   -9.2940  -15.9620 O.2    59  DG59       -0.5172
   1182  O5'       38.2030   -7.9860  -14.9540 O.3    59  DG59       -0.3114
   1183  C5'       37.4060   -6.8840  -14.5860 C.3    59  DG59        0.1811
   1184  C4'       38.1160   -5.6100  -14.9200 C.3    59  DG59        0.1746
   1185  O4'       38.4090   -5.5700  -16.3350 O.3    59  DG59       -0.3327
   1186  C3'       37.2280   -4.4180  -14.6580 C.3    59  DG59        0.1558
   1187  O3'       37.3570   -4.0320  -13.3060 O.3    59  DG59       -0.3138
   1188  C2'       37.7000   -3.3860  -15.6680 C.3    59  DG59        0.0865
   1189  C1'       38.1230   -4.2750  -16.8450 C.3    59  DG59        0.2094
   1190  N9        37.0620   -4.3730  -17.9350 N.ar   59  DG59       -0.2713
   1191  C8        36.5160   -5.5080  -18.4850 C.ar   59  DG59        0.1816
   1192  N7        35.6080   -5.2570  -19.3890 N.ar   59  DG59       -0.2173
   1193  C5        35.5500   -3.8770  -19.4420 C.ar   59  DG59        0.1748
   1194  C6        34.7470   -3.0170  -20.2360 C.ar   59  DG59        0.3025
   1195  O6        33.8980   -3.3260  -21.0810 O.2    59  DG59       -0.2633
   1196  N1        35.0050   -1.6740  -19.9730 N.ar   59  DG59       -0.1685
   1197  C2        35.9240   -1.2170  -19.0580 C.ar   59  DG59        0.2746
   1198  N2        36.0320    0.1140  -18.9460 N.ar   59  DG59       -0.1050
   1199  N3        36.6750   -2.0030  -18.3140 N.ar   59  DG59       -0.1895
   1200  C4        36.4410   -3.3110  -18.5510 C.ar   59  DG59        0.1725
   1201  P         36.1580   -3.7670  -12.5620 P.3    60  DT60        0.2141
   1202  OP1       36.6210   -3.5980  -11.1630 O.3    60  DT60       -0.4373
   1203  OP2       34.8410   -4.3980  -12.8080 O.2    60  DT60       -0.5172
   1204  O5'       36.2030   -2.3660  -13.3510 O.3    60  DT60       -0.3114
   1205  C5'       36.8740   -1.2250  -12.8030 C.3    60  DT60        0.1811
   1206  C4'       36.5560    0.0120  -13.6200 C.3    60  DT60        0.1746
   1207  O4'       36.5950   -0.3030  -15.0330 O.3    60  DT60       -0.3327
   1208  C3'       35.1520    0.5610  -13.4570 C.3    60  DT60        0.1558
   1209  O3'       35.0620    1.3320  -12.2780 O.3    60  DT60       -0.3138
   1210  C2'       35.0410    1.4370  -14.6970 C.3    60  DT60        0.0866
   1211  C1'       35.6880    0.5320  -15.7320 C.3    60  DT60        0.2106
   1212  N1        34.6520   -0.2620  -16.3950 N.ar   60  DT60       -0.2559
   1213  C2        33.8820    0.3330  -17.3770 C.ar   60  DT60        0.3545
   1214  O2        33.9550    1.5170  -17.6510 O.2    60  DT60       -0.2443
   1215  N3        33.0170   -0.5130  -18.0290 N.ar   60  DT60       -0.1533
   1216  C4        32.8490   -1.8630  -17.8030 C.ar   60  DT60        0.2804
   1217  O4        32.0320   -2.4910  -18.4720 O.2    60  DT60       -0.2654
   1218  C5        33.6830   -2.4060  -16.7680 C.ar   60  DT60        0.0534
   1219  C6        34.5330   -1.6060  -16.1180 C.ar   60  DT60        0.0824
   1220  C7        33.5730   -3.8670  -16.4470 C.3    60  DT60        0.0377
   1221  P         33.8160    1.2360  -11.5950 P.3    61  DT61        0.2141
   1222  OP1       34.4600    1.5150  -10.2940 O.3    61  DT61       -0.4373
   1223  OP2       33.0020    0.0030  -11.7240 O.2    61  DT61       -0.5172
   1224  O5'       32.9180    2.5020  -11.9730 O.3    61  DT61       -0.3114
   1225  C5'       33.5180    3.8040  -12.0420 C.3    61  DT61        0.1811
   1226  C4'       32.9930    4.6790  -13.1740 C.3    61  DT61        0.1746
   1227  O4'       33.3380    4.0740  -14.4470 O.3    61  DT61       -0.3327
   1228  C3'       31.4780    4.8830  -13.2620 C.3    61  DT61        0.1558
   1229  O3'       30.9220    5.8310  -12.3340 O.3    61  DT61       -0.3138
   1230  C2'       31.3610    5.3160  -14.7290 C.3    61  DT61        0.0866
   1231  C1'       32.2690    4.2840  -15.3610 C.3    61  DT61        0.2106
   1232  N1        31.3860    2.9490  -15.6410 N.ar   61  DT61       -0.2559
   1233  C2        30.5420    2.9140  -16.7350 C.ar   61  DT61        0.3545
   1234  O2        30.3080    3.8900  -17.4250 O.2    61  DT61       -0.2443
   1235  N3        29.9780    1.6880  -16.9940 N.ar   61  DT61       -0.1533
   1236  C4        30.1680    0.5210  -16.2840 C.ar   61  DT61        0.2804
   1237  O4        29.5910   -0.5040  -16.6400 O.2    61  DT61       -0.2654
   1238  C5        31.0560    0.6390  -15.1630 C.ar   61  DT61        0.0534
   1239  C6        31.6190    1.8190  -14.8880 C.ar   61  DT61        0.0824
   1240  C7        31.3270   -0.5770  -14.3270 C.3    61  DT61        0.0377
   1241  P         29.2950    5.4790  -11.3190 P.3    62  DG62        0.2141
   1242  OP1       29.4130    6.6840  -10.4570 O.3    62  DG62       -0.4373
   1243  OP2       28.4120    4.3580  -10.8970 O.2    62  DG62       -0.5172
   1244  O5'       28.8220    5.9500  -12.7620 O.3    62  DG62       -0.3114
   1245  C5'       29.4460    7.0520  -13.4100 C.3    62  DG62        0.1811
   1246  C4'       28.6020    7.4980  -14.5720 C.3    62  DG62        0.1746
   1247  O4'       28.6960    6.5320  -15.6580 O.3    62  DG62       -0.3327
   1248  C3'       27.1230    7.5360  -14.2520 C.3    62  DG62        0.1558
   1249  O3'       26.7630    8.7140  -13.5470 O.3    62  DG62       -0.3138
   1250  C2'       26.5050    7.4280  -15.6380 C.3    62  DG62        0.0865
   1251  C1'       27.4250    6.3860  -16.2800 C.3    62  DG62        0.2094
   1252  N9        26.9960    4.9860  -16.0710 N.ar   62  DG62       -0.2713
   1253  C8        27.2600    4.1570  -15.0080 C.ar   62  DG62        0.1816
   1254  N7        26.6050    3.0290  -15.0600 N.ar   62  DG62       -0.2173
   1255  C5        25.8660    3.1150  -16.2250 C.ar   62  DG62        0.1748
   1256  C6        24.9610    2.1950  -16.8140 C.ar   62  DG62        0.3023
   1257  O6        24.6250    1.0780  -16.3990 O.2    62  DG62       -0.2633
   1258  N1        24.4240    2.6810  -18.0030 N.ar   62  DG62       -0.1709
   1259  C2        24.7240    3.9030  -18.5570 C.ar   62  DG62        0.2606
   1260  N2        24.1070    4.1960  -19.7100 N.pl3  62  DG62       -0.0859
   1261  N3        25.5620    4.7680  -18.0210 N.ar   62  DG62       -0.1918
   1262  C4        26.0940    4.3180  -16.8650 C.ar   62  DG62        0.1722
   1263  P         25.1840    8.8330  -12.5300 P.3    63  DG63        0.2141
   1264  OP1       24.8520   10.2150  -12.0630 O.2    63  DG63       -0.5172
   1265  OP2       25.1190    7.6900  -11.5900 O.3    63  DG63       -0.4373
   1266  O5'       24.2640    8.4850  -13.7930 O.3    63  DG63       -0.3114
   1267  C5'       23.6390    9.5450  -14.5160 C.3    63  DG63        0.1811
   1268  C4'       22.8580    9.0130  -15.6910 C.3    63  DG63        0.1744
   1269  O4'       23.4760    7.7740  -16.1250 O.3    63  DG63       -0.3348
   1270  C3'       21.4410    8.5660  -15.3880 C.3    63  DG63        0.1555
   1271  O3'       20.5430    9.6420  -15.2240 O.3    63  DG63       -0.3139
   1272  C2'       21.1750    7.7500  -16.6420 C.3    63  DG63        0.0836
   1273  C1'       22.4810    6.9280  -16.6820 C.3    63  DG63        0.1985
   1274  N9        22.4730    5.6410  -15.9890 N.pl3  63  DG63       -0.2313
   1275  C8        23.3180    5.3100  -14.9580 C.2    63  DG63        0.1680
   1276  N7        23.2720    4.0440  -14.6410 N.2    63  DG63       -0.2206
   1277  C5        22.3450    3.5050  -15.5140 C.2    63  DG63        0.1914
   1278  C6        21.8710    2.1760  -15.6520 C.ar   63  DG63        0.3385
   1279  O6        22.1950    1.1750  -15.0000 O.2    63  DG63       -0.3142
   1280  N1        20.9260    2.0630  -16.6680 N.ar   63  DG63       -0.0777
   1281  C2        20.4910    3.1030  -17.4540 C.2    63  DG63        0.4809
   1282  N2        19.5750    2.7980  -18.3830 N.pl3  63  DG63        0.1486
   1283  N3        20.9220    4.3430  -17.3370 N.2    63  DG63       -0.0673
   1284  C4        21.8400    4.4770  -16.3560 C.3    63  DG63        0.3072
   1285  P         19.5340    9.5510  -13.9550 P.3    64  DC64        0.2141
   1286  OP1       19.0430   10.9470  -13.9920 O.2    64  DC64       -0.5172
   1287  OP2       19.8790    8.9100  -12.6660 O.3    64  DC64       -0.4373
   1288  O5'       18.4150    8.5950  -14.5820 O.3    64  DC64       -0.3114
   1289  C5'       17.6410    9.0520  -15.6800 C.3    64  DC64        0.1811
   1290  C4'       16.7710    7.9510  -16.2290 C.3    64  DC64        0.1746
   1291  O4'       17.5970    6.8570  -16.7040 O.3    64  DC64       -0.3327
   1292  C3'       15.8220    7.2960  -15.2390 C.3    64  DC64        0.1558
   1293  O3'       14.6370    8.0480  -15.0430 O.3    64  DC64       -0.3138
   1294  C2'       15.5720    5.9350  -15.8740 C.3    64  DC64        0.0866
   1295  C1'       16.9260    5.6300  -16.5110 C.3    64  DC64        0.2106
   1296  N1        17.7480    4.7810  -15.7170 N.ar   64  DC64       -0.2556
   1297  C2        17.5230    3.4010  -15.7820 C.ar   64  DC64        0.3531
   1298  O2        16.7110    2.9660  -16.6160 O.2    64  DC64       -0.2443
   1299  N3        18.1940    2.5830  -14.9360 N.ar   64  DC64       -0.1739
   1300  C4        19.0560    3.0950  -14.0560 C.ar   64  DC64        0.1759
   1301  N4        19.6940    2.2500  -13.2430 N.pl3  64  DC64       -0.1070
   1302  C5        19.2980    4.4900  -13.9750 C.ar   64  DC64        0.0566
   1303  C6        18.6330    5.2940  -14.8120 C.ar   64  DC64        0.0849
   1304  P         13.6350    7.7880  -13.8030 P.3    65  DT65        0.2141
   1305  OP1       12.5290    8.7730  -13.7380 O.2    65  DT65       -0.5172
   1306  OP2       14.8220    7.9700  -12.9340 O.3    65  DT65       -0.4373
   1307  O5'       13.0230    6.3310  -13.5730 O.3    65  DT65       -0.3114
   1308  C5'       11.9050    5.8730  -14.3720 C.3    65  DT65        0.1811
   1309  C4'       11.7200    4.3700  -14.2530 C.3    65  DT65        0.1746
   1310  O4'       12.8770    3.6840  -14.7990 O.3    65  DT65       -0.3327
   1311  C3'       11.5570    3.7840  -12.8590 C.3    65  DT65        0.1558
   1312  O3'       10.2270    3.8280  -12.3820 O.3    65  DT65       -0.3138
   1313  C2'       11.9650    2.3390  -13.0700 C.3    65  DT65        0.0866
   1314  C1'       13.1110    2.4870  -14.0720 C.3    65  DT65        0.2106
   1315  N1        14.4370    2.5830  -13.3720 N.ar   65  DT65       -0.2559
   1316  C2        14.9980    1.3740  -13.0060 C.ar   65  DT65        0.3545
   1317  O2        14.5100    0.2980  -13.3010 O.2    65  DT65       -0.2443
   1318  N3        16.1580    1.4700  -12.2760 N.ar   65  DT65       -0.1533
   1319  C4        16.7990    2.6270  -11.8840 C.ar   65  DT65        0.2804
   1320  O4        17.8370    2.5520  -11.2300 O.2    65  DT65       -0.2654
   1321  C5        16.1540    3.8400  -12.3020 C.ar   65  DT65        0.0534
   1322  C6        15.0250    3.7760  -13.0120 C.ar   65  DT65        0.0824
   1323  C7        16.7740    5.1530  -11.9240 C.3    65  DT65        0.0377
   1324  P          9.9320    3.8100  -10.7410 P.3    66  DC66        0.2141
   1325  OP1        8.5700    4.4450  -10.6530 O.2    66  DC66       -0.5172
   1326  OP2       11.1040    4.7000  -10.4060 O.3    66  DC66       -0.4373
   1327  O5'       10.1240    2.4790   -9.8330 O.3    66  DC66       -0.3114
   1328  C5'        9.3340    1.3940  -10.4340 C.3    66  DC66        0.1812
   1329  C4'       10.1220    0.1280  -10.1620 C.3    66  DC66        0.1775
   1330  O4'       11.4060    0.1850  -10.7520 O.3    66  DC66       -0.3326
   1331  C3'       10.4000   -0.1210   -8.6860 C.3    66  DC66        0.1864
   1332  O3'        9.2480   -0.5690   -7.9930 O.3    66  DC66       -0.2133
   1333  C2'       11.5310   -1.1280   -8.7730 C.3    66  DC66        0.0895
   1334  C1'       12.3040   -0.5900   -9.9740 C.3    66  DC66        0.2107
   1335  N1        13.4330    0.1300   -9.5920 N.ar   66  DC66       -0.2556
   1336  C2        14.5300   -0.4380   -8.9340 C.ar   66  DC66        0.3531
   1337  O2        14.5210   -1.6590   -8.7030 O.2    66  DC66       -0.2443
   1338  N3        15.5640    0.3570   -8.5690 N.ar   66  DC66       -0.1739
   1339  C4        15.5290    1.6630   -8.8370 C.ar   66  DC66        0.1759
   1340  N4        16.5710    2.4060   -8.4580 N.pl3  66  DC66       -0.1070
   1341  C5        14.4270    2.2580   -9.5030 C.ar   66  DC66        0.0566
   1342  C6        13.4080    1.4700   -9.8620 C.ar   66  DC66        0.0849
   1343  P          9.2540   -0.5750   -6.3570 P.3    67  DC67        0.3939
   1344  OP1        8.2210   -1.3820   -7.0640 O.3    67  DC67       -0.1496
   1345  OP2        8.8320    0.4080   -5.3290 O.3    67  DC67       -0.1425
   1346  O5'       10.3180   -1.5650   -5.7030 O.3    67  DC67       -0.2926
   1347  C5'       10.3640   -2.9640   -6.0740 C.3    67  DC67        0.1828
   1348  C4'       11.4800   -3.6750   -5.3430 C.3    67  DC67        0.1747
   1349  O4'       12.7600   -3.3620   -5.9480 O.3    67  DC67       -0.3327
   1350  C3'       11.6340   -3.3110   -3.8800 C.3    67  DC67        0.1558
   1351  O3'       10.7780   -4.0750   -3.0740 O.3    67  DC67       -0.3138
   1352  C2'       13.0900   -3.6310   -3.6060 C.3    67  DC67        0.0866
   1353  C1'       13.7490   -3.2550   -4.9390 C.3    67  DC67        0.2106
   1354  N1        14.3260   -1.9030   -4.9040 N.ar   67  DC67       -0.2556
   1355  C2        15.5980   -1.7330   -4.3450 C.ar   67  DC67        0.3531
   1356  O2        16.1680   -2.7190   -3.8460 O.2    67  DC67       -0.2443
   1357  N3        16.1680   -0.5050   -4.3620 N.ar   67  DC67       -0.1739
   1358  C4        15.5180    0.5240   -4.9080 C.ar   67  DC67        0.1759
   1359  N4        16.1190    1.7160   -4.9030 N.pl3  67  DC67       -0.1070
   1360  C5        14.2290    0.3730   -5.4800 C.ar   67  DC67        0.0566
   1361  C6        13.6700   -0.8420   -5.4600 C.ar   67  DC67        0.0849
   1362  P         10.2640   -3.4020   -2.0100 P.3    68  DC68        0.2141
   1363  OP1        9.1840   -4.2090   -1.4260 O.3    68  DC68       -0.4373
   1364  OP2        9.9770   -1.9390   -2.2790 O.2    68  DC68       -0.5172
   1365  O5'       11.6220   -3.6150   -1.1710 O.3    68  DC68       -0.3114
   1366  C5'       12.1860   -4.9210   -1.0200 C.3    68  DC68        0.1811
   1367  C4'       13.4890   -4.8840   -0.1840 C.3    68  DC68        0.1746
   1368  O4'       14.5310   -4.3000   -0.9720 O.3    68  DC68       -0.3327
   1369  C3'       13.4820   -4.0120    1.0630 C.3    68  DC68        0.1558
   1370  O3'       12.9080   -4.6340    2.1820 O.3    68  DC68       -0.3138
   1371  C2'       14.9690   -3.7400    1.2950 C.3    68  DC68        0.0866
   1372  C1'       15.3900   -3.4960   -0.1390 C.3    68  DC68        0.2106
   1373  N1        15.2300   -2.0710   -0.5260 N.ar   68  DC68       -0.2556
   1374  C2        16.2260   -1.1560   -0.1620 C.ar   68  DC68        0.3531
   1375  O2        17.2280   -1.5730    0.4440 O.2    68  DC68       -0.2443
   1376  N3        16.0670    0.1510   -0.4770 N.ar   68  DC68       -0.1739
   1377  C4        14.9750    0.5540   -1.1270 C.ar   68  DC68        0.1759
   1378  N4        14.8620    1.8520   -1.4160 N.pl3  68  DC68       -0.1070
   1379  C5        13.9550   -0.3570   -1.5050 C.ar   68  DC68        0.0566
   1380  C6        14.1150   -1.6470   -1.1920 C.ar   68  DC68        0.0849
   1381  P         12.3310   -3.8180    2.9940 P.3    69  DG69        0.2141
   1382  OP1       11.8460   -4.6860    4.0920 O.3    69  DG69       -0.4373
   1383  OP2       11.4080   -2.9920    2.1850 O.2    69  DG69       -0.5172
   1384  O5'       13.3870   -2.7660    3.5710 O.3    69  DG69       -0.3114
   1385  C5'       14.6000   -3.2520    4.1200 C.3    69  DG69        0.1811
   1386  C4'       15.5120   -2.1310    4.5410 C.3    69  DG69        0.1746
   1387  O4'       15.9610   -1.3930    3.3780 O.3    69  DG69       -0.3327
   1388  C3'       14.9000   -1.0760    5.4520 C.3    69  DG69        0.1558
   1389  O3'       14.8660   -1.4840    6.8110 O.3    69  DG69       -0.3138
   1390  C2'       15.7800    0.1420    5.2110 C.3    69  DG69        0.0865
   1391  C1'       16.2570   -0.0690    3.7700 C.3    69  DG69        0.2094
   1392  N9        16.0920    0.9140    2.8830 N.ar   69  DG69       -0.2713
   1393  C8        14.9730    0.9540    2.0870 C.ar   69  DG69        0.1816
   1394  N7        14.7900    2.1120    1.5130 N.ar   69  DG69       -0.2173
   1395  C5        15.8500    2.8840    1.9520 C.ar   69  DG69        0.1748
   1396  C6        16.1890    4.2320    1.6700 C.ar   69  DG69        0.3023
   1397  O6        15.5900    5.0370    0.9450 O.2    69  DG69       -0.2633
   1398  N1        17.3510    4.6250    2.3280 N.ar   69  DG69       -0.1709
   1399  C2        18.0950    3.8180    3.1550 C.ar   69  DG69        0.2606
   1400  N2        19.1860    4.3750    3.6980 N.pl3  69  DG69       -0.0859
   1401  N3        17.7930    2.5640    3.4270 N.ar   69  DG69       -0.1918
   1402  C4        16.6670    2.1610    2.8000 C.ar   69  DG69        0.1722
   1403  P         13.6670   -1.0630    7.7420 P.3    70  DT70        0.2141
   1404  OP1       13.6300   -2.0410    8.8520 O.3    70  DT70       -0.4373
   1405  OP2       12.4770   -0.8190    6.8900 O.2    70  DT70       -0.5172
   1406  O5'       13.9950    0.3730    8.3580 O.3    70  DT70       -0.3114
   1407  C5'       15.2810    0.6600    8.8830 C.3    70  DT70        0.1811
   1408  C4'       15.4440    2.1450    9.0610 C.3    70  DT70        0.1746
   1409  O4'       15.8410    2.7530    7.8110 O.3    70  DT70       -0.3327
   1410  C3'       14.1700    2.8730    9.4430 C.3    70  DT70        0.1558
   1411  O3'       13.9420    2.8140   10.8360 O.3    70  DT70       -0.3138
   1412  C2'       14.3890    4.2850    8.9180 C.3    70  DT70        0.0866
   1413  C1'       15.2750    4.0390    7.7010 C.3    70  DT70        0.2106
   1414  N1        14.6880    4.1550    6.4160 N.ar   70  DT70       -0.2559
   1415  C2        14.7050    5.3990    5.8150 C.ar   70  DT70        0.3545
   1416  O2        15.3120    6.3510    6.2740 O.2    70  DT70       -0.2443
   1417  N3        13.9830    5.4920    4.6500 N.ar   70  DT70       -0.1533
   1418  C4        13.2600    4.4880    4.0400 C.ar   70  DT70        0.2804
   1419  O4        12.6620    4.7230    2.9930 O.2    70  DT70       -0.2654
   1420  C5        13.2900    3.2260    4.7260 C.ar   70  DT70        0.0534
   1421  C6        13.9850    3.1090    5.8600 C.ar   70  DT70        0.0824
   1422  C7        12.5330    2.0700    4.1420 C.3    70  DT70        0.0377
   1423  P         12.6150    3.6200   11.5100 P.3    71  DA71        0.2141
   1424  OP1       11.8830    3.4570   12.7870 O.3    71  DA71       -0.4373
   1425  OP2       11.8660    3.6040   10.2330 O.2    71  DA71       -0.5172
   1426  O5'       13.4500    4.9870   11.5760 O.3    71  DA71       -0.3115
   1427  C5'       13.0590    6.0140   12.4890 C.3    71  DA71        0.1785
   1428  C4'       13.3210    7.4050   11.9320 C.3    71  DA71        0.1473
   1429  O4'       14.0050    7.3180   10.6580 O.3    71  DA71       -0.3353
   1430  C3'       12.0780    8.2340   11.6470 C.3    71  DA71        0.0368
   1431  O3'       11.6290    8.8910   12.8240 O.3    71  DA71       -0.1670
   1432  C2'       12.6170    9.2350   10.6300 C.3    71  DA71        0.0566
   1433  C1'       13.5660    8.3690    9.8090 C.3    71  DA71        0.2069
   1434  N9        12.9300    7.8180    8.6720 N.ar   71  DA71       -0.2715
   1435  C8        12.6370    6.4950    8.4720 C.ar   71  DA71        0.1815
   1436  N7        12.0720    6.2470    7.3140 N.ar   71  DA71       -0.2193
   1437  C5        11.9880    7.4940    6.7130 C.ar   71  DA71        0.1518
   1438  C6        11.4850    7.9120    5.4690 C.ar   71  DA71        0.1919
   1439  N6        10.9510    7.0810    4.5700 N.pl3  71  DA71       -0.1054
   1440  N1        11.5510    9.2280    5.1770 N.ar   71  DA71       -0.2040
   1441  C2        12.0870   10.0600    6.0780 C.ar   71  DA71        0.2016
   1442  N3        12.5920    9.7860    7.2780 N.ar   71  DA71       -0.2048
   1443  C4        12.5110    8.4710    7.5380 C.ar   71  DA71        0.1691
   1444  P         10.6410    8.6810   11.9760 P.3    72  DT72        0.1980
   1445  OP1       11.4650    9.1620   13.1180 O.3    72  DT72       -0.0310
   1446  OP2        9.3630    7.9650   12.2400 O.3    72  DT72        0.0000
   1447  O5'       10.3200    9.9020   11.0020 O.3    72  DT72       -0.2176
   1448  C5'        9.6950   11.0710   11.5090 C.3    72  DT72        0.2140
   1449  C4'        9.8720   12.2310   10.5590 C.3    72  DT72        0.1783
   1450  O4'        8.9100   12.1250    9.4710 O.3    72  DT72       -0.3509
   1451  C3'        9.5490   13.5610   11.2190 C.3    72  DT72        0.1840
   1452  O3'       10.6720   14.0710   11.9210 O.3    72  DT72       -0.2204
   1453  C2'        9.0860   14.4210   10.0520 C.3    72  DT72        0.0676
   1454  C1'        8.3230   13.3940    9.2140 C.3    72  DT72        0.1450
   1455  N1         9.2160   10.1520    8.0500 N.2    72  DT72       -0.1608
   1456  C2         8.5790    9.9600    6.8380 C.1    72  DT72        0.2395
   1457  O2         8.4600   10.8400    6.0040 O.2    72  DT72       -0.2041
   1458  N3         8.0810    8.6950    6.6370 N.am   72  DT72       -0.0881
   1459  C4         8.1550    7.6270    7.5060 C.2    72  DT72        0.2768
   1460  O4         7.6610    6.5490    7.1840 O.2    72  DT72       -0.2676
   1461  C5         8.8310    7.9060    8.7420 C.2    72  DT72        0.0541
   1462  C6         9.3240    9.1270    8.9640 C.2    72  DT72        0.1126
   1463  C7         8.9630    6.8070    9.7550 C.3    72  DT72        0.0376
@<TRIPOS>BOND
     1  1031  1030    2
     2  1010  1009    2
     3  1116  1115    2
     4  1119  1120    1
     5  1119  1118    1
     6  1032  1030    1
     7  1030  1017    1
     8  1030  1033    1
     9  1053  1052    2
    10  1117  1115    1
    11  1111  1110    2
    12  1138  1137    2
    13   989   988    2
    14  1009  1011    1
    15  1009  1012    1
    16  1009   996    1
    17  1115  1118    1
    18  1115  1103    1
    19  1120  1121    1
    20  1120  1122    1
    21  1012  1013    1
    22   996   995    1
    23  1013  1014    1
    24  1114  1112    1
    25  1097  1095    2
    26  1110  1112   ar
    27  1110  1109   ar
    28  1123  1122    1
    29  1123  1137    1
    30  1017  1016    1
    31   992   991    1
    32   992   993    1
    33  1075  1073    2
    34  1121  1125    1
    35  1052  1055    1
    36  1052  1038    1
    37  1112  1113   ar
    38  1109  1107   ar
    39  1089  1088    2
    40   991   988    1
    41  1033  1034    1
    42  1122  1124    1
    43   988   976    1
    44   988   990    1
    45  1137  1140    1
    46  1137  1139    1
    47  1055  1056    1
    48  1034  1035    1
    49  1096  1095    1
    50  1038  1054    1
    51  1016  1014    1
    52  1016  1018    1
    53  1074  1073    1
    54   993   995    1
    55   993   994    1
    56  1014  1015    1
    57  1095  1098    1
    58  1095  1081    1
    59   995   997    1
    60  1103  1102    1
    61  1140  1141    1
    62  1113  1106   ar
    63  1107  1106   ar
    64  1107  1108    2
    65  1088  1087   ar
    66  1088  1090   ar
    67  1102  1104    1
    68  1102  1100    1
    69   976   975    1
    70  1073  1076    1
    71  1073  1060    1
    72  1098  1099    1
    73  1086  1087   ar
    74  1086  1085   ar
    75  1104  1105    1
    76  1054  1037    1
    77  1125  1124    1
    78  1125  1126    1
    79  1106  1105    1
    80  1037  1035    1
    81  1037  1039    1
    82  1076  1077    1
    83  1087  1094   ar
    84  1056  1057    1
    85  1090  1091   ar
    86  1035  1036    1
    87  1085  1084   ar
    88  1081  1080    1
    89   997   998    1
    90  1015  1019    1
    91  1141  1142    1
    92   969   968    2
    93  1080  1082    1
    94  1080  1078    1
    95  1099  1100    1
    96   994   998    1
    97  1127  1126   ar
    98  1127  1128   ar
    99  1018  1019    1
   100  1105  1101    1
   101  1126  1136   ar
   102  1100  1101    1
   103  1094  1084   ar
   104  1094  1093   ar
   105  1060  1059    1
   106   975   973    1
   107   975   977    1
   108  1065  1064   ar
   109  1065  1066   ar
   110  1077  1078    1
   111  1059  1057    1
   112  1059  1061    1
   113  1084  1083    1
   114  1091  1093   ar
   115  1091  1092    1
   116  1042  1043   ar
   117  1042  1041   ar
   118  1064  1063   ar
   119  1043  1044   ar
   120  1039  1040    1
   121  1021  1022   ar
   122  1021  1020   ar
   123  1057  1058    1
   124  1082  1083    1
   125   973   972    1
   126   973   974    1
   127   972   971    1
   128  1036  1040    1
   129  1019  1020    1
   130   998   999    1
   131  1142  1143    1
   132  1142  1144    1
   133  1078  1079    1
   134  1068  1067    1
   135   977   978    1
   136  1128  1129   ar
   137  1022  1023   ar
   138  1020  1029   ar
   139  1143  1147    1
   140  1058  1062    1
   141  1066  1067   ar
   142  1066  1072   ar
   143  1083  1079    1
   144   968   971    1
   145   968   970    1
   146   968   955    1
   147  1041  1040    1
   148  1041  1051   ar
   149  1175  1174    2
   150  1044  1051   ar
   151  1044  1045   ar
   152  1136  1129   ar
   153  1136  1135   ar
   154  1063  1062    1
   155  1063  1072   ar
   156  1067  1069   ar
   157  1046  1045    2
   158   999  1000   ar
   159   999  1008   ar
   160  1061  1062    1
   161  1178  1176    1
   162  1000  1001   ar
   163  1051  1050   ar
   164  1045  1047   ar
   165  1072  1071   ar
   166   974   978    1
   167  1129  1130   ar
   168  1023  1029   ar
   169  1023  1024   ar
   170  1135  1133   ar
   171  1174  1176   ar
   172  1174  1173   ar
   173  1029  1028   ar
   174  1149  1150   ar
   175  1149  1148   ar
   176  1145  1144    1
   177  1145  1159    1
   178  1144  1146    1
   179   955   954    1
   180   978   979    1
   181  1176  1177   ar
   182  1147  1148    1
   183  1147  1146    1
   184  1069  1070   ar
   185  1161  1159    2
   186  1150  1151   ar
   187  1173  1171   ar
   188  1195  1194    2
   189  1008  1007   ar
   190  1008  1002   ar
   191  1050  1048   ar
   192  1001  1002   ar
   193  1047  1048   ar
   194  1047  1196   ar
   195  1028  1027   ar
   196  1148  1158   ar
   197  1024  1025    1
   198  1024  1026   ar
   199  1007  1006   ar
   200  1071  1070   ar
   201  1177  1170   ar
   202  1048  1049   ar
   203   979   986   ar
   204   979   980   ar
   205  1133  1132   ar
   206  1133  1134    1
   207  1002  1003   ar
   208  1130  1132   ar
   209  1130  1131    2
   210  1159  1162    1
   211  1159  1160    1
   212  1171  1170   ar
   213  1171  1172    2
   214  1194  1196   ar
   215  1194  1193   ar
   216   954   956    1
   217   954   952    1
   218   986   985   ar
   219  1027  1026   ar
   220  1170  1169    1
   221  1196  1197   ar
   222   981   980    2
   223  1151  1158   ar
   224  1151  1152   ar
   225   956   957    1
   226   980   982   ar
   227  1006  1005   ar
   228  1260  1259    1
   229  1158  1157   ar
   230  1162  1163    1
   231  1049  1198   ar
   232  1165  1169    1
   233  1165  1164    1
   234  1193  1192   ar
   235  1193  1200   ar
   236  1192  1191   ar
   237   985   987    1
   238   985   983   ar
   239  1003  1005   ar
   240  1003  1004    1
   241   952   951    1
   242   952   953    1
   243  1169  1168    1
   244  1197  1198   ar
   245  1197  1199   ar
   246  1163  1164    1
   247   982   983   ar
   248   951   950    1
   249  1152  1153    2
   250  1152  1154   ar
   251  1259  1261   ar
   252  1259  1258   ar
   253  1200  1199   ar
   254  1200  1190   ar
   255  1157  1155   ar
   256  1191  1190   ar
   257  1217  1216    2
   258   983   984    2
   259  1164  1166    1
   260  1282  1281    1
   261   957   953    1
   262   957   958    1
   263   948   947    2
   264   966   965    2
   265   966   967    1
   266  1215  1216   ar
   267  1215  1213   ar
   268  1261  1262   ar
   269  1258  1256   ar
   270  1190  1189    1
   271   965   964    1
   272   950   947    1
   273  1216  1218   ar
   274  1214  1213    2
   275  1168  1166    1
   276  1154  1155   ar
   277   967   958    1
   278   967   961    1
   279   958   959    1
   280  1155  1156    1
   281  1166  1167    1
   282  1281  1283    2
   283  1281  1280    1
   284  1234  1233    2
   285  1213  1212   ar
   286  1283  1284    1
   287   964   962   ar
   288   964  1280   ar
   289   947   949    1
   290   947   934    1
   291  1235  1233   ar
   292  1235  1236   ar
   293  1262  1255   ar
   294  1262  1252   ar
   295   961   962    2
   296   961   960    1
   297  1189  1185    1
   298  1189  1188    1
   299   959   960    2
   300  1256  1257    2
   301  1256  1255   ar
   302  1218  1220    1
   303  1218  1219   ar
   304   962   963   ar
   305  1233  1232   ar
   306  1291  1295    1
   307  1291  1290    1
   308  1273  1272    1
   309  1273  1269    1
   310  1273  1274    1
   311  1280  1278   ar
   312  1272  1270    1
   313  1237  1236    2
   314  1298  1297    2
   315  1295  1294    1
   316  1295  1296    1
   317  1212  1219   ar
   318  1212  1211    1
   319  1284  1274    1
   320  1284  1277    1
   321  1185  1184    1
   322  1236  1238   ar
   323  1251  1252    1
   324  1251  1247    1
   325  1251  1250    1
   326  1290  1289    1
   327  1290  1292    1
   328  1255  1254   ar
   329   963  1279   ar
   330  1269  1268    1
   331  1167  1179    1
   332  1252  1253   ar
   333  1274  1275    1
   334  1181  1179    2
   335  1294  1292    1
   336  1297  1296   ar
   337  1297  1299   ar
   338  1211  1207    1
   339  1211  1210    1
   340   934   933    1
   341  1296  1303   ar
   342  1268  1270    1
   343  1268  1267    1
   344  1289  1288    1
   345  1188  1186    1
   346  1247  1246    1
   347  1278  1277    2
   348  1278  1279   ar
   349  1232  1231    1
   350  1232  1239   ar
   351  1250  1248    1
   352  1277  1276    1
   353  1270  1271    1
   354  1231  1230    1
   355  1231  1227    1
   356  1292  1293    1
   357  1271  1285    1
   358  1238  1239   ar
   359  1238  1240    1
   360  1179  1182    1
   361  1179  1180    1
   362  1254  1253   ar
   363  1293  1304    1
   364  1207  1206    1
   365  1275  1276    2
   366  1182  1183    1
   367  1299  1300   ar
   368  1184  1186    1
   369  1184  1183    1
   370   935   933    1
   371   935   936    1
   372   933   931    1
   373  1303  1302   ar
   374  1310  1309    1
   375  1310  1314    1
   376  1230  1228    1
   377  1210  1208    1
   378  1186  1187    1
   379  1288  1285    1
   380  1246  1248    1
   381  1246  1245    1
   382  1267  1266    1
   383  1227  1226    1
   384   944   945   ar
   385   944   943   ar
   386  1308  1309    1
   387  1308  1307    1
   388   945   946   ar
   389  1309  1311    1
   390  1248  1249    1
   391   943   941   ar
   392  1314  1315    1
   393  1314  1313    1
   394  1300  1302   ar
   395  1300  1301    1
   396  1286  1285    2
   397  1285  1287    1
   398  1304  1305    2
   399  1304  1307    1
   400  1304  1306    1
   401  1266  1263    1
   402   946   937   ar
   403   946   940   ar
   404  1206  1208    1
   405  1206  1205    1
   406   941   940   ar
   407   941   942    1
   408  1249  1263    1
   409   936   937    1
   410   936   932    1
   411  1208  1209    1
   412   937   938   ar
   413  1245  1244    1
   414   931   930    1
   415   931   932    1
   416  1315  1322   ar
   417  1315  1316   ar
   418  1204  1205    1
   419  1204  1201    1
   420   940   939   ar
   421  1187  1201    1
   422  1317  1316    2
   423  1228  1226    1
   424  1228  1229    1
   425  1226  1225    1
   426  1313  1311    1
   427  1322  1321   ar
   428  1316  1318   ar
   429   938   939   ar
   430  1311  1312    1
   431   929   930    1
   432   929   926    1
   433  1203  1201    2
   434  1244  1241    1
   435   927   926    2
   436  1201  1202    1
   437  1263  1264    2
   438  1263  1265    1
   439  1312  1324    1
   440  1229  1241    1
   441   928   926    1
   442  1321  1323    1
   443  1321  1319   ar
   444  1209  1221    1
   445  1318  1319   ar
   446   926   913    1
   447  1225  1224    1
   448  1224  1221    1
   449  1319  1320    2
   450  1223  1221    2
   451  1221  1222    1
   452  1241  1243    2
   453  1241  1242    1
   454   913   912    1
   455   923   922   ar
   456   923   924   ar
   457   922   920   ar
   458  1330  1329    1
   459  1330  1334    1
   460  1324  1325    2
   461  1324  1326    1
   462  1324  1327    1
   463  1328  1329    1
   464  1328  1327    1
   465   924   925   ar
   466   920   921    1
   467   920   919   ar
   468  1329  1331    1
   469   912   914    1
   470   912   910    1
   471   914   915    1
   472  1334  1335    1
   473  1334  1333    1
   474   925   919   ar
   475   925   916   ar
   476  1342  1335   ar
   477  1342  1341   ar
   478   919   918   ar
   479  1335  1336   ar
   480  1341  1339   ar
   481   916   915    1
   482   916   917   ar
   483   918   917   ar
   484   915   911    1
   485  1336  1337    2
   486  1336  1338   ar
   487  1339  1338   ar
   488  1339  1340    1
   489  1333  1331    1
   490   910   909    1
   491   910   911    1
   492  1331  1332    1
   493   909   908    1
   494   906   905    2
   495  1332  1344    1
   496   908   905    1
   497   905   907    1
   498   905   891    1
   499  1344  1343    1
   500   899   898    2
   501   902   901    1
   502   900   898   ar
   503   900   901   ar
   504   898   897   ar
   505   901   903   ar
   506  1343  1346    1
   507  1343  1345    1
   508  1347  1346    1
   509  1347  1348    1
   510  1349  1348    1
   511  1349  1353    1
   512   903   904   ar
   513   897   904   ar
   514   897   896   ar
   515   891   890    1
   516   904   894   ar
   517  1360  1361   ar
   518  1360  1358   ar
   519  1361  1354   ar
   520  1348  1350    1
   521   896   895   ar
   522   890   892    1
   523   890   888    1
   524   892   893    1
   525  1353  1354    1
   526  1353  1352    1
   527     2     1    1
   528     2     3    1
   529  1358  1359    1
   530  1358  1357   ar
   531  1354  1355   ar
   532   894   895   ar
   533   894   893    1
   534   765   764    2
   535  1357  1355   ar
   536    20    19    2
   537  1355  1356    2
   538   744   743    2
   539   784   783    2
   540   893   889    1
   541     3     4    1
   542     3     5    1
   543  1350  1352    1
   544  1350  1351    1
   545   558   557    2
   546   888   887    1
   547   888   889    1
   548     6    19    1
   549     6     5    1
   550   877   876    2
   551   766   764    1
   552   538   537    2
   553   764   751    1
   554   764   767    1
   555   885   883    2
   556   887   886    1
   557    19    21    1
   558    19    22    1
   559   785   783    1
   560     4     8    1
   561  1351  1362    1
   562   783   786    1
   563   783   772    1
   564   805   803    2
   565     5     7    1
   566   751   750    1
   567   747   746    1
   568   747   748    1
   569   876   878   ar
   570   876   875   ar
   571   886   883    1
   572   541   542    1
   573   541   540    1
   574   878   879   ar
   575   743   746    1
   576   743   745    1
   577   743   732    1
   578   545   557    1
   579   545   544    1
   580   557   559    1
   581   557   560    1
   582   883   884    1
   583   883   869    1
   584  1364  1362    2
   585   561   560    1
   586   561   562    1
   587   875   874   ar
   588   875   882   ar
   589   537   523    1
   590   537   540    1
   591   537   539    1
   592   542   544    1
   593   542   543    1
   594   523   522    1
   595   748   750    1
   596   748   749    1
   597   767   768    1
   598    23    22    1
   599    23    24    1
   600  1362  1363    1
   601  1362  1365    1
   602   880   879    1
   603   879   881   ar
   604   874   873   ar
   605   578   577    1
   606   750   752    1
   607     7     8    1
   608     8     9    1
   609   768   769    1
   610   786   787    1
   611   803   804    1
   612   803   806    1
   613   803   791    1
   614   825   823    2
   615   732   731    1
   616   772   771    1
   617   544   546    1
   618  1379  1380   ar
   619  1379  1377   ar
   620  1378  1377    1
   621   882   881   ar
   622   882   872   ar
   623   520   519    1
   624   520   522    1
   625   520   521    1
   626   562   563    1
   627   562   564    1
   628  1380  1373   ar
   629  1365  1366    1
   630   858   857    1
   631  1377  1376   ar
   632   802   800    1
   633   873   872   ar
   634  1366  1367    1
   635   519   518    1
   636   787   788    1
   637   522   524    1
   638  1368  1367    1
   639  1368  1372    1
   640   577   579    2
   641   806   807    1
   642   524   525    1
   643   565   564    1
   644   565   580    1
   645     9    10   ar
   646     9    18   ar
   647   543   547    1
   648   771   769    1
   649   771   773    1
   650   869   868    1
   651    24    25    1
   652    24    26    1
   653   863   861    2
   654    10    11   ar
   655   870   868    1
   656   870   871    1
   657   749   753    1
   658   791   790    1
   659   769   770    1
   660   872   871    1
   661   546   547    1
   662   868   866    1
   663   752   753    1
   664  1373  1374   ar
   665  1373  1372    1
   666   516   515    2
   667  1376  1374   ar
   668   822   820    1
   669   823   824    1
   670   823   826    1
   671   823   811    1
   672   731   729    1
   673   731   733    1
   674   563   567    1
   675   844   842    2
   676   521   525    1
   677    40    39    2
   678    25    29    1
   679   857   859   ar
   680   857   856   ar
   681   564   566    1
   682  1367  1369    1
   683  1374  1375    2
   684  1372  1371    1
   685   859   860   ar
   686   790   788    1
   687   790   792    1
   688   810   812    1
   689   810   811    1
   690   810   808    1
   691   525   526    1
   692   729   728    1
   693   729   730    1
   694   788   789    1
   695   518   515    1
   696   547   548    1
   697    41    39    1
   698   839   838    1
   699   812   813    1
   700   871   867    1
   701   800   801   ar
   702   800   798   ar
   703   753   754    1
   704   580   581    1
   705    27    39    1
   706    27    26    1
   707   807   808    1
   708   856   854   ar
   709    39    42    1
   710   826   827    1
   711    38    36    1
   712   728   727    1
   713   840   838   ar
   714   840   841   ar
   715   782   781   ar
   716   782   775   ar
   717   801   794   ar
   718   781   779   ar
   719    26    28    1
   720   864   861    1
   721   864   865    1
   722    18    17   ar
   723    18    12   ar
   724   861   862    1
   725   861   850    1
   726   755   754   ar
   727   755   756   ar
   728    11    12   ar
   729   515   503    1
   730   515   517    1
   731   770   774    1
   732   773   774    1
   733   733   734    1
   734   820   821   ar
   735   820   818   ar
   736   860   853   ar
   737   503   502    1
   738   838   837   ar
   739    17    16   ar
   740    37    36   ar
   741    37    30   ar
   742   566   567    1
   743   808   809    1
   744   754   763   ar
   745   866   867    1
   746   866   865    1
   747  1397  1396    2
   748   567   568    1
   749   821   814   ar
   750   842   843    1
   751   842   831    1
   752   842   845    1
   753  1369  1371    1
   754  1369  1370    1
   755   730   734    1
   756   799   798    1
   757   799   780    1
   758    29    28    1
   759    29    30    1
   760   841   834   ar
   761   798   797   ar
   762   854   853   ar
   763   854   855    2
   764   789   793    1
   765   756   757   ar
   766    12    13   ar
   767   827   828    1
   768    36    34   ar
   769   734   735    1
   770   792   793    1
   771   548   555   ar
   772   548   549   ar
   773   774   775    1
   774   819   818    2
   775   775   776   ar
   776   725   724    2
   777   853   852    1
   778   526   536   ar
   779   526   527   ar
   780   555   554   ar
   781   581   582    1
   782  1394  1395   ar
   783  1394  1393   ar
   784   575   568   ar
   785   575   574   ar
   786   204   205    1
   787   204   203    1
   788   204   206    1
   789   779   780    1
   790   779   778   ar
   791   818   817   ar
   792   794   793    1
   793   794   795   ar
   794   813   809    1
   795   813   814    1
   796   727   724    1
   797  1396  1395   ar
   798  1396  1398   ar
   799    30    31   ar
   800   207   206    1
   801   207   218    1
   802   849   850    1
   803   849   851    1
   804   849   847    1
   805   535   536   ar
   806   535   533   ar
   807   504   502    1
   808   504   505    1
   809   205   209    1
   810   576   574    1
   811   830   831    1
   812   830   828    1
   813   830   832    1
   814   837   835   ar
   815   219   218    2
   816   737   736    2
   817   846   845    1
   818   846   847    1
   819    42    43    1
   820   208   206    1
   821   208   209    1
   822  1395  1402   ar
   823   568   569   ar
   824   502   500    1
   825   814   815   ar
   826   203   202    1
   827   763   757   ar
   828   763   762   ar
   829  1393  1392   ar
   830   222   223    1
   831   222   221    1
   832    16    15   ar
   833  1370  1381    1
   834  1383  1381    2
   835   209   210    1
   836   536   529   ar
   837   834   835   ar
   838   834   833    1
   839   757   758   ar
   840   828   829    1
   841   527   528   ar
   842  1398  1399   ar
   843   574   572   ar
   844   550   549    2
   845   724   713    1
   846   724   726    1
   847   500   499    1
   848   500   501    1
   849   852   851    1
   850   852   848    1
   851   797   795   ar
   852   549   551   ar
   853   534   533    1
   854    43    44    1
   855   848   847    1
   856   776   778   ar
   857   776   777    2
   858   582   583    1
   859   582   584    1
   860   829   833    1
   861   817   815   ar
   862   835   836    2
   863   735   736   ar
   864   735   742   ar
   865   554   556    1
   866   554   552   ar
   867   223   224    1
   868   223   225    1
   869    13    15   ar
   870    13    14    1
   871   795   796    2
   872    34    35    2
   873    34    33   ar
   874   533   532   ar
   875   736   738   ar
   876  1402  1392   ar
   877  1402  1401   ar
   878   583   587    1
   879   218   221    1
   880   218   220    1
   881   762   761   ar
   882  1392  1391    1
   883   815   816    2
   884   832   833    1
   885   505   501    1
   886   505   506    1
   887   713   712    1
   888  1419  1418    2
   889  1381  1384    1
   890  1381  1382    1
   891   499   498    1
   892    31    33   ar
   893    31    32    2
   894   224   228    1
   895   212   211    2
   896  1399  1401   ar
   897  1399  1400    1
   898   508   507    2
   899   569   570    2
   900   569   571   ar
   901   714   712    1
   902   714   715    1
   903  1387  1391    1
   904  1387  1386    1
   905   758   759    1
   906   758   760   ar
   907   529   528   ar
   908   529   530   ar
   909   202   199    1
   910   742   741   ar
   911  1384  1385    1
   912   226   225    1
   913   226   237    1
   914   210   211   ar
   915   210   217   ar
   916   551   552   ar
   917   197   196   ar
   918   197   198   ar
   919   238   237    2
   920   738   739   ar
   921   572   571   ar
   922   572   573    2
   923   718   717    2
   924  1391  1390    1
   925   187   188    1
   926   187   185    1
   927   600   599    2
   928   552   553    2
   929   196   195   ar
   930   584   585    1
   931   584   586    1
   932   585   599    1
   933   225   227    1
   934   761   760   ar
   935    44    45    1
   936    44    46    1
   937   186   199    1
   938   186   185    1
   939   712   710    1
   940   211   213   ar
   941   532   530   ar
   942   228   227    1
   943   228   229    1
   944    56    57   ar
   945    56    54   ar
   946  1418  1417   ar
   947  1418  1420   ar
   948   200   199    2
   949    45    49    1
   950   589   588   ar
   951   589   590   ar
   952  1385  1386    1
   953   506   507   ar
   954   506   513   ar
   955  1422  1420    1
   956   507   509   ar
   957    57    50   ar
   958   188   184    1
   959   188   189    1
   960   587   588    1
   961   587   586    1
   962   498   495    1
   963   601   599    1
   964   715   711    1
   965   715   716    1
   966   199   201    1
   967   530   531    2
   968   183   185    1
   969   183   184    1
   970   183   182    1
   971   741   739   ar
   972   237   240    1
   973   237   239    1
   974   217   216   ar
   975  1386  1388    1
   976   710   711    1
   977   710   709    1
   978  1439  1438    1
   979   739   740    1
   980   599   602    1
   981   172   171    2
   982  1417  1415   ar
   983  1420  1421   ar
   984   588   598   ar
   985   198   189   ar
   986   198   192   ar
   987   590   591   ar
   988   717   716   ar
   989   717   719   ar
   990   496   495    2
   991   195   193   ar
   992    46    47    1
   993    46    48    1
   994    60    58    2
   995   189   190   ar
   996   240   241    1
   997    55    54    1
   998    54    53   ar
   999  1440  1438   ar
  1000  1440  1441   ar
  1001  1390  1388    1
  1002   229   236   ar
  1003   229   230   ar
  1004   513   512   ar
  1005   213   214   ar
  1006   716   723   ar
  1007   509   510   ar
  1008    47    58    1
  1009    50    49    1
  1010    50    51   ar
  1011   495   484    1
  1012   495   497    1
  1013    49    48    1
  1014   236   235   ar
  1015  1388  1389    1
  1016  1438  1437   ar
  1017   182   181    1
  1018   709   708    1
  1019   241   242    1
  1020   719   720   ar
  1021   171   173   ar
  1022   171   170   ar
  1023   216   214   ar
  1024  1415  1416    2
  1025  1415  1414   ar
  1026    59    58    1
  1027  1421  1414   ar
  1028    58    61    1
  1029   168   169    1
  1030   168   166    1
  1031   484   483    1
  1032  1457  1456    2
  1033   192   193   ar
  1034   192   191   ar
  1035   598   591   ar
  1036   598   597   ar
  1037   193   194    1
  1038  1441  1442   ar
  1039   702   701   ar
  1040   702   703   ar
  1041   591   592   ar
  1042   231   230    2
  1043   602   603    1
  1044   214   215    1
  1045   489   488    2
  1046   173   174   ar
  1047   485   483    1
  1048   485   486    1
  1049   230   232   ar
  1050    53    51   ar
  1051   190   191   ar
  1052   169   170    1
  1053   169   165    1
  1054   512   510   ar
  1055   512   514    1
  1056  1414  1413    1
  1057    51    52    2
  1058   510   511    2
  1059   235   233   ar
  1060   701   699   ar
  1061   723   722   ar
  1062   242   243    1
  1063   242   244    1
  1064   243   247    1
  1065   155   156   ar
  1066   155   153   ar
  1067  1458  1456   am
  1068  1458  1459   am
  1069   156   157   ar
  1070  1437  1436   ar
  1071  1437  1443   ar
  1072   703   704   ar
  1073   181   178    1
  1074   170   177   ar
  1075  1389  1403    1
  1076   708   705    1
  1077  1456  1455    2
  1078   483   481    1
  1079  1405  1403    2
  1080   603   604    1
  1081   597   595   ar
  1082   720   722   ar
  1083   720   721    1
  1084   680   681   ar
  1085   680   678   ar
  1086    74    73    1
  1087   167   166    1
  1088   167   178    1
  1089  1460  1459    2
  1090   488   490   ar
  1091   488   487   ar
  1092   256   254    1
  1093   166   164    1
  1094    75    73   ar
  1095    75    76   ar
  1096  1442  1443   ar
  1097  1436  1435   ar
  1098   592   593    2
  1099   592   594   ar
  1100   165   164    1
  1101   232   233   ar
  1102    61    62    1
  1103   486   487    1
  1104   486   482    1
  1105   657   679    1
  1106   657   656    1
  1107   681   682   ar
  1108   174   175    1
  1109   174   176   ar
  1110   679   678    2
  1111   233   234    1
  1112  1459  1461    1
  1113  1443  1434   ar
  1114   612   611   ar
  1115   612   613   ar
  1116   154   153    1
  1117   490   491   ar
  1118  1413  1409    1
  1119  1413  1412    1
  1120   255   254   ar
  1121   255   248   ar
  1122   179   178    2
  1123   164   163    1
  1124  1403  1406    1
  1125  1403  1404    1
  1126   153   152   ar
  1127   157   158   ar
  1128   699   700    1
  1129   699   698   ar
  1130   611   610   ar
  1131  1409  1408    1
  1132    73    72   ar
  1133   178   180    1
  1134   487   494   ar
  1135   247   248    1
  1136   247   246    1
  1137   706   705    2
  1138   678   677   ar
  1139   704   698   ar
  1140   704   695   ar
  1141   481   482    1
  1142   481   480    1
  1143   244   245    1
  1144   244   246    1
  1145   693   694    1
  1146   693   691    1
  1147  1455  1462    1
  1148   254   252   ar
  1149   177   176   ar
  1150    76    69   ar
  1151   595   594   ar
  1152   595   596    1
  1153   705   692    1
  1154   705   707    1
  1155   245   257    1
  1156   604   605    1
  1157   604   606    1
  1158  1406  1407    1
  1159   615    93    1
  1160   615   614    2
  1161   248   249   ar
  1162  1435  1434   ar
  1163   605   609    1
  1164    62    63    1
  1165   656   658    2
  1166   656   655    1
  1167   698   697   ar
  1168   636   635    1
  1169   658   659    2
  1170   692   691    1
  1171  1434  1433    1
  1172   682   683   ar
  1173  1461  1462    2
  1174  1461  1463    1
  1175   491   492    1
  1176   491   493   ar
  1177   259   257    2
  1178   613   614   ar
  1179   613   619   ar
  1180  1407  1408    1
  1181   158   152   ar
  1182   158   149   ar
  1183   694   695    1
  1184   694   690    1
  1185   695   696   ar
  1186  1412  1410    1
  1187   152   151   ar
  1188   691   689    1
  1189   494   493   ar
  1190   606   607    1
  1191   606   608    1
  1192  1408  1410    1
  1193    93    92    1
  1194   610   609    1
  1195   610   619   ar
  1196   257   258    1
  1197   257   260    1
  1198    72    70   ar
  1199   480   479    1
  1200  1454  1450    1
  1201  1454  1453    1
  1202   163   162    1
  1203   622   620    2
  1204   135   134    1
  1205   614   616   ar
  1206   252   253    2
  1207   252   251   ar
  1208   677   683   ar
  1209   677   676   ar
  1210   607   620    1
  1211    69    70   ar
  1212    69    68    1
  1213  1410  1411    1
  1214  1450  1449    1
  1215    64    63    1
  1216    64    68    1
  1217   479   476    1
  1218    79    77    2
  1219   683   674   ar
  1220   633   634   ar
  1221   633   632   ar
  1222   609   608    1
  1223   249   251   ar
  1224   249   250    2
  1225   660   659    1
  1226    63    65    1
  1227   659   661    1
  1228   655   654   ar
  1229   655   662   ar
  1230   619   618   ar
  1231   115   114    2
  1232  1433  1432    1
  1233  1433  1429    1
  1234   635   634   ar
  1235   635   637   ar
  1236   697   696   ar
  1237   162   159    1
  1238    70    71    2
  1239  1453  1451    1
  1240   620   621    1
  1241   620   623    1
  1242    90    91   ar
  1243    90    89   ar
  1244   654   653   ar
  1245   472   471    2
  1246   149   148    1
  1247   149   150   ar
  1248    92    91    1
  1249    92    94    2
  1250    65    66    1
  1251    65    67    1
  1252   147   148    1
  1253   147   145    1
  1254   690   689    1
  1255  1425  1423    2
  1256   151   150   ar
  1257   634   640   ar
  1258   689   688    1
  1259    68    67    1
  1260   134   133   ar
  1261   134   136   ar
  1262   676   675   ar
  1263   260   261    1
  1264   133   131   ar
  1265   632   631   ar
  1266  1449  1451    1
  1267  1449  1448    1
  1268   616   617   ar
  1269   148   144    1
  1270  1432  1430    1
  1271  1429  1428    1
  1272    91    98   ar
  1273   637   638   ar
  1274   477   476    2
  1275   470   471   ar
  1276   470   468   ar
  1277    77    66    1
  1278    77    78    1
  1279    77    80    1
  1280  1411  1423    1
  1281   471   473   ar
  1282   662   661    1
  1283   662   652   ar
  1284   476   478    1
  1285   476   464    1
  1286   674   675   ar
  1287   674   673    1
  1288  1447  1448    1
  1289   114   113   ar
  1290   114   116   ar
  1291    89    88   ar
  1292   623   624    1
  1293   618   617   ar
  1294   261   262    1
  1295    94    95    2
  1296  1451  1452    1
  1297   469   468    2
  1298   653   652   ar
  1299   468   467   ar
  1300   270   269   ar
  1301   270   271   ar
  1302  1423  1426    1
  1303  1423  1424    1
  1304   113   111   ar
  1305   159   146    1
  1306   159   161    2
  1307   159   160    1
  1308   145   146    1
  1309   145   143    1
  1310   118   116    1
  1311   688   687    1
  1312  1426  1427    1
  1313   136   137   ar
  1314   640   631   ar
  1315   640   639   ar
  1316   453   452    1
  1317   269   268   ar
  1318  1430  1428    1
  1319   473   475    1
  1320   473   474   ar
  1321   131   132    2
  1322   131   130   ar
  1323   631   630    1
  1324   673   672    1
  1325   673   669    1
  1326    80    81    1
  1327  1428  1427    1
  1328   652   651    1
  1329  1444  1431    1
  1330   672   670    1
  1331   116   117   ar
  1332   638   639   ar
  1333   144   143    1
  1334    98    88   ar
  1335    98    97    1
  1336   465   463    1
  1337   465   466    1
  1338   263   262    1
  1339   263   267    1
  1340   464   463    1
  1341   467   474   ar
  1342   467   466    1
  1343    88    87    1
  1344   624   625    1
  1345   463   461    1
  1346   262   264    1
  1347    95    97    1
  1348    95    96    1
  1349   273   272    2
  1350   143   142    1
  1351   271   272   ar
  1352   271   278   ar
  1353   687   684    1
  1354   137   130   ar
  1355   452   451   ar
  1356   452   454   ar
  1357   268   267    1
  1358   268   278   ar
  1359   130   129    1
  1360  1431  1445    1
  1361   686   684    2
  1362   111   112    2
  1363   111   110   ar
  1364   434   433    1
  1365   626   630    1
  1366   626   625    1
  1367   272   274   ar
  1368   466   462    1
  1369   643   641    2
  1370   669   668    1
  1371   451   449   ar
  1372   630   629    1
  1373   670   671    1
  1374   670   668    1
  1375   267   266    1
  1376    83    87    1
  1377    83    82    1
  1378    81    82    1
  1379   117   110   ar
  1380   651   650    1
  1381   651   647    1
  1382   625   627    1
  1383   458   456    2
  1384   264   265    1
  1385   264   266    1
  1386   627   629    1
  1387   627   628    1
  1388   278   277   ar
  1389    87    86    1
  1390   454   455   ar
  1391   684   671    1
  1392   684   685    1
  1393   110   109    1
  1394   650   648    1
  1395   459   456    1
  1396   459   460    1
  1397   141   142    1
  1398   141   138    1
  1399   461   462    1
  1400   461   460    1
  1401   433   435   ar
  1402   433   432   ar
  1403   280   279    2
  1404   101    99    2
  1405    82    84    1
  1406   668   667    1
  1407   647   646    1
  1408   265   279    1
  1409   439   437    2
  1410   129   128    1
  1411   129   125    1
  1412   279   281    1
  1413   279   282    1
  1414    84    86    1
  1415    84    85    1
  1416   274   275   ar
  1417   435   436   ar
  1418   449   450    2
  1419   449   448   ar
  1420   420   418    2
  1421   665   663    2
  1422   628   641    1
  1423   400   398    2
  1424   128   126    1
  1425   666   667    1
  1426   666   663    1
  1427   648   646    1
  1428   648   649    1
  1429   641   644    1
  1430   641   642    1
  1431   644   645    1
  1432   456   457    1
  1433   456   445    1
  1434   277   275   ar
  1435   455   448   ar
  1436   140   138    2
  1437   432   430   ar
  1438   295   294    1
  1439   296   294   ar
  1440   296   297   ar
  1441   275   276    1
  1442   399   398    1
  1443   417   415    1
  1444   126   127    1
  1445   126   124    1
  1446   448   447    1
  1447   646   645    1
  1448   138   127    1
  1449   138   139    1
  1450   419   418    1
  1451   109   108    1
  1452   109   105    1
  1453   125   124    1
  1454   414   413    2
  1455   436   429   ar
  1456   663   649    1
  1457   663   664    1
  1458    85    99    1
  1459    99   102    1
  1460    99   100    1
  1461   380   378    2
  1462   398   401    1
  1463   398   386    1
  1464   418   421    1
  1465   418   406    1
  1466   294   293   ar
  1467   437   438    1
  1468   437   440    1
  1469   437   426    1
  1470   102   103    1
  1471   282   283    1
  1472   121   119    2
  1473   430   429   ar
  1474   430   431    2
  1475   297   290   ar
  1476   108   106    1
  1477   314   313    2
  1478   421   422    1
  1479   105   104    1
  1480   415   413   ar
  1481   415   416   ar
  1482   445   444    1
  1483   446   444    1
  1484   446   447    1
  1485   413   412   ar
  1486   444   442    1
  1487   397   395    1
  1488   397   350    1
  1489   379   378    1
  1490   124   123    1
  1491   401   402    1
  1492   122   123    1
  1493   122   119    1
  1494   429   428    1
  1495   440   441    1
  1496   106   104    1
  1497   106   107    1
  1498   447   443    1
  1499   378   381    1
  1500   378   365    1
  1501   425   426    1
  1502   425   427    1
  1503   425   423    1
  1504   317   315    1
  1505   293   291   ar
  1506   416   409   ar
  1507   406   405    1
  1508   386   385    1
  1509   119   107    1
  1510   119   120    1
  1511   412   410   ar
  1512   394   393    2
  1513   104   103    1
  1514   313   315   ar
  1515   313   312   ar
  1516   283   284    1
  1517   427   428    1
  1518   285   289    1
  1519   285   284    1
  1520   395   393   ar
  1521   395   396   ar
  1522   405   407    1
  1523   405   403    1
  1524   290   291   ar
  1525   290   289    1
  1526   381   382    1
  1527   422   423    1
  1528   365   364    1
  1529   350   349    1
  1530   443   442    1
  1531   428   424    1
  1532   442   441    1
  1533   393   392   ar
  1534   402   403    1
  1535   385   383    1
  1536   385   387    1
  1537   315   316   ar
  1538   366   364    1
  1539   366   367    1
  1540   291   292    2
  1541   334   333    1
  1542   423   424    1
  1543   409   410   ar
  1544   409   408    1
  1545   382   383    1
  1546   396   389   ar
  1547   410   411    2
  1548   312   310   ar
  1549   289   288    1
  1550   284   286    1
  1551   407   408    1
  1552   403   404    1
  1553   351   349   ar
  1554   351   352   ar
  1555   349   348   ar
  1556   364   362    1
  1557   392   390   ar
  1558   383   384    1
  1559   408   404    1
  1560   387   388    1
  1561   389   390   ar
  1562   389   388    1
  1563   316   309   ar
  1564   376   375   ar
  1565   376   377   ar
  1566   332   333   ar
  1567   332   330   ar
  1568   367   363    1
  1569   367   368    1
  1570   333   335   ar
  1571   375   374   ar
  1572   286   288    1
  1573   286   287    1
  1574   353   352    2
  1575   310   309   ar
  1576   310   311    2
  1577   390   391    2
  1578   352   354   ar
  1579   384   388    1
  1580   362   363    1
  1581   362   361    1
  1582   300   298    2
  1583   309   308    1
  1584   348   347    1
  1585   348   355   ar
  1586   347   346    1
  1587   347   343    1
  1588   377   368   ar
  1589   377   371   ar
  1590   330   331    2
  1591   330   329   ar
  1592   346   344    1
  1593   374   372   ar
  1594   335   336   ar
  1595   287   298    1
  1596   368   369   ar
  1597   298   301    1
  1598   298   299    1
  1599   361   360    1
  1600   354   355   ar
  1601   354   356    1
  1602   308   304    1
  1603   308   307    1
  1604   301   302    1
  1605   343   342    1
  1606   304   303    1
  1607   360   357    1
  1608   371   372   ar
  1609   371   370   ar
  1610   372   373    1
  1611   329   336   ar
  1612   329   328    1
  1613   344   342    1
  1614   344   345    1
  1615   369   370   ar
  1616   302   303    1
  1617   342   341    1
  1618   307   305    1
  1619   345   357    1
  1620   303   305    1
  1621   328   327    1
  1622   328   324    1
  1623   305   306    1
  1624   357   358    2
  1625   357   359    1
  1626   320   318    2
  1627   327   325    1
  1628   341   340    1
  1629   324   323    1
  1630   340   337    1
  1631   306   318    1
  1632   325   323    1
  1633   325   326    1
  1634   318   321    1
  1635   318   319    1
  1636   323   322    1
  1637   339   337    2
  1638   337   326    1
  1639   337   338    1
  1640   321   322    1
