@<TRIPOS>MOLECULE
dna.pdb
 1642 1844 0 0 0
SMALL
GASTEIGER

@<TRIPOS>ATOM
      1  O5'        7.7560  -20.7460   10.9890 O.3     1  DA1        -0.2177
      2  C5'        7.0840  -19.6670   10.3570 C.3     1  DA1         0.2114
      3  C4'        7.7500  -19.4470    9.0190 C.3     1  DA1         0.1503
      4  O4'        8.4090  -20.6790    8.6430 O.3     1  DA1        -0.3352
      5  C3'        6.8170  -19.1910    7.8560 C.3     1  DA1         0.0369
      6  O3'        6.4310  -17.8390    7.8560 O.3     1  DA1        -0.1270
      7  C2'        7.7350  -19.5430    6.6980 C.3     1  DA1         0.0566
      8  C1'        8.2950  -20.8510    7.2410 C.3     1  DA1         0.2069
      9  N9         7.1740  -21.8970    6.9080 N.ar    1  DA1        -0.2715
     10  C8         6.6500  -22.6590    7.9210 C.ar    1  DA1         0.1815
     11  N7         5.8580  -23.6190    7.5050 N.ar    1  DA1        -0.2193
     12  C5         5.8610  -23.4780    6.1270 C.ar    1  DA1         0.1518
     13  C6         5.2150  -24.1920    5.1020 C.ar    1  DA1         0.1919
     14  N6         4.4100  -25.2340    5.3200 N.pl3   1  DA1        -0.1054
     15  N1         5.4300  -23.7930    3.8300 N.ar    1  DA1        -0.2040
     16  C2         6.2380  -22.7490    3.6120 C.ar    1  DA1         0.2016
     17  N3         6.9000  -22.0000    4.4900 N.ar    1  DA1        -0.2048
     18  C4         6.6650  -22.4210    5.7440 C.ar    1  DA1         0.1691
     19  P          5.1230  -17.5210    8.1220 P.3     2  DG2         0.5677
     20  OP1        4.4030  -16.3240    8.6230 O.2     2  DG2        -0.2249
     21  OP2        4.3700  -18.7780    7.8700 O.2     2  DG2        -0.2249
     22  O5'        5.9020  -17.1190    6.7880 O.3     2  DG2        -0.2092
     23  C5'        5.2010  -16.6970    5.6170 C.3     2  DG2         0.2145
     24  C4'        5.7490  -17.4030    4.3980 C.3     2  DG2         0.1776
     25  O4'        5.8000  -18.8280    4.6640 O.3     2  DG2        -0.3326
     26  C3'        4.9100  -17.2570    3.1360 C.3     2  DG2         0.1559
     27  O3'        5.3040  -16.0990    2.4000 O.3     2  DG2        -0.3138
     28  C2'        5.2180  -18.5420    2.3750 C.3     2  DG2         0.0865
     29  C1'        5.3800  -19.5450    3.5180 C.3     2  DG2         0.2094
     30  N9         3.6860  -20.0620    4.1690 N.ar    2  DG2        -0.2713
     31  C8         3.2890  -19.9630    5.4800 C.ar    2  DG2         0.1816
     32  N7         2.2380  -20.6860    5.7570 N.ar    2  DG2        -0.2173
     33  C5         1.9210  -21.3020    4.5600 C.ar    2  DG2         0.1748
     34  C6         0.8760  -22.2050    4.2350 C.ar    2  DG2         0.3023
     35  O6        -0.0070  -22.6530    4.9760 O.2     2  DG2        -0.2633
     36  N1         0.9170  -22.5880    2.8970 N.ar    2  DG2        -0.1709
     37  C2         1.8490  -22.1550    1.9850 C.ar    2  DG2         0.2606
     38  N2         1.7270  -22.6360    0.7410 N.pl3   2  DG2        -0.0859
     39  N3         2.8250  -21.3160    2.2720 N.ar    2  DG2        -0.1918
     40  C4         2.8050  -20.9290    3.5660 C.ar    2  DG2         0.1722
     41  P          4.3320  -15.4730    1.3420 P.3     3  DC3         0.2141
     42  OP1        5.1730  -14.3490    0.8330 O.2     3  DC3        -0.5172
     43  OP2        3.3100  -15.2160    2.3630 O.3     3  DC3        -0.4373
     44  O5'        3.6740  -16.2620    0.1150 O.3     3  DC3        -0.3114
     45  C5'        4.4950  -16.7190   -0.9690 C.3     3  DC3         0.1811
     46  C4'        3.6120  -17.3810   -2.0130 C.3     3  DC3         0.1746
     47  O4'        3.3630  -18.7510   -1.5780 O.3     3  DC3        -0.3327
     48  C3'        2.2160  -16.7730   -2.1780 C.3     3  DC3         0.1558
     49  O3'        2.1530  -15.7100   -3.1300 O.3     3  DC3        -0.3138
     50  C2'        1.4240  -17.9720   -2.6620 C.3     3  DC3         0.0866
     51  C1'        2.0140  -19.1000   -1.8130 C.3     3  DC3         0.2106
     52  N1         1.2480  -19.3390   -0.5220 N.ar    3  DC3        -0.2556
     53  C2         0.1720  -20.2310   -0.5970 C.ar    3  DC3         0.3531
     54  O2        -0.0080  -20.8620   -1.6520 O.2     3  DC3        -0.2443
     55  N3        -0.6390  -20.3780    0.4780 N.ar    3  DC3        -0.1739
     56  C4        -0.4070  -19.6780    1.5890 C.ar    3  DC3         0.1759
     57  N4        -1.2330  -19.8560    2.6230 N.pl3   3  DC3        -0.1070
     58  C5         0.6780  -18.7690    1.6850 C.ar    3  DC3         0.0566
     59  C6         1.4760  -18.6270    0.6220 C.ar    3  DC3         0.0849
     60  P          1.1020  -14.4190   -2.9380 P.3     4  DA4         0.2141
     61  OP1        1.0950  -13.5040   -4.1060 O.2     4  DA4        -0.5172
     62  OP2        0.9880  -13.8600   -1.5640 O.3     4  DA4        -0.4373
     63  O5'       -0.0400  -15.5170   -3.1030 O.3     4  DA4        -0.3114
     64  C5'       -0.4320  -15.9990   -4.4020 C.3     4  DA4         0.1811
     65  C4'       -1.7940  -16.6440   -4.3230 C.3     4  DA4         0.1746
     66  O4'       -1.7090  -17.8840   -3.5680 O.3     4  DA4        -0.3327
     67  C3'       -2.8170  -15.8290   -3.5530 C.3     4  DA4         0.1558
     68  O3'       -3.3900  -14.7930   -4.3270 O.3     4  DA4        -0.3138
     69  C2'       -3.8160  -16.8860   -3.1250 C.3     4  DA4         0.0865
     70  C1'       -2.8730  -18.0320   -2.7610 C.3     4  DA4         0.2094
     71  N9        -2.4800  -18.0090   -1.3540 N.ar    4  DA4        -0.2714
     72  C8        -1.3390  -17.5270   -0.7650 C.ar    4  DA4         0.1815
     73  N7        -1.3690  -17.5530    0.5460 N.ar    4  DA4        -0.2193
     74  C5        -2.6140  -18.0870    0.8390 C.ar    4  DA4         0.1518
     75  C6        -3.2570  -18.3750    2.0560 C.ar    4  DA4         0.1919
     76  N6        -2.7080  -18.1540    3.2520 N.pl3   4  DA4        -0.1054
     77  N1        -4.4990  -18.9030    1.9980 N.ar    4  DA4        -0.2040
     78  C2        -5.0480  -19.1240    0.7990 C.ar    4  DA4         0.2016
     79  N3        -4.5430  -18.8970   -0.4120 N.ar    4  DA4        -0.2048
     80  C4        -3.3100  -18.3720   -0.3210 C.ar    4  DA4         0.1691
     81  P         -3.8870  -13.2580   -3.5570 P.3     5  DG5         0.2141
     82  OP1       -4.2010  -12.5170   -4.8260 O.2     5  DG5        -0.5172
     83  OP2       -2.9900  -12.6300   -2.5390 O.3     5  DG5        -0.4373
     84  O5'       -5.2810  -13.4970   -2.8340 O.3     5  DG5        -0.3114
     85  C5'       -6.3700  -14.0380   -3.5510 C.3     5  DG5         0.1811
     86  C4'       -7.2430  -14.8440   -2.6370 C.3     5  DG5         0.1746
     87  O4'       -6.4590  -15.9210   -2.0410 O.3     5  DG5        -0.3327
     88  C3'       -7.8040  -14.1370   -1.4220 C.3     5  DG5         0.1558
     89  O3'       -8.8330  -13.2130   -1.7370 O.3     5  DG5        -0.3138
     90  C2'       -8.1810  -15.3180   -0.5390 C.3     5  DG5         0.0865
     91  C1'       -6.9730  -16.2250   -0.7470 C.3     5  DG5         0.2094
     92  N9        -5.9520  -15.7960    0.2890 N.ar    5  DG5        -0.2713
     93  C8        -4.6780  -15.4580   -0.0960 C.ar    5  DG5         0.1816
     94  N7        -3.8350  -15.4080    0.9000 N.ar    5  DG5        -0.2173
     95  C5        -4.5940  -15.7340    2.0080 C.ar    5  DG5         0.1748
     96  C6        -4.2330  -15.8420    3.3760 C.ar    5  DG5         0.3023
     97  O6        -3.1220  -15.6640    3.8910 O.2     5  DG5        -0.2633
     98  N1        -5.3160  -16.1960    4.1750 N.ar    5  DG5        -0.1709
     99  C2        -6.5910  -16.4190    3.7130 C.ar    5  DG5         0.2606
    100  N2        -7.5040  -16.7530    4.6360 N.pl3   5  DG5        -0.0859
    101  N3        -6.9430  -16.3210    2.4460 N.ar    5  DG5        -0.1918
    102  C4        -5.9070  -15.9780    1.6520 C.ar    5  DG5         0.1722
    103  P         -8.5560  -11.8200   -1.4820 P.3     6  DC6         0.2141
    104  OP1       -9.7180  -10.9990   -1.9260 O.2     6  DC6        -0.5172
    105  OP2       -7.2190  -11.1910   -1.3780 O.3     6  DC6        -0.4373
    106  O5'       -8.8490  -12.3660   -0.0230 O.3     6  DC6        -0.3114
    107  C5'      -10.1610  -12.6710    0.3930 C.3     6  DC6         0.1811
    108  C4'      -10.2890  -12.4090    1.8630 C.3     6  DC6         0.1746
    109  O4'       -9.3420  -13.2540    2.5580 O.3     6  DC6        -0.3327
    110  C3'       -9.8890  -11.0030    2.2710 C.3     6  DC6         0.1558
    111  O3'      -10.9470  -10.0750    2.2000 O.3     6  DC6        -0.3138
    112  C2'       -9.4400  -11.1730    3.7060 C.3     6  DC6         0.0866
    113  C1'       -8.7740  -12.5470    3.6500 C.3     6  DC6         0.2106
    114  N1        -7.3060  -12.5440    3.4490 N.ar    6  DC6        -0.2556
    115  C2        -6.5520  -12.4640    4.6250 C.ar    6  DC6         0.3531
    116  O2        -7.1070  -12.7120    5.7090 O.2     6  DC6        -0.2443
    117  N3        -5.2440  -12.1200    4.5480 N.ar    6  DC6        -0.1739
    118  C4        -4.6920  -11.8610    3.3620 C.ar    6  DC6         0.1759
    119  N4        -3.4000  -11.5250    3.3350 N.pl3   6  DC6        -0.1070
    120  C5        -5.4390  -11.9360    2.1590 C.ar    6  DC6         0.0566
    121  C6        -6.7300  -12.2770    2.2400 C.ar    6  DC6         0.0849
    122  P        -10.5870   -8.3960    1.9910 P.3     7  DA7         0.2141
    123  OP1      -11.8360   -7.6510    1.7090 O.3     7  DA7        -0.4373
    124  OP2       -9.3940   -8.2080    1.1340 O.2     7  DA7        -0.5172
    125  O5'      -10.0550   -8.1010    3.4780 O.3     7  DA7        -0.3114
    126  C5'      -10.9620   -7.8640    4.5490 C.3     7  DA7         0.1811
    127  C4'      -10.3350   -8.0020    5.9230 C.3     7  DA7         0.1746
    128  O4'       -9.5590   -9.2270    6.0030 O.3     7  DA7        -0.3327
    129  C3'       -9.3570   -6.9200    6.3720 C.3     7  DA7         0.1558
    130  O3'       -9.9770   -5.7390    6.8530 O.3     7  DA7        -0.3138
    131  C2'       -8.5470   -7.6350    7.4430 C.3     7  DA7         0.0865
    132  C1'       -8.4540   -9.0420    6.8630 C.3     7  DA7         0.2094
    133  N9        -7.1920   -9.2340    6.1030 N.ar    7  DA7        -0.2714
    134  C8        -7.0330   -9.4170    4.7540 C.ar    7  DA7         0.1815
    135  N7        -5.7830   -9.5730    4.3860 N.ar    7  DA7        -0.2193
    136  C5        -5.0740   -9.4840    5.5730 C.ar    7  DA7         0.1518
    137  C6        -3.7010   -9.5680    5.8630 C.ar    7  DA7         0.1919
    138  N6        -2.7600   -9.7690    4.9370 N.pl3   7  DA7        -0.1054
    139  N1        -3.3230   -9.4370    7.1530 N.ar    7  DA7        -0.2040
    140  C2        -4.2670   -9.2370    8.0800 C.ar    7  DA7         0.2016
    141  N3        -5.5860   -9.1410    7.9310 N.ar    7  DA7        -0.2048
    142  C4        -5.9280   -9.2750    6.6390 C.ar    7  DA7         0.1691
    143  P         -9.3540   -4.4010    6.5770 P.3     8  DC8         0.2141
    144  OP1      -10.4770   -3.4740    6.8710 O.3     8  DC8        -0.4373
    145  OP2       -8.6570   -4.3120    5.2760 O.2     8  DC8        -0.5172
    146  O5'       -8.2890   -4.2080    7.7350 O.3     8  DC8        -0.3114
    147  C5'       -8.7320   -4.1970    9.0740 C.3     8  DC8         0.1811
    148  C4'       -7.6240   -4.6020    9.9980 C.3     8  DC8         0.1746
    149  O4'       -7.0030   -5.8140    9.5000 O.3     8  DC8        -0.3327
    150  C3'       -6.4770   -3.6160   10.0440 C.3     8  DC8         0.1558
    151  O3'       -6.7680   -2.5890   10.9740 O.3     8  DC8        -0.3138
    152  C2'       -5.3270   -4.4820   10.5280 C.3     8  DC8         0.0866
    153  C1'       -5.6280   -5.8010    9.8240 C.3     8  DC8         0.2106
    154  N1        -4.8500   -6.0070    8.6530 N.ar    8  DC8        -0.2556
    155  C2        -3.5570   -6.5330    8.7510 C.ar    8  DC8         0.3531
    156  O2        -3.0950   -6.7780    9.8790 O.2     8  DC8        -0.2443
    157  N3        -2.8490   -6.7590    7.6190 N.ar    8  DC8        -0.1739
    158  C4        -3.3850   -6.4800    6.4300 C.ar    8  DC8         0.1759
    159  N4        -2.6500   -6.7190    5.3420 N.pl3   8  DC8        -0.1070
    160  C5        -4.6940   -5.9460    6.3090 C.ar    8  DC8         0.0566
    161  C6        -5.3890   -5.7250    7.4300 C.ar    8  DC8         0.0849
    162  P         -5.7960   -1.3420   11.0610 P.3     9  DA9         0.2141
    163  OP1       -6.2660   -0.5430   12.2260 O.3     9  DA9        -0.4373
    164  OP2       -6.1110   -0.8830    9.6830 O.2     9  DA9        -0.5172
    165  O5'       -4.2140   -1.5190   11.1780 O.3     9  DA9        -0.3114
    166  C5'       -3.5810   -1.6260   12.4520 C.3     9  DA9         0.1811
    167  C4'       -2.1470   -2.0870   12.3010 C.3     9  DA9         0.1746
    168  O4'       -2.1250   -3.3130   11.5190 O.3     9  DA9        -0.3327
    169  C3'       -1.2180   -1.1490   11.5390 C.3     9  DA9         0.1558
    170  O3'       -0.6580   -0.1750   12.4200 O.3     9  DA9        -0.3138
    171  C2'       -0.1380   -2.0960   11.0310 C.3     9  DA9         0.0865
    172  C1'       -0.9510   -3.3520   10.7290 C.3     9  DA9         0.2094
    173  N9        -1.3290   -3.4870    9.3200 N.ar    9  DA9        -0.2714
    174  C8        -2.5650   -3.3130    8.7520 C.ar    9  DA9         0.1815
    175  N7        -2.5880   -3.5300    7.4590 N.ar    9  DA9        -0.2193
    176  C5        -1.2780   -3.8680    7.1560 C.ar    9  DA9         0.1518
    177  C6        -0.6460   -4.2140    5.9490 C.ar    9  DA9         0.1919
    178  N6        -1.2780   -4.2790    4.7750 N.pl3   9  DA9        -0.1054
    179  N1         0.6740   -4.4950    5.9910 N.ar    9  DA9        -0.2040
    180  C2         1.3070   -4.4310    7.1690 C.ar    9  DA9         0.2016
    181  N3         0.8210   -4.1190    8.3680 N.ar    9  DA9        -0.2048
    182  C4        -0.4920   -3.8450    8.2920 C.ar    9  DA9         0.1691
    183  P         -0.1750    1.2940   11.8170 P.3    10  DG10        0.2141
    184  OP1        0.1930    2.1420   13.0550 O.3    10  DG10       -0.4373
    185  OP2       -1.0110    1.8700   10.7650 O.2    10  DG10       -0.5172
    186  O5'        1.2080    0.9970   11.0990 O.3    10  DG10       -0.3114
    187  C5'        2.2050    0.3670   11.8560 C.3    10  DG10        0.1811
    188  C4'        3.3290   -0.0510   10.9760 C.3    10  DG10        0.1746
    189  O4'        2.9250   -1.2220   10.1860 O.3    10  DG10       -0.3327
    190  C3'        3.7520    0.9890    9.9220 C.3    10  DG10        0.1558
    191  O3'        4.6360    1.9600   10.5000 O.3    10  DG10       -0.3138
    192  C2'        4.4860    0.0900    8.9110 C.3    10  DG10        0.0865
    193  C1'        3.5430   -1.1460    8.8890 C.3    10  DG10        0.2094
    194  N9         2.5410   -0.9540    7.8260 N.ar   10  DG10       -0.2713
    195  C8         1.2140   -0.6180    7.9400 C.ar   10  DG10        0.1816
    196  N7         0.6160   -0.4790    6.7880 N.ar   10  DG10       -0.2173
    197  C5         1.6030   -0.7400    5.8560 C.ar   10  DG10        0.1748
    198  C6         1.5560   -0.7420    4.4380 C.ar   10  DG10        0.3023
    199  O6         0.5900   -0.5030    3.7030 O.2    10  DG10       -0.2633
    200  N1         2.7900   -1.0600    3.8770 N.ar   10  DG10       -0.1709
    201  C2         3.9280   -1.3430    4.5940 C.ar   10  DG10        0.2606
    202  N2         5.0230   -1.6290    3.8760 N.pl3  10  DG10       -0.0859
    203  N3         3.9870   -1.3440    5.9110 N.ar   10  DG10       -0.1918
    204  C4         2.8010   -1.0360    6.4770 C.ar   10  DG10        0.1722
    205  P          4.8500    3.4860    9.7640 P.3    11  DA11        0.2141
    206  OP1        5.8210    3.7980   10.8460 O.3    11  DA11       -0.4373
    207  OP2        3.7440    4.4400    9.4600 O.2    11  DA11       -0.5172
    208  O5'        5.6530    3.1690    8.4170 O.3    11  DA11       -0.3114
    209  C5'        7.0780    3.2230    8.4200 C.3    11  DA11        0.1811
    210  C4'        7.6550    2.7290    7.1230 C.3    11  DA11        0.1746
    211  O4'        6.8550    1.6310    6.6280 O.3    11  DA11       -0.3327
    212  C3'        7.7100    3.7160    5.9740 C.3    11  DA11        0.1558
    213  O3'        8.8540    4.5710    6.0850 O.3    11  DA11       -0.3138
    214  C2'        7.7560    2.7910    4.7600 C.3    11  DA11        0.0865
    215  C1'        6.8770    1.6260    5.2180 C.3    11  DA11        0.2094
    216  N9         5.4430    1.6750    4.7770 N.ar   11  DA11       -0.2714
    217  C8         4.2930    1.9040    5.4860 C.ar   11  DA11        0.1815
    218  N7         3.1980    1.7890    4.7720 N.ar   11  DA11       -0.2193
    219  C5         3.6610    1.4630    3.5070 C.ar   11  DA11        0.1518
    220  C6         2.9970    1.2060    2.2940 C.ar   11  DA11        0.1919
    221  N6         1.6700    1.2390    2.1570 N.pl3  11  DA11       -0.1054
    222  N1         3.7550    0.9100    1.2160 N.ar   11  DA11       -0.2040
    223  C2         5.0850    0.8770    1.3560 C.ar   11  DA11        0.2016
    224  N3         5.8220    1.0980    2.4410 N.ar   11  DA11       -0.2048
    225  C4         5.0410    1.3900    3.4940 C.ar   11  DA11        0.1691
    226  P          8.8300    6.1830    5.8190 P.3    12  DG12        0.2141
    227  OP1       10.1830    6.7830    5.8350 O.2    12  DG12       -0.5172
    228  OP2        7.7430    6.8900    6.5430 O.3    12  DG12       -0.4373
    229  O5'        8.4270    5.9550    4.2840 O.3    12  DG12       -0.3114
    230  C5'        9.5670    5.7500    3.4430 C.3    12  DG12        0.1811
    231  C4'        9.2220    5.2780    2.0720 C.3    12  DG12        0.1746
    232  O4'        8.3070    4.1860    2.1930 O.3    12  DG12       -0.3327
    233  C3'        8.4710    6.2840    1.2360 C.3    12  DG12        0.1558
    234  O3'        9.2400    7.3960    0.7100 O.3    12  DG12       -0.3138
    235  C2'        7.7300    5.4170    0.2490 C.3    12  DG12        0.0865
    236  C1'        7.3800    4.2460    1.0970 C.3    12  DG12        0.2094
    237  N9         6.0190    4.3210    1.4740 N.ar   12  DG12       -0.2713
    238  C8         5.5810    4.5590    2.7540 C.ar   12  DG12        0.1816
    239  N7         4.2800    4.5910    2.8560 N.ar   12  DG12       -0.2173
    240  C5         3.8300    4.3600    1.5690 C.ar   12  DG12        0.1748
    241  C6         2.5110    4.2810    1.0530 C.ar   12  DG12        0.3023
    242  O6         1.4410    4.4060    1.6620 O.2    12  DG12       -0.2633
    243  N1         2.5020    4.0300   -0.3170 N.ar   12  DG12       -0.1709
    244  C2         3.6250    3.8750   -1.0930 C.ar   12  DG12        0.2606
    245  N2         3.4160    3.6380   -2.3950 N.pl3  12  DG12       -0.0859
    246  N3         4.8570    3.9460   -0.6280 N.ar   12  DG12       -0.1918
    247  C4         4.8900    4.1900    0.7000 C.ar   12  DG12        0.1722
    248  P          8.6630    8.8480    0.6290 P.3    13  DG13        0.2141
    249  OP1        9.6740    9.9210    0.4820 O.2    13  DG13       -0.5172
    250  OP2        7.6160    8.9270    1.6750 O.3    13  DG13       -0.4373
    251  O5'        7.8270    8.7240   -0.7290 O.3    13  DG13       -0.3114
    252  C5'        8.3480    7.9890   -1.8230 C.3    13  DG13        0.1811
    253  C4'        7.2860    7.7530   -2.8640 C.3    13  DG13        0.1746
    254  O4'        6.3450    6.7470   -2.4110 O.3    13  DG13       -0.3327
    255  C3'        6.3940    8.9420   -3.1700 C.3    13  DG13        0.1558
    256  O3'        7.0200    9.9240   -3.9750 O.3    13  DG13       -0.3138
    257  C2'        5.1840    8.2710   -3.8020 C.3    13  DG13        0.0865
    258  C1'        5.0500    7.0540   -2.8920 C.3    13  DG13        0.2094
    259  N9         4.1450    7.2950   -1.7420 N.ar   13  DG13       -0.2713
    260  C8         4.4910    7.4970   -0.4280 C.ar   13  DG13        0.1816
    261  N7         3.4610    7.6320    0.3610 N.ar   13  DG13       -0.2173
    262  C5         2.3680    7.5110   -0.4770 C.ar   13  DG13        0.1748
    263  C6         0.9790    7.5710   -0.1970 C.ar   13  DG13        0.3023
    264  O6         0.4240    7.7500    0.8950 O.2    13  DG13       -0.2633
    265  N1         0.2090    7.3990   -1.3440 N.ar   13  DG13       -0.1709
    266  C2         0.7150    7.1930   -2.6050 C.ar   13  DG13        0.2606
    267  N2        -0.1850    7.0470   -3.5860 N.pl3  13  DG13       -0.0859
    268  N3         2.0030    7.1350   -2.8800 N.ar   13  DG13       -0.1918
    269  C4         2.7700    7.3010   -1.7820 C.ar   13  DG13        0.1722
    270  P          7.1040   11.7340   -3.3500 P.3    14  DT14        0.2141
    271  OP1        7.9080   12.7330   -4.1030 O.2    14  DT14       -0.5172
    272  OP2        7.1680   11.7060   -1.8760 O.3    14  DT14       -0.4373
    273  O5'        5.5800   11.8960   -3.7870 O.3    14  DT14       -0.3114
    274  C5'        5.2080   11.9850   -5.1810 C.3    14  DT14        0.1811
    275  C4'        3.7710   12.4330   -5.3100 C.3    14  DT14        0.1746
    276  O4'        2.8750   11.3820   -4.8650 O.3    14  DT14       -0.3327
    277  C3'        3.3890   13.6250   -4.4480 C.3    14  DT14        0.1558
    278  O3'        3.7700   14.8450   -5.0540 O.3    14  DT14       -0.3138
    279  C2'        1.8810   13.4800   -4.3480 C.3    14  DT14        0.0866
    280  C1'        1.7340   11.9610   -4.2480 C.3    14  DT14        0.2106
    281  N1         1.6300   11.4920   -2.8340 N.ar   14  DT14       -0.2559
    282  C2         0.3510   11.3270   -2.3360 C.ar   14  DT14        0.3545
    283  O2        -0.6510   11.5470   -2.9930 O.2    14  DT14       -0.2443
    284  N3         0.2870   10.8950   -1.0330 N.ar   14  DT14       -0.1533
    285  C4         1.3480   10.6180   -0.1980 C.ar   14  DT14        0.2804
    286  O4         1.1310   10.2360    0.9500 O.2    14  DT14       -0.2654
    287  C5         2.6420   10.8140   -0.7880 C.ar   14  DT14        0.0534
    288  C6         2.7340   11.2340   -2.0520 C.ar   14  DT14        0.0824
    289  C7         3.8610   10.5390    0.0420 C.3    14  DT14        0.0377
    290  P          4.8040   16.0410   -4.2730 P.3    15  DC15        0.2141
    291  OP1        5.0770   17.1530   -5.2180 O.2    15  DC15       -0.5172
    292  OP2        5.9190   15.3670   -3.5580 O.3    15  DC15       -0.4373
    293  O5'        3.7470   16.4960   -3.1920 O.3    15  DC15       -0.3114
    294  C5'        2.6230   17.1830   -3.6240 C.3    15  DC15        0.1811
    295  C4'        1.6870   17.3290   -2.5050 C.3    15  DC15        0.1746
    296  O4'        1.3510   16.0260   -2.0120 O.3    15  DC15       -0.3327
    297  C3'        2.3330   17.9640   -1.3190 C.3    15  DC15        0.1558
    298  O3'        2.3990   19.3340   -1.5270 O.3    15  DC15       -0.3138
    299  C2'        1.3810   17.5580   -0.2320 C.3    15  DC15        0.0866
    300  C1'        1.2000   16.0970   -0.6170 C.3    15  DC15        0.2106
    301  N1         2.2730   15.2020    0.0700 N.ar   15  DC15       -0.2556
    302  C2         2.2240   14.8970    1.4350 C.ar   15  DC15        0.3531
    303  O2         1.3430   15.4260    2.1340 O.2    15  DC15       -0.2443
    304  N3         3.1360   14.0400    1.9530 N.ar   15  DC15       -0.1739
    305  C4         4.0650   13.4970    1.1650 C.ar   15  DC15        0.1759
    306  N4         4.9420   12.6580    1.7200 N.pl3  15  DC15       -0.1070
    307  C5         4.1310   13.7930   -0.2210 C.ar   15  DC15        0.0566
    308  C6         3.2290   14.6400   -0.7280 C.ar   15  DC15        0.0849
    309  P          3.7420   20.0310   -1.1510 P.3    16  DA16        0.2141
    310  OP1        3.6280   21.4720   -1.4220 O.3    16  DA16       -0.4373
    311  OP2        4.9720   19.2740   -1.4790 O.2    16  DA16       -0.5172
    312  O5'        3.3820   19.8410    0.3710 O.3    16  DA16       -0.3114
    313  C5'        2.9540   20.9770    1.1250 C.3    16  DA16        0.1811
    314  C4'        2.7260   20.5730    2.5840 C.3    16  DA16        0.1746
    315  O4'        2.6080   19.1490    2.6720 O.3    16  DA16       -0.3327
    316  C3'        3.9530   20.8050    3.4500 C.3    16  DA16        0.1558
    317  O3'        4.0080   22.0890    3.8750 O.3    16  DA16       -0.3138
    318  C2'        3.8380   19.8250    4.5990 C.3    16  DA16        0.0865
    319  C1'        3.2480   18.6940    3.8360 C.3    16  DA16        0.2094
    320  N9         4.2960   17.8060    3.4840 N.ar   16  DA16       -0.2714
    321  C8         4.3290   17.4760    2.1540 C.ar   16  DA16        0.1815
    322  N7         5.1860   16.5250    1.8660 N.ar   16  DA16       -0.2193
    323  C5         5.7570   16.2110    3.0900 C.ar   16  DA16        0.1518
    324  C6         6.7410   15.2790    3.4630 C.ar   16  DA16        0.1919
    325  N6         7.3460   14.4580    2.6020 N.pl3  16  DA16       -0.1054
    326  N1         7.0840   15.2190    4.7670 N.ar   16  DA16       -0.2040
    327  C2         6.4760   16.0410    5.6300 C.ar   16  DA16        0.2016
    328  N3         5.5380   16.9570    5.4000 N.ar   16  DA16       -0.2048
    329  C4         5.2200   16.9930    4.0950 C.ar   16  DA16        0.1691
    330  P          5.0940   22.8720    3.3050 P.3    17  DG17        0.2141
    331  OP1        5.2790   24.2550    3.7800 O.3    17  DG17       -0.4373
    332  OP2        5.8780   22.3770    2.1530 O.2    17  DG17       -0.5172
    333  O5'        5.3780   21.9820    4.5720 O.3    17  DG17       -0.3114
    334  C5'        5.2480   22.6180    5.7890 C.3    17  DG17        0.1811
    335  C4'        6.3410   22.0780    6.6830 C.3    17  DG17        0.1746
    336  O4'        6.3180   20.6300    6.6800 O.3    17  DG17       -0.3327
    337  C3'        7.7450   22.3960    6.2250 C.3    17  DG17        0.1558
    338  O3'        8.0130   23.7330    6.5960 O.3    17  DG17       -0.3138
    339  C2'        8.5040   21.3690    7.0630 C.3    17  DG17        0.0865
    340  C1'        7.6120   20.1390    6.9580 C.3    17  DG17        0.2094
    341  N9         7.9230   19.1990    5.8630 N.ar   17  DG17       -0.2713
    342  C8         7.5140   19.1410    4.5530 C.ar   17  DG17        0.1816
    343  N7         8.2510   18.3530    3.8170 N.ar   17  DG17       -0.2173
    344  C5         9.2010   17.8580    4.6910 C.ar   17  DG17        0.1748
    345  C6        10.2750   16.9560    4.4730 C.ar   17  DG17        0.3023
    346  O6        10.6040   16.3970    3.4190 O.2    17  DG17       -0.2633
    347  N1        11.0020   16.7210    5.6370 N.ar   17  DG17       -0.1709
    348  C2        10.7280   17.2860    6.8600 C.ar   17  DG17        0.2606
    349  N2        11.5410   16.9370    7.8670 N.pl3  17  DG17       -0.0859
    350  N3         9.7350   18.1250    7.0770 N.ar   17  DG17       -0.1918
    351  C4         9.0160   18.3690    5.9610 C.ar   17  DG17        0.1722
    352  P          9.4130   24.4210    6.1580 P.3    18  DA18        0.2141
    353  OP1        8.9130   24.9630    7.4590 O.3    18  DA18       -0.4373
    354  OP2        9.1570   25.0910    4.8680 O.2    18  DA18       -0.5172
    355  O5'       10.9680   24.1670    6.3110 O.3    18  DA18       -0.3114
    356  C5'       11.2840   23.7290    7.6120 C.3    18  DA18        0.1811
    357  C4'       12.3250   22.6580    7.5630 C.3    18  DA18        0.1746
    358  O4'       11.7780   21.4350    7.0600 O.3    18  DA18       -0.3327
    359  C3'       13.4340   22.9620    6.5830 C.3    18  DA18        0.1558
    360  O3'       14.2600   23.9950    7.0840 O.3    18  DA18       -0.3138
    361  C2'       14.0670   21.5920    6.6130 C.3    18  DA18        0.0865
    362  C1'       12.8180   20.7310    6.4250 C.3    18  DA18        0.2094
    363  N9        12.3210   20.3320    5.1150 N.ar   18  DA18       -0.2714
    364  C8        11.1820   20.8320    4.5400 C.ar   18  DA18        0.1815
    365  N7        10.9030   20.3040    3.3710 N.ar   18  DA18       -0.2193
    366  C5        11.9310   19.3970    3.1640 C.ar   18  DA18        0.1518
    367  C6        12.2140   18.5150    2.1070 C.ar   18  DA18        0.1919
    368  N6        11.4530   18.3990    1.0160 N.pl3  18  DA18       -0.1054
    369  N1        13.3200   17.7460    2.2120 N.ar   18  DA18       -0.2040
    370  C2        14.0810   17.8630    3.3060 C.ar   18  DA18        0.2016
    371  N3        13.9180   18.6540    4.3640 N.ar   18  DA18       -0.2048
    372  C4        12.8120   19.4040    4.2290 C.ar   18  DA18        0.1691
    373  P         15.3270   24.8490    6.1260 P.3    19  DT19        0.2141
    374  OP1       16.3010   25.6250    6.9290 O.3    19  DT19       -0.4373
    375  OP2       14.3860   25.5580    5.2190 O.2    19  DT19       -0.5172
    376  O5'       16.1050   23.7870    5.2330 O.3    19  DT19       -0.3113
    377  C5'       16.9870   22.8270    5.8340 C.3    19  DT19        0.1836
    378  C4'       17.5890   21.9450    4.7720 C.3    19  DT19        0.1992
    379  O4'       16.6040   21.0010    4.2760 O.3    19  DT19       -0.3301
    380  C3'       18.0570   22.6760    3.5290 C.3    19  DT19        0.2381
    381  O3'       19.3370   23.2470    3.6660 O.3    19  DT19       -0.2491
    382  C2'       18.0480   21.5910    2.4620 C.3    19  DT19        0.1137
    383  C1'       16.8710   20.7200    2.9090 C.3    19  DT19        0.2132
    384  N1        15.7120   21.0410    2.1240 N.ar   19  DT19       -0.2558
    385  C2        15.7410   20.8120    0.7610 C.ar   19  DT19        0.3545
    386  O2        16.6870   20.2950    0.1940 O.2    19  DT19       -0.2443
    387  N3        14.6160   21.2140    0.0810 N.ar   19  DT19       -0.1533
    388  C4        13.4920   21.8080    0.6140 C.ar   19  DT19        0.2804
    389  O4        12.5590   22.1120   -0.1250 O.2    19  DT19       -0.2654
    390  C5        13.5390   22.0130    2.0350 C.ar   19  DT19        0.0534
    391  C6        14.6200   21.6320    2.7210 C.ar   19  DT19        0.0824
    392  C7        12.3630   22.6540    2.7100 C.3    19  DT19        0.0377
    393  P         19.8600   24.1910    2.4870 P.3    20  DG20        0.4833
    394  OP1       20.5080   25.4870    2.7980 O.2    20  DG20       -0.2269
    395  OP2       18.3880   24.0950    2.3850 O.3    20  DG20       -0.2491
    396  O5'       20.4820   23.6330    1.1220 O.3    20  DG20       -0.2704
    397  C5'       20.7490   22.2410    0.9930 C.3    20  DG20        0.1856
    398  C4'       20.7420   21.7910   -0.4610 C.3    20  DG20        0.1748
    399  O4'       19.4510   21.2090   -0.7940 O.3    20  DG20       -0.3327
    400  C3'       20.9480   22.8900   -1.4960 C.3    20  DG20        0.1558
    401  O3'       22.3370   23.1240   -1.7040 O.3    20  DG20       -0.3138
    402  C2'       20.2900   22.2500   -2.7130 C.3    20  DG20        0.0865
    403  C1'       19.0460   21.6320   -2.0820 C.3    20  DG20        0.2093
    404  N9        18.1080   22.7480   -1.9900 N.ar   20  DG20       -0.2728
    405  C8        17.8210   23.3440   -0.7860 C.ar   20  DG20        0.1814
    406  N7        16.8180   24.1770   -0.8500 N.ar   20  DG20       -0.2177
    407  C5        16.4150   24.1290   -2.1710 C.ar   20  DG20        0.1711
    408  C6        15.3730   24.8170   -2.8450 C.2    20  DG20        0.2985
    409  O6        14.5710   25.6360   -2.3800 O.2    20  DG20       -0.2655
    410  N1        15.3090   24.4750   -4.1930 N.am   20  DG20       -0.1042
    411  C2        16.1460   23.5790   -4.8150 C.1    20  DG20        0.1459
    412  N2        15.9290   23.3780   -6.1220 N.2    20  DG20       -0.0041
    413  N3        17.1190   22.9330   -4.2030 N.pl3  20  DG20       -0.1259
    414  C4        17.2000   23.2510   -2.8930 C.ar   20  DG20        0.1688
    415  P         22.8340   24.5550   -1.8430 P.3    21  DC21        0.2141
    416  OP1       24.2880   24.4850   -1.5540 O.2    21  DC21       -0.5172
    417  OP2       21.9870   25.5430   -1.1260 O.3    21  DC21       -0.4373
    418  O5'       22.6540   24.7590   -3.4090 O.3    21  DC21       -0.3114
    419  C5'       22.9940   23.7180   -4.3130 C.3    21  DC21        0.1811
    420  C4'       22.3380   23.9660   -5.6420 C.3    21  DC21        0.1746
    421  O4'       20.9070   23.7600   -5.5340 O.3    21  DC21       -0.3327
    422  C3'       22.4540   25.3950   -6.1300 C.3    21  DC21        0.1558
    423  O3'       23.7130   25.6160   -6.7340 O.3    21  DC21       -0.3138
    424  C2'       21.3040   25.4840   -7.1230 C.3    21  DC21        0.0866
    425  C1'       20.2350   24.6490   -6.4130 C.3    21  DC21        0.2106
    426  N1        19.2750   25.4240   -5.6110 N.ar   21  DC21       -0.2556
    427  C2        18.3190   26.1930   -6.2840 C.ar   21  DC21        0.3531
    428  O2        18.3000   26.1700   -7.5260 O.2    21  DC21       -0.2443
    429  N3        17.4460   26.9380   -5.5640 N.ar   21  DC21       -0.1737
    430  C4        17.5050   26.9330   -4.2320 C.ar   21  DC21        0.1782
    431  N4        16.6240   27.6830   -3.5650 N.pl3  21  DC21       -0.0961
    432  C5        18.4660   26.1610   -3.5310 C.ar   21  DC21        0.0568
    433  C6        19.3260   25.4260   -4.2460 C.ar   21  DC21        0.0849
    434  P         24.3740   26.9010   -6.5110 P.3    22  DG22        0.2141
    435  OP1       25.7470   26.5420   -6.9420 O.2    22  DG22       -0.5172
    436  OP2       24.0870   27.1280   -5.0720 O.3    22  DG22       -0.4373
    437  O5'       23.9090   28.1870   -7.3460 O.3    22  DG22       -0.3114
    438  C5'       23.6500   28.0850   -8.7430 C.3    22  DG22        0.1811
    439  C4'       22.5980   29.0890   -9.1970 C.3    22  DG22        0.1746
    440  O4'       21.2630   28.6090   -8.8730 O.3    22  DG22       -0.3327
    441  C3'       22.6530   30.4830   -8.5780 C.3    22  DG22        0.1558
    442  O3'       23.6870   31.2600   -9.1910 O.3    22  DG22       -0.3138
    443  C2'       21.2480   30.9430   -8.9580 C.3    22  DG22        0.0865
    444  C1'       20.4370   29.7170   -8.5580 C.3    22  DG22        0.2093
    445  N9        20.0330   29.7350   -7.1360 N.ar   22  DG22       -0.2728
    446  C8        20.5890   29.0440   -6.0870 C.ar   22  DG22        0.1814
    447  N7        20.0740   29.3610   -4.9300 N.ar   22  DG22       -0.2177
    448  C5        19.1210   30.3150   -5.2300 C.ar   22  DG22        0.1711
    449  C6        18.2370   31.0340   -4.3840 C.2    22  DG22        0.2985
    450  O6        18.1230   30.9590   -3.1540 O.2    22  DG22       -0.2655
    451  N1        17.4300   31.9130   -5.1010 N.am   22  DG22       -0.1056
    452  C2        17.4700   32.0790   -6.4650 C.1    22  DG22        0.1248
    453  N2        16.6130   32.9740   -6.9760 N.2    22  DG22       -0.1048
    454  N3        18.2860   31.4200   -7.2630 N.pl3  22  DG22       -0.1273
    455  C4        19.0790   30.5610   -6.5890 C.ar   22  DG22        0.1687
    456  P         24.1670   32.7400   -8.6690 P.3    23  DA23        0.2141
    457  OP1       25.0690   33.3800   -9.6510 O.2    23  DA23       -0.5172
    458  OP2       24.4950   32.7810   -7.2220 O.3    23  DA23       -0.4373
    459  O5'       22.6780   33.2760   -8.8750 O.3    23  DA23       -0.3114
    460  C5'       22.4400   33.9700  -10.0350 C.3    23  DA23        0.1811
    461  C4'       20.9970   34.4010  -10.0510 C.3    23  DA23        0.1744
    462  O4'       20.3230   33.4690   -9.2210 O.3    23  DA23       -0.3349
    463  C3'       20.6910   35.6560   -9.3110 C.3    23  DA23        0.1555
    464  O3'       20.8760   36.7350  -10.1450 O.3    23  DA23       -0.3139
    465  C2'       19.2410   35.4610   -8.9710 C.3    23  DA23        0.0835
    466  C1'       19.2070   34.0310   -8.5890 C.3    23  DA23        0.1973
    467  N9        19.3960   33.7410   -7.1820 N.pl3  23  DA23       -0.2477
    468  C8        20.4750   33.1690   -6.5600 C.2    23  DA23        0.1667
    469  N7        20.3270   33.0350   -5.2630 N.2    23  DA23       -0.2209
    470  C5        19.0660   33.5540   -5.0170 C.2    23  DA23        0.1899
    471  C6        18.3180   33.7020   -3.8360 C.2    23  DA23        0.4337
    472  N6        18.7540   33.3220   -2.6320 N.pl3  23  DA23        0.2179
    473  N1        17.0930   34.2600   -3.9360 N.2    23  DA23       -0.0082
    474  C2        16.6570   34.6400   -5.1430 C.2    23  DA23        0.3277
    475  N3        17.2660   34.5520   -6.3230 N.pl3  23  DA23       -0.1370
    476  C4        18.4810   33.9940   -6.1890 C.3    23  DA23        0.2268
    477  P         21.6020   37.8490   -9.3780 P.3    24  DT24        0.2141
    478  OP1       22.0550   38.7880  -10.4290 O.2    24  DT24       -0.5172
    479  OP2       22.5910   37.2900   -8.4260 O.3    24  DT24       -0.4373
    480  O5'       20.4240   38.5640   -8.5640 O.3    24  DT24       -0.3114
    481  C5'       19.3620   39.1800   -9.2840 C.3    24  DT24        0.1811
    482  C4'       18.1720   39.4880   -8.3960 C.3    24  DT24        0.1746
    483  O4'       17.5900   38.2720   -7.8580 O.3    24  DT24       -0.3327
    484  C3'       18.4830   40.3050   -7.1560 C.3    24  DT24        0.1558
    485  O3'       18.7030   41.6720   -7.4790 O.3    24  DT24       -0.3138
    486  C2'       17.2240   40.0480   -6.3370 C.3    24  DT24        0.0866
    487  C1'       17.1100   38.5340   -6.5430 C.3    24  DT24        0.2106
    488  N1        17.8980   37.7180   -5.5080 N.ar   24  DT24       -0.2559
    489  C2        17.2910   37.4400   -4.2980 C.ar   24  DT24        0.3545
    490  O2        16.1920   37.8690   -3.9920 O.2    24  DT24       -0.2443
    491  N3        18.0200   36.6400   -3.4520 N.ar   24  DT24       -0.1533
    492  C4        19.2670   36.1000   -3.6890 C.ar   24  DT24        0.2804
    493  O4        19.7950   35.3980   -2.8310 O.2    24  DT24       -0.2654
    494  C5        19.8310   36.4350   -4.9670 C.ar   24  DT24        0.0534
    495  C6        19.1440   37.2120   -5.8080 C.ar   24  DT24        0.0824
    496  C7        21.1860   35.8970   -5.3190 C.3    24  DT24        0.0377
    497  P         19.9250   42.2150   -7.0980 P.3    25  DC25        0.2141
    498  OP1       20.4010   43.4830   -7.6970 O.2    25  DC25       -0.5172
    499  OP2       20.8630   41.0900   -6.8700 O.3    25  DC25       -0.4373
    500  O5'       19.3220   42.5100   -5.6400 O.3    25  DC25       -0.3114
    501  C5'       18.4560   43.6220   -5.4390 C.3    25  DC25        0.1811
    502  C4'       17.5730   43.4730   -4.2220 C.3    25  DC25        0.1746
    503  O4'       17.0470   42.1220   -4.1450 O.3    25  DC25       -0.3327
    504  C3'       18.2360   43.6590   -2.8690 C.3    25  DC25        0.1558
    505  O3'       18.4680   45.0150   -2.5240 O.3    25  DC25       -0.3138
    506  C2'       17.2500   42.9540   -1.9490 C.3    25  DC25        0.0866
    507  C1'       16.8920   41.7370   -2.7960 C.3    25  DC25        0.2106
    508  N1        17.7990   40.5360   -2.4230 N.ar   25  DC25       -0.2556
    509  C2        17.6940   39.8960   -1.1830 C.ar   25  DC25        0.3531
    510  O2        16.9540   40.3900   -0.3150 O.2    25  DC25       -0.2443
    511  N3        18.4010   38.7610   -0.9650 N.ar   25  DC25       -0.1739
    512  C4        19.1830   38.2680   -1.9250 C.ar   25  DC25        0.1759
    513  N4        19.8610   37.1470   -1.6650 N.pl3  25  DC25       -0.1070
    514  C5        19.3030   38.9020   -3.1890 C.ar   25  DC25        0.0566
    515  C6        18.6030   40.0220   -3.4000 C.ar   25  DC25        0.0849
    516  P         19.7910   45.3320   -2.0600 P.3    26  DT26        0.2141
    517  OP1       19.4880   46.7050   -2.5080 O.3    26  DT26       -0.4373
    518  OP2       21.0310   44.6670   -2.5160 O.2    26  DT26       -0.5172
    519  O5'       19.8180   45.3310   -0.4680 O.3    26  DT26       -0.3114
    520  C5'       18.7250   45.8530    0.2870 C.3    26  DT26        0.1812
    521  C4'       18.1390   44.7740    1.1680 C.3    26  DT26        0.1775
    522  O4'       18.1530   43.5210    0.4330 O.3    26  DT26       -0.3326
    523  C3'       18.8590   44.3860    2.4490 C.3    26  DT26        0.1859
    524  O3'       18.6120   45.3060    3.5100 O.3    26  DT26       -0.2203
    525  C2'       18.1890   43.0510    2.7480 C.3    26  DT26        0.0895
    526  C1'       18.1130   42.4400    1.3520 C.3    26  DT26        0.2107
    527  N1        19.1750   41.6600    1.1090 N.ar   26  DT26       -0.2573
    528  C2        19.2960   40.3440    1.5150 C.ar   26  DT26        0.3344
    529  O2        18.5390   39.8240    2.3140 O.3    26  DT26       -0.3054
    530  N3        20.3420   39.6550    0.9490 N.ar   26  DT26       -0.1548
    531  C4        21.2590   40.1390    0.0390 C.ar   26  DT26        0.2804
    532  O4        22.1440   39.3980   -0.3800 O.2    26  DT26       -0.2654
    533  C5        21.0670   41.5130   -0.3320 C.ar   26  DT26        0.0534
    534  C6        20.0580   42.2060    0.2030 C.ar   26  DT26        0.0824
    535  C7        22.0140   42.1320   -1.3170 C.3    26  DT26        0.0377
    536  P         19.7320   45.1720    5.3780 P.3    27  DG27        0.5411
    537  OP1       19.7890   46.6500    5.3360 O.2    27  DG27       -0.2272
    538  OP2       20.9630   44.3570    5.2820 O.2    27  DG27       -0.2272
    539  O5'       19.0510   44.6970    6.7460 O.3    27  DG27       -0.2722
    540  C5'       18.4060   43.4300    6.7840 C.3    27  DG27        0.1850
    541  C4'       17.2230   43.4310    7.7190 C.3    27  DG27        0.1748
    542  O4'       16.1200   44.1070    7.0560 O.3    27  DG27       -0.3327
    543  C3'       16.7230   42.0400    8.0950 C.3    27  DG27        0.1558
    544  O3'       16.8900   41.7600    9.4790 O.3    27  DG27       -0.3138
    545  C2'       15.2570   41.9630    7.6670 C.3    27  DG27        0.0865
    546  C1'       14.9880   43.2720    6.9250 C.3    27  DG27        0.2093
    547  N9        15.0480   42.6060    5.4190 N.ar   27  DG27       -0.2728
    548  C8        14.2700   43.6470    4.9730 C.ar   27  DG27        0.1814
    549  N7        14.2010   43.7170    3.6710 N.ar   27  DG27       -0.2177
    550  C5        14.9770   42.6610    3.2290 C.ar   27  DG27        0.1711
    551  C6        15.2830   42.2280    1.9130 C.2    27  DG27        0.2985
    552  O6        14.9090   42.7170    0.8390 O.2    27  DG27       -0.2655
    553  N1        16.1110   41.1090    1.9130 N.am   27  DG27       -0.1042
    554  C2        16.5870   40.4850    3.0410 C.1    27  DG27        0.1459
    555  N2        17.3730   39.4190    2.8390 N.2    27  DG27       -0.0041
    556  N3        16.3120   40.8760    4.2700 N.pl3  27  DG27       -0.1259
    557  C4        15.5090   41.9610    4.2940 C.ar   27  DG27        0.1688
    558  P         17.2820   39.8760    9.9550 P.3    28  DG28        0.2141
    559  OP1       16.1170   39.3050   10.6660 O.2    28  DG28       -0.5172
    560  OP2       18.3810   40.4860   10.7360 O.3    28  DG28       -0.4373
    561  O5'       17.8820   38.6380    9.1180 O.3    28  DG28       -0.3114
    562  C5'       17.2150   37.3860    8.9610 C.3    28  DG28        0.1811
    563  C4'       16.5980   37.2580    7.5860 C.3    28  DG28        0.1746
    564  O4'       17.6220   37.2370    6.5580 O.3    28  DG28       -0.3327
    565  C3'       15.7130   36.0550    7.2880 C.3    28  DG28        0.1558
    566  O3'       14.3930   36.2560    7.7710 O.3    28  DG28       -0.3138
    567  C2'       15.7660   35.9480    5.7610 C.3    28  DG28        0.0865
    568  C1'       17.1060   36.6040    5.4060 C.3    28  DG28        0.2094
    569  N9        17.7850   35.7040    4.6040 N.ar   28  DG28       -0.2713
    570  C8        18.9170   34.9280    4.6600 C.ar   28  DG28        0.1816
    571  N7        19.5690   34.8860    3.5300 N.ar   28  DG28       -0.2173
    572  C5        18.8280   35.6820    2.6760 C.ar   28  DG28        0.1748
    573  C6        19.0360   36.0170    1.3130 C.ar   28  DG28        0.3023
    574  O6        19.9570   35.6590    0.5680 O.2    28  DG28       -0.2633
    575  N1        18.0380   36.8560    0.8260 N.ar   28  DG28       -0.1709
    576  C2        16.9710   37.3150    1.5600 C.ar   28  DG28        0.2606
    577  N2        16.1120   38.1170    0.9170 N.pl3  28  DG28       -0.0859
    578  N3        16.7640   37.0120    2.8270 N.ar   28  DG28       -0.1918
    579  C4        17.7210   36.1970    3.3210 C.ar   28  DG28        0.1722
    580  P         13.5670   34.8700    7.8460 P.3    29  DA29        0.2141
    581  OP1       12.4450   34.3390    8.6500 O.3    29  DA29       -0.4373
    582  OP2       14.8630   34.1500    7.8480 O.2    29  DA29       -0.5172
    583  O5'       13.1680   34.9830    6.2910 O.3    29  DA29       -0.3114
    584  C5'       11.9050   35.5300    5.9210 C.3    29  DA29        0.1811
    585  C4'       11.8790   36.2420    4.5800 C.3    29  DA29        0.1746
    586  O4'       13.1940   36.7320    4.1920 O.3    29  DA29       -0.3327
    587  C3'       11.4510   35.4290    3.3680 C.3    29  DA29        0.1558
    588  O3'       10.0580   35.1840    3.3000 O.3    29  DA29       -0.3138
    589  C2'       11.9470   36.2970    2.2200 C.3    29  DA29        0.0865
    590  C1'       13.2690   36.8180    2.7780 C.3    29  DA29        0.2094
    591  N9        14.3840   35.9700    2.2040 N.ar   29  DA29       -0.2714
    592  C8        15.2170   35.0790    2.8280 C.ar   29  DA29        0.1815
    593  N7        16.1840   34.6330    2.0610 N.ar   29  DA29       -0.2193
    594  C5        15.9690   35.2730    0.8510 C.ar   29  DA29        0.1518
    595  C6        16.6520   35.2280   -0.3770 C.ar   29  DA29        0.1919
    596  N6        17.7350   34.4770   -0.5940 N.pl3  29  DA29       -0.1054
    597  N1        16.1780   35.9890   -1.3860 N.ar   29  DA29       -0.2040
    598  C2        15.0930   36.7420   -1.1680 C.ar   29  DA29        0.2016
    599  N3        14.3680   36.8690   -0.0590 N.ar   29  DA29       -0.2048
    600  C4        14.8640   36.0990    0.9240 C.ar   29  DA29        0.1691
    601  P          9.6460   34.1220    2.4530 P.3    30  DT30        0.2141
    602  OP1        8.4990   33.5170    3.1800 O.3    30  DT30       -0.4373
    603  OP2       10.7090   33.3440    1.7850 O.2    30  DT30       -0.5172
    604  O5'        9.0770   35.1990    1.4000 O.3    30  DT30       -0.3114
    605  C5'        9.0570   34.7960    0.0280 C.3    30  DT30        0.1811
    606  C4'       10.0780   35.5300   -0.8140 C.3    30  DT30        0.1746
    607  O4'       11.4010   35.5470   -0.2340 O.3    30  DT30       -0.3327
    608  C3'       10.3930   34.7640   -2.0630 C.3    30  DT30        0.1558
    609  O3'        9.3770   34.7930   -2.9560 O.3    30  DT30       -0.3138
    610  C2'       11.5410   35.5450   -2.5970 C.3    30  DT30        0.0866
    611  C1'       12.2530   35.8470   -1.3120 C.3    30  DT30        0.2106
    612  N1        13.2810   34.5970   -1.3360 N.ar   30  DT30       -0.2559
    613  C2        14.3040   34.3740   -2.2380 C.ar   30  DT30        0.3545
    614  O2        14.4050   34.9800   -3.2900 O.2    30  DT30       -0.2443
    615  N3        15.2090   33.4100   -1.8650 N.ar   30  DT30       -0.1533
    616  C4        15.1950   32.6630   -0.7050 C.ar   30  DT30        0.2804
    617  O4        16.0790   31.8340   -0.5090 O.2    30  DT30       -0.2654
    618  C5        14.1020   32.9520    0.1800 C.ar   30  DT30        0.0534
    619  C6        13.2070   33.8850   -0.1590 C.ar   30  DT30        0.0824
    620  C7        13.9990   32.1910    1.4690 C.3    30  DT30        0.0377
    621  P          9.0590   33.5100   -3.5960 P.3    31  DA31        0.2141
    622  OP1        7.6700   33.6860   -4.0920 O.2    31  DA31       -0.5172
    623  OP2        9.3730   32.3840   -2.6840 O.3    31  DA31       -0.4373
    624  O5'       10.0060   33.4030   -4.8670 O.3    31  DA31       -0.3114
    625  C5'        9.6280   33.9820   -6.1050 C.3    31  DA31        0.1811
    626  C4'       10.3040   33.2540   -7.2360 C.3    31  DA31        0.1746
    627  O4'       11.7360   33.2580   -6.9890 O.3    31  DA31       -0.3327
    628  C3'        9.9580   31.7790   -7.3530 C.3    31  DA31        0.1558
    629  O3'        8.7620   31.5820   -8.1050 O.3    31  DA31       -0.3138
    630  C2'       11.1750   31.2200   -8.0790 C.3    31  DA31        0.0865
    631  C1'       12.3040   32.0410   -7.4490 C.3    31  DA31        0.2094
    632  N9        12.9390   31.3710   -6.3900 N.ar   31  DA31       -0.2714
    633  C8        12.6120   31.4200   -5.0600 C.ar   31  DA31        0.1815
    634  N7        13.3390   30.6290   -4.3070 N.ar   31  DA31       -0.2191
    635  C5        14.2020   30.0180   -5.2030 C.ar   31  DA31        0.1543
    636  C6        15.2250   29.0690   -5.0340 C.ar   31  DA31        0.2036
    637  N6        15.5640   28.5500   -3.8520 N.2    31  DA31       -0.1362
    638  N1        15.8950   28.6670   -6.1350 N.ar   31  DA31       -0.2018
    639  C2        15.5550   29.1880   -7.3200 C.ar   31  DA31        0.2017
    640  N3        14.6140   30.0860   -7.6040 N.ar   31  DA31       -0.2048
    641  C4        13.9660   30.4640   -6.4900 C.ar   31  DA31        0.1693
    642  P          7.9030   30.2440   -7.9010 P.3    32  DT32        0.2141
    643  OP1        6.6160   30.3870   -8.6180 O.2    32  DT32       -0.5172
    644  OP2        8.1240   29.1220   -6.9600 O.3    32  DT32       -0.4373
    645  O5'        9.0930   30.1130   -8.9640 O.3    32  DT32       -0.3114
    646  C5'        9.3380   28.8640   -9.5920 C.3    32  DT32        0.1811
    647  C4'       10.8000   28.6610   -9.9080 C.3    32  DT32        0.1746
    648  O4'       11.6310   29.2390   -8.8680 O.3    32  DT32       -0.3327
    649  C3'       11.2510   27.2120   -9.9580 C.3    32  DT32        0.1558
    650  O3'       10.9170   26.5670  -11.1730 O.3    32  DT32       -0.3138
    651  C2'       12.7470   27.3190   -9.6980 C.3    32  DT32        0.0866
    652  C1'       12.7660   28.4290   -8.6480 C.3    32  DT32        0.2106
    653  N1        12.5770   27.6730   -7.2280 N.ar   32  DT32       -0.2559
    654  C2        13.5110   26.8360   -6.6480 C.ar   32  DT32        0.3545
    655  O2        14.4340   26.3390   -7.2680 O.2    32  DT32       -0.2443
    656  N3        13.3260   26.6000   -5.3070 N.ar   32  DT32       -0.1533
    657  C4        12.3220   27.1050   -4.5070 C.ar   32  DT32        0.2804
    658  O4        12.2880   26.8030   -3.3160 O.2    32  DT32       -0.2654
    659  C5        11.3910   27.9640   -5.1830 C.ar   32  DT32        0.0534
    660  C6        11.5480   28.2110   -6.4860 C.ar   32  DT32        0.0824
    661  C7        10.2620   28.5630   -4.3980 C.3    32  DT32        0.0377
    662  P         10.2690   25.5480  -10.9850 P.3    33  DT33        0.2141
    663  OP1        9.1370   25.1570  -11.8550 O.2    33  DT33       -0.5172
    664  OP2       10.4500   24.8390   -9.6990 O.3    33  DT33       -0.4373
    665  O5'       11.6430   25.4670  -11.8040 O.3    33  DT33       -0.3114
    666  C5'       12.2360   24.2010  -11.9950 C.3    33  DT33        0.1811
    667  C4'       13.5990   24.0750  -11.3370 C.3    33  DT33        0.1746
    668  O4'       13.8130   25.0050  -10.2460 O.3    33  DT33       -0.3327
    669  C3'       13.8600   22.7580  -10.6260 C.3    33  DT33        0.1558
    670  O3'       13.8940   21.6710  -11.5290 O.3    33  DT33       -0.3138
    671  C2'       15.1880   23.1000   -9.9510 C.3    33  DT33        0.0866
    672  C1'       14.7360   24.4190   -9.3330 C.3    33  DT33        0.2106
    673  N1        13.9690   24.0960   -8.0250 N.ar   33  DT33       -0.2573
    674  C2        14.5790   23.6980   -6.8500 C.ar   33  DT33        0.3344
    675  O2        15.7100   23.2480   -6.8090 O.3    33  DT33       -0.3054
    676  N3        13.8130   23.8430   -5.7190 N.ar   33  DT33       -0.1548
    677  C4        12.5270   24.3370   -5.6460 C.ar   33  DT33        0.2804
    678  O4        11.9670   24.4080   -4.5550 O.2    33  DT33       -0.2654
    679  C5        11.9630   24.7280   -6.9070 C.ar   33  DT33        0.0534
    680  C6        12.6860   24.5970   -8.0230 C.ar   33  DT33        0.0824
    681  C7        10.5670   25.2770   -6.9320 C.3    33  DT33        0.0377
    682  P         12.4700   20.5300  -11.5200 P.3    34  DA34        0.2141
    683  OP1       12.1270   19.9920  -12.8540 O.2    34  DA34       -0.5172
    684  OP2       11.3920   20.9760  -10.6080 O.3    34  DA34       -0.4373
    685  O5'       13.2770   19.4310  -10.6770 O.3    34  DA34       -0.3114
    686  C5'       14.4530   18.8370  -11.2090 C.3    34  DA34        0.1811
    687  C4'       15.5300   18.6820  -10.1630 C.3    34  DA34        0.1746
    688  O4'       15.5650   19.8640   -9.3240 O.3    34  DA34       -0.3327
    689  C3'       15.3560   17.5350   -9.1810 C.3    34  DA34        0.1558
    690  O3'       15.8090   16.2950   -9.6950 O.3    34  DA34       -0.3138
    691  C2'       16.1480   18.0030   -7.9670 C.3    34  DA34        0.0865
    692  C1'       15.9120   19.5130   -8.0020 C.3    34  DA34        0.2094
    693  N9        14.7760   19.9380   -7.1710 N.ar   34  DA34       -0.2714
    694  C8        13.5320   20.3850   -7.5330 C.ar   34  DA34        0.1815
    695  N7        12.7840   20.7480   -6.5180 N.ar   34  DA34       -0.2193
    696  C5        13.5920   20.5230   -5.4140 C.ar   34  DA34        0.1518
    697  C6        13.3830   20.7080   -4.0360 C.ar   34  DA34        0.1919
    698  N6        12.2480   21.1830   -3.5170 N.pl3  34  DA34       -0.1054
    699  N1        14.3930   20.3840   -3.2000 N.ar   34  DA34       -0.2040
    700  C2        15.5300   19.9090   -3.7210 C.ar   34  DA34        0.2016
    701  N3        15.8450   19.6930   -4.9960 N.ar   34  DA34       -0.2048
    702  C4        14.8210   20.0230   -5.8010 C.ar   34  DA34        0.1691
    703  P         15.2610   14.9120   -9.0670 P.3    35  DT35        0.2141
    704  OP1       15.6720   13.8670  -10.0290 O.2    35  DT35       -0.5172
    705  OP2       13.8360   15.2980   -8.9570 O.3    35  DT35       -0.4373
    706  O5'       15.8030   14.4870   -7.6190 O.3    35  DT35       -0.3114
    707  C5'       17.0650   13.8410   -7.4960 C.3    35  DT35        0.1811
    708  C4'       17.6440   14.0130   -6.1020 C.3    35  DT35        0.1746
    709  O4'       17.4250   15.3760   -5.6690 O.3    35  DT35       -0.3327
    710  C3'       17.0090   13.1820   -4.9960 C.3    35  DT35        0.1558
    711  O3'       17.5460   11.8660   -4.9550 O.3    35  DT35       -0.3138
    712  C2'       17.4400   13.9740   -3.7680 C.3    35  DT35        0.0866
    713  C1'       17.2700   15.4030   -4.2660 C.3    35  DT35        0.2106
    714  N1        15.9360   15.8800   -3.9200 N.ar   35  DT35       -0.2559
    715  C2        15.6440   16.2000   -2.6070 C.ar   35  DT35        0.3545
    716  O2        16.4310   16.0350   -1.6920 O.2    35  DT35       -0.2443
    717  N3        14.3890   16.7210   -2.4020 N.ar   35  DT35       -0.1533
    718  C4        13.4190   16.9500   -3.3550 C.ar   35  DT35        0.2804
    719  O4        12.3380   17.4260   -3.0170 O.2    35  DT35       -0.2654
    720  C5        13.7980   16.5910   -4.6930 C.ar   35  DT35        0.0534
    721  C6        15.0110   16.0820   -4.9210 C.ar   35  DT35        0.0824
    722  C7        12.8100   16.8010   -5.8020 C.3    35  DT35        0.0377
    723  P         16.7260   10.8440   -4.2940 P.3    36  DT36        0.2141
    724  OP1       17.1280    9.4150   -4.4080 O.3    36  DT36       -0.4373
    725  OP2       15.2900   11.2060   -4.4570 O.2    36  DT36       -0.5172
    726  O5'       17.2680   11.4350   -2.9010 O.3    36  DT36       -0.3114
    727  C5'       18.2190   10.7230   -2.0770 C.3    36  DT36        0.1811
    728  C4'       18.5630   11.5020   -0.7920 C.3    36  DT36        0.1746
    729  O4'       18.2760   12.9190   -0.9660 O.3    36  DT36       -0.3327
    730  C3'       17.8500   11.1390    0.5170 C.3    36  DT36        0.1558
    731  O3'       18.4200   10.0510    1.2320 O.3    36  DT36       -0.3138
    732  C2'       18.0000   12.4040    1.3430 C.3    36  DT36        0.0866
    733  C1'       17.8680   13.4800    0.2720 C.3    36  DT36        0.2106
    734  N1        16.3410   13.8230    0.1410 N.ar   36  DT36       -0.2559
    735  C2        15.8570   14.8550    0.9220 C.ar   36  DT36        0.3545
    736  O2        16.5210   15.4040    1.7840 O.2    36  DT36       -0.2443
    737  N3        14.5600   15.2240    0.6590 N.ar   36  DT36       -0.1533
    738  C4        13.7180   14.6770   -0.2860 C.ar   36  DT36        0.2804
    739  O4        12.5770   15.1170   -0.4060 O.2    36  DT36       -0.2654
    740  C5        14.2930   13.6100   -1.0560 C.ar   36  DT36        0.0534
    741  C6        15.5520   13.2310   -0.8210 C.ar   36  DT36        0.0824
    742  C7        13.4550   12.9490   -2.1100 C.3    36  DT36        0.0377
    743  P         17.5080    9.0150    2.0120 P.3    37  DT37        0.2141
    744  OP1       18.0610    7.6800    2.3400 O.3    37  DT37       -0.4373
    745  OP2       16.3010    9.1270    1.1630 O.2    37  DT37       -0.5172
    746  O5'       17.1280    9.8290    3.3390 O.3    37  DT37       -0.3114
    747  C5'       18.1080   10.6110    4.0140 C.3    37  DT37        0.1811
    748  C4'       17.5030   11.5410    5.0420 C.3    37  DT37        0.1746
    749  O4'       17.1330   12.8060    4.4270 O.3    37  DT37       -0.3327
    750  C3'       16.2250   11.0590    5.7190 C.3    37  DT37        0.1558
    751  O3'       16.4430   10.1260    6.7690 O.3    37  DT37       -0.3138
    752  C2'       15.5700   12.3610    6.1690 C.3    37  DT37        0.0866
    753  C1'       15.9500   13.3010    5.0200 C.3    37  DT37        0.2106
    754  N1        14.8520   13.3830    3.9440 N.ar   37  DT37       -0.2559
    755  C2        13.7880   14.2270    4.1980 C.ar   37  DT37        0.3545
    756  O2        13.7090   14.9130    5.2020 O.2    37  DT37       -0.2443
    757  N3        12.8120   14.2400    3.2310 N.ar   37  DT37       -0.1533
    758  C4        12.7940   13.5090    2.0610 C.ar   37  DT37        0.2804
    759  O4        11.8470   13.6280    1.2880 O.2    37  DT37       -0.2654
    760  C5        13.9330   12.6560    1.8700 C.ar   37  DT37        0.0534
    761  C6        14.8960   12.6240    2.7950 C.ar   37  DT37        0.0824
    762  C7        14.0060   11.8200    0.6270 C.3    37  DT37        0.0377
    763  P         15.3780    8.8690    7.0230 P.3    38  DT38        0.2141
    764  OP1       15.8100    7.8620    8.0200 O.3    38  DT38       -0.4373
    765  OP2       14.5970    8.4250    5.8350 O.2    38  DT38       -0.5172
    766  O5'       14.4510    9.8860    7.7990 O.3    38  DT38       -0.3114
    767  C5'       14.9580   10.5530    8.9310 C.3    38  DT38        0.1811
    768  C4'       13.9290   11.4820    9.4530 C.3    38  DT38        0.1746
    769  O4'       13.7490   12.5390    8.4720 O.3    38  DT38       -0.3327
    770  C3'       12.5570   10.8560    9.5670 C.3    38  DT38        0.1558
    771  O3'       12.3530   10.0380   10.7160 O.3    38  DT38       -0.3138
    772  C2'       11.6460   12.0710    9.4660 C.3    38  DT38        0.0866
    773  C1'       12.3820   12.9020    8.4130 C.3    38  DT38        0.2106
    774  N1        11.8220   12.7120    7.0960 N.ar   38  DT38       -0.2559
    775  C2        10.6880   13.4060    6.7220 C.ar   38  DT38        0.3545
    776  O2        10.1080   14.1810    7.4620 O.2    38  DT38       -0.2443
    777  N3        10.2510   13.1590    5.4430 N.ar   38  DT38       -0.1533
    778  C4        10.8230   12.3070    4.5210 C.ar   38  DT38        0.2804
    779  O4        10.3150   12.1910    3.4080 O.2    38  DT38       -0.2654
    780  C5        11.9960   11.6230    4.9850 C.ar   38  DT38        0.0534
    781  C6        12.4420   11.8440    6.2240 C.ar   38  DT38        0.0824
    782  C7        12.6910   10.6730    4.0550 C.3    38  DT38        0.0377
    783  P         11.2220    8.7290   10.6490 P.3    39  DT39        0.2141
    784  OP1       11.3600    7.7380   11.7450 O.3    39  DT39       -0.4373
    785  OP2       11.1620    8.3330    9.2250 O.2    39  DT39       -0.5172
    786  O5'        9.9270    9.6280   10.9310 O.3    39  DT39       -0.3114
    787  C5'        9.6760   10.1950   12.2130 C.3    39  DT39        0.1811
    788  C4'        8.6610   11.3210   12.1100 C.3    39  DT39        0.1746
    789  O4'        9.0780   12.2740   11.1050 O.3    39  DT39       -0.3327
    790  C3'        7.2780   10.9210   11.6340 C.3    39  DT39        0.1558
    791  O3'        6.5220   10.4090   12.7080 O.3    39  DT39       -0.3138
    792  C2'        6.7070   12.2550   11.1660 C.3    39  DT39        0.0866
    793  C1'        7.9370   12.8940   10.5430 C.3    39  DT39        0.2106
    794  N1         7.9470   12.6960    9.1190 N.ar   39  DT39       -0.2559
    795  C2         7.2920   13.6090    8.3150 C.ar   39  DT39        0.3545
    796  O2         6.6830   14.5670    8.7580 O.2    39  DT39       -0.2443
    797  N3         7.3740   13.3600    6.9660 N.ar   39  DT39       -0.1533
    798  C4         8.0300   12.3120    6.3540 C.ar   39  DT39        0.2804
    799  O4         8.0150   12.2220    5.1290 O.2    39  DT39       -0.2654
    800  C5         8.6850   11.4070    7.2560 C.ar   39  DT39        0.0534
    801  C6         8.6210   11.6250    8.5720 C.ar   39  DT39        0.0824
    802  C7         9.4260   10.2340    6.6870 C.3    39  DT39        0.0377
    803  P          5.4680    9.5630   12.3630 P.3    40  DG40        0.2141
    804  OP1        4.9100    8.8520   13.5340 O.3    40  DG40       -0.4373
    805  OP2        5.8990    8.8070   11.1660 O.2    40  DG40       -0.5172
    806  O5'        4.3840   10.5980   11.7980 O.3    40  DG40       -0.3114
    807  C5'        3.6400   11.4100   12.6990 C.3    40  DG40        0.1811
    808  C4'        2.8690   12.5030   11.9980 C.3    40  DG40        0.1746
    809  O4'        3.7480   13.2350   11.1030 O.3    40  DG40       -0.3327
    810  C3'        1.7180   12.0650   11.1020 C.3    40  DG40        0.1558
    811  O3'        0.5380   11.7490   11.8250 O.3    40  DG40       -0.3138
    812  C2'        1.5640   13.2640   10.1740 C.3    40  DG40        0.0865
    813  C1'        3.0210   13.6790    9.9770 C.3    40  DG40        0.2094
    814  N9         3.5690   13.0720    8.7560 N.ar   40  DG40       -0.2713
    815  C8         4.3560   11.9610    8.5700 C.ar   40  DG40        0.1816
    816  N7         4.5810   11.6940    7.3120 N.ar   40  DG40       -0.2173
    817  C5         3.9070   12.6860    6.6250 C.ar   40  DG40        0.1748
    818  C6         3.7810   12.9210    5.2310 C.ar   40  DG40        0.3023
    819  O6         4.2650   12.2690    4.2980 O.2    40  DG40       -0.2633
    820  N1         3.0020   14.0420    4.9610 N.ar   40  DG40       -0.1709
    821  C2         2.4160   14.8390    5.9150 C.ar   40  DG40        0.2606
    822  N2         1.7020   15.8780    5.4610 N.pl3  40  DG40       -0.0859
    823  N3         2.5230   14.6330    7.2130 N.ar   40  DG40       -0.1918
    824  C4         3.2740   13.5480    7.4990 C.ar   40  DG40        0.1722
    825  P         -0.6460   10.6400   11.2460 P.3    41  DA41        0.2141
    826  OP1       -1.6800   10.3090   12.2590 O.3    41  DA41       -0.4373
    827  OP2        0.1520    9.5530   10.6280 O.2    41  DA41       -0.5172
    828  O5'       -1.3400   11.4710   10.0800 O.3    41  DA41       -0.3114
    829  C5'       -1.9860   12.7110   10.3550 C.3    41  DA41        0.1811
    830  C4'       -2.4950   13.3220    9.0750 C.3    41  DA41        0.1744
    831  O4'       -1.3700   13.6760    8.2300 O.3    41  DA41       -0.3349
    832  C3'       -3.3170   12.3830    8.2140 C.3    41  DA41        0.1555
    833  O3'       -4.6650   12.3200    8.6580 O.3    41  DA41       -0.3139
    834  C2'       -3.1730   13.0040    6.8290 C.3    41  DA41        0.0835
    835  C1'       -1.7210   13.4850    6.8690 C.3    41  DA41        0.1972
    836  N9        -0.8010   12.4580    6.2250 N.pl3  41  DA41       -0.2490
    837  C8        -0.0430   11.4770    6.8100 C.2    41  DA41        0.1667
    838  N7         0.6760   10.7850    5.9570 N.2    41  DA41       -0.2210
    839  C5         0.3680   11.3500    4.7300 C.2    41  DA41        0.1881
    840  C6         0.8020   11.0660    3.4230 C.2    41  DA41        0.4336
    841  N6         1.6770   10.1020    3.1270 N.pl3  41  DA41        0.2179
    842  N1         0.3000   11.8170    2.4190 N.2    41  DA41       -0.0100
    843  C2        -0.5760   12.7840    2.7160 C.2    41  DA41        0.3067
    844  N3        -1.0580   13.1450    3.9030 N.pl3  41  DA41       -0.2444
    845  C4        -0.5410   12.3800    4.8790 C.3    41  DA41        0.2056
    846  P         -5.8410   11.0570    8.1770 P.3    42  DT42        0.2141
    847  OP1       -6.9320   10.7390    9.1320 O.3    42  DT42       -0.4373
    848  OP2       -4.8680    9.9520    8.0410 O.2    42  DT42       -0.5172
    849  O5'       -6.4620   11.4600    6.7540 O.3    42  DT42       -0.3114
    850  C5'       -7.8580   11.8280    6.7080 C.3    42  DT42        0.1811
    851  C4'       -8.2480   12.3680    5.3510 C.3    42  DT42        0.1746
    852  O4'       -7.4020   13.4530    4.9430 O.3    42  DT42       -0.3327
    853  C3'       -8.0520   11.3360    4.2610 C.3    42  DT42        0.1558
    854  O3'       -9.1820   10.4440    4.1830 O.3    42  DT42       -0.3138
    855  C2'       -7.9280   12.1930    3.0070 C.3    42  DT42        0.0866
    856  C1'       -7.1770   13.3930    3.5260 C.3    42  DT42        0.2106
    857  N1        -5.8800   13.5490    3.0610 N.ar   42  DT42       -0.2558
    858  C2        -5.6730   14.0270    1.7810 C.ar   42  DT42        0.3545
    859  O2        -6.5790   14.3890    1.0520 O.2    42  DT42       -0.2443
    860  N3        -4.3590   14.0650    1.3810 N.ar   42  DT42       -0.1533
    861  C4        -3.2570   13.6820    2.1160 C.ar   42  DT42        0.2820
    862  O4        -2.1360   13.7750    1.6200 O.2    42  DT42       -0.2653
    863  C5        -3.5540   13.1960    3.4340 C.ar   42  DT42        0.0731
    864  C6        -4.8230   13.1490    3.8490 C.ar   42  DT42        0.0841
    865  C7        -2.4210   12.7540    4.3120 C.3    42  DT42        0.1292
    866  P         -8.9500    8.8480    4.1070 P.3    43  DA43        0.2141
    867  OP1      -10.1190    7.9500    4.2990 O.2    43  DA43       -0.5172
    868  OP2       -7.6380    8.4910    4.7110 O.3    43  DA43       -0.4373
    869  O5'       -8.7250    9.0870    2.5400 O.3    43  DA43       -0.3114
    870  C5'       -9.8240    9.2790    1.6350 C.3    43  DA43        0.1811
    871  C4'       -9.3180    9.5010    0.2170 C.3    43  DA43        0.1746
    872  O4'       -8.4640   10.6800    0.2030 O.3    43  DA43       -0.3327
    873  C3'       -8.4270    8.4010   -0.3540 C.3    43  DA43        0.1558
    874  O3'       -9.1110    7.2850   -0.9090 O.3    43  DA43       -0.3138
    875  C2'       -7.5780    9.1400   -1.3740 C.3    43  DA43        0.0865
    876  C1'       -7.3450   10.4650   -0.6510 C.3    43  DA43        0.2094
    877  N9        -6.0100   10.4010    0.1420 N.ar   43  DA43       -0.2714
    878  C8        -5.8960   10.3180    1.5060 C.ar   43  DA43        0.1815
    879  N7        -4.6620   10.4150    1.9410 N.ar   43  DA43       -0.2193
    880  C5        -3.9140   10.5710    0.7850 C.ar   43  DA43        0.1518
    881  C6        -2.5340   10.7290    0.5650 C.ar   43  DA43        0.1919
    882  N6        -1.6280   10.7560    1.5440 N.pl3  43  DA43       -0.1054
    883  N1        -2.1140   10.8590   -0.7120 N.ar   43  DA43       -0.2040
    884  C2        -3.0240   10.8330   -1.6930 C.ar   43  DA43        0.2016
    885  N3        -4.3450   10.6920   -1.6110 N.ar   43  DA43       -0.2048
    886  C4        -4.7300   10.5640   -0.3310 C.ar   43  DA43        0.1691
    887  P         -8.9860    6.5720   -0.3470 P.3    44  DC44        0.2141
    888  OP1      -10.2730    5.9530   -0.7420 O.2    44  DC44       -0.5172
    889  OP2       -8.3290    6.2170    0.9320 O.3    44  DC44       -0.4373
    890  O5'       -7.8730    6.1970   -1.4270 O.3    44  DC44       -0.3114
    891  C5'       -8.3520    6.0780   -2.7550 C.3    44  DC44        0.1811
    892  C4'       -7.3250    6.4490   -3.7900 C.3    44  DC44        0.1746
    893  O4'       -6.5460    7.5740   -3.3010 O.3    44  DC44       -0.3327
    894  C3'       -6.3180    5.3520   -4.0950 C.3    44  DC44        0.1558
    895  O3'       -6.6230    4.6000   -5.2640 O.3    44  DC44       -0.3138
    896  C2'       -4.9870    6.0760   -4.2690 C.3    44  DC44        0.0866
    897  C1'       -5.1700    7.4130   -3.5730 C.3    44  DC44        0.2106
    898  N1        -4.4960    7.4000   -2.3320 N.ar   44  DC44       -0.2556
    899  C2        -3.0970    7.4290   -2.3800 C.ar   44  DC44        0.3531
    900  O2        -2.5380    7.4950   -3.4880 O.2    44  DC44       -0.2443
    901  N3        -2.3970    7.3830   -1.2220 N.ar   44  DC44       -0.1739
    902  C4        -3.0390    7.3120   -0.0560 C.ar   44  DC44        0.1759
    903  N4        -2.3060    7.2690    1.0590 N.pl3  44  DC44       -0.1070
    904  C5        -4.4560    7.2820    0.0140 C.ar   44  DC44        0.0566
    905  C6        -5.1440    7.3270   -1.1320 C.ar   44  DC44        0.0849
    906  P         -6.3760    3.2560   -4.9270 P.3    45  DC45        0.2141
    907  OP1       -7.3310    2.6510   -5.8910 O.2    45  DC45       -0.5172
    908  OP2       -6.6610    3.1910   -3.4800 O.3    45  DC45       -0.4373
    909  O5'       -4.9560    2.5760   -5.1600 O.3    45  DC45       -0.3114
    910  C5'       -4.4770    2.3430   -6.4850 C.3    45  DC45        0.1811
    911  C4'       -2.9830    2.5650   -6.5620 C.3    45  DC45        0.1746
    912  O4'       -2.6150    3.7410   -5.7970 O.3    45  DC45       -0.3327
    913  C3'       -2.0730    1.4660   -6.0390 C.3    45  DC45        0.1558
    914  O3'       -1.8690    0.4950   -7.0560 O.3    45  DC45       -0.3138
    915  C2'       -0.7820    2.2260   -5.7560 C.3    45  DC45        0.0866
    916  C1'       -1.3090    3.5850   -5.2840 C.3    45  DC45        0.2106
    917  N1        -1.4080    3.7220   -3.7760 N.ar   45  DC45       -0.2556
    918  C2        -0.2050    3.8550   -3.0730 C.ar   45  DC45        0.3531
    919  O2         0.8530    3.9710   -3.7140 O.2    45  DC45       -0.2443
    920  N3        -0.2300    3.8520   -1.7190 N.ar   45  DC45       -0.1739
    921  C4        -1.3890    3.7240   -1.0730 C.ar   45  DC45        0.1759
    922  N4        -1.3640    3.7270    0.2620 N.pl3  45  DC45       -0.1070
    923  C5        -2.6180    3.5880   -1.7670 C.ar   45  DC45        0.0566
    924  C6        -2.5900    3.5910   -3.1040 C.ar   45  DC45        0.0849
    925  P         -1.2170   -0.9900   -6.6820 P.3    46  DC46        0.2141
    926  OP1       -1.2760   -1.8980   -7.8480 O.2    46  DC46       -0.5172
    927  OP2       -1.7210   -1.4370   -5.3640 O.3    46  DC46       -0.4373
    928  O5'        0.3070   -0.5890   -6.4060 O.3    46  DC46       -0.3114
    929  C5'        1.1100    0.0350   -7.3990 C.3    46  DC46        0.1811
    930  C4'        2.5140    0.2330   -6.8880 C.3    46  DC46        0.1746
    931  O4'        2.5400    1.3370   -5.9460 O.3    46  DC46       -0.3327
    932  C3'        3.0750   -0.9390   -6.0980 C.3    46  DC46        0.1558
    933  O3'        3.5740   -1.9790   -6.9220 O.3    46  DC46       -0.3138
    934  C2'        4.1170   -0.2710   -5.2050 C.3    46  DC46        0.0866
    935  C1'        3.4060    1.0400   -4.8690 C.3    46  DC46        0.2106
    936  N1         2.5970    0.8680   -3.5760 N.ar   46  DC46       -0.2556
    937  C2         3.2540    1.0830   -2.3580 C.ar   46  DC46        0.3531
    938  O2         4.4690    1.3400   -2.3710 O.2    46  DC46       -0.2443
    939  N3         2.5470    1.0030   -1.2050 N.ar   46  DC46       -0.1739
    940  C4         1.2440    0.7240   -1.2390 C.ar   46  DC46        0.1759
    941  N4         0.5890    0.6560   -0.0780 N.pl3  46  DC46       -0.1070
    942  C5         0.5600    0.5030   -2.4630 C.ar   46  DC46        0.0566
    943  C6         1.2620    0.5820   -3.5990 C.ar   46  DC46        0.0849
    944  P          3.8170   -3.8280   -6.2150 P.3    47  DC47        0.2141
    945  OP1        4.3890   -4.7680   -7.2080 O.2    47  DC47       -0.5172
    946  OP2        2.3650   -3.8800   -5.8990 O.3    47  DC47       -0.4373
    947  O5'        4.6170   -3.9770   -4.8440 O.3    47  DC47       -0.3114
    948  C5'        6.0470   -3.9920   -4.8480 C.3    47  DC47        0.1811
    949  C4'        6.6020   -3.7850   -3.4580 C.3    47  DC47        0.1746
    950  O4'        6.0400   -2.5890   -2.8560 O.3    47  DC47       -0.3327
    951  C3'        6.3140   -4.8260   -2.3940 C.3    47  DC47        0.1558
    952  O3'        7.0990   -5.9960   -2.5540 O.3    47  DC47       -0.3138
    953  C2'        6.7390   -4.0680   -1.1450 C.3    47  DC47        0.0866
    954  C1'        6.1800   -2.6740   -1.4420 C.3    47  DC47        0.2106
    955  N1         4.8050   -2.5440   -0.7660 N.ar   47  DC47       -0.2556
    956  C2         4.7210   -2.3250    0.6140 C.ar   47  DC47        0.3531
    957  O2         5.7630   -2.3700    1.2900 O.2    47  DC47       -0.2443
    958  N3         3.5120   -2.0730    1.1690 N.ar   47  DC47       -0.1739
    959  C4         2.4210   -2.0350    0.4040 C.ar   47  DC47        0.1759
    960  N4         1.2510   -1.7820    0.9960 N.pl3  47  DC47       -0.1070
    961  C5         2.4840   -2.2540   -0.9960 C.ar   47  DC47        0.0566
    962  C6         3.6800   -2.5030   -1.5410 C.ar   47  DC47        0.0849
    963  P          6.6400   -7.3920   -1.7860 P.3    48  DT48        0.2141
    964  OP1        7.3110   -8.5960   -2.3280 O.2    48  DT48       -0.5172
    965  OP2        5.1920   -7.1810   -2.0400 O.3    48  DT48       -0.4373
    966  O5'        6.8400   -7.3290   -0.2030 O.3    48  DT48       -0.3114
    967  C5'        8.1090   -6.9830    0.3750 C.3    48  DT48        0.1811
    968  C4'        7.9440   -6.5230    1.8110 C.3    48  DT48        0.1746
    969  O4'        7.0190   -5.4090    1.8750 O.3    48  DT48       -0.3327
    970  C3'        7.3620   -7.5060    2.8150 C.3    48  DT48        0.1558
    971  O3'        8.3610   -8.4340    3.2460 O.3    48  DT48       -0.3138
    972  C2'        6.9340   -6.5770    3.9510 C.3    48  DT48        0.0866
    973  C1'        6.4600   -5.3430    3.1780 C.3    48  DT48        0.2106
    974  N1         4.9960   -5.1830    2.9330 N.ar   48  DT48       -0.2559
    975  C2         4.2500   -4.8650    4.0530 C.ar   48  DT48        0.3545
    976  O2         4.7430   -4.7040    5.1550 O.2    48  DT48       -0.2443
    977  N3         2.8990   -4.7430    3.8350 N.ar   48  DT48       -0.1533
    978  C4         2.2340   -4.9030    2.6380 C.ar   48  DT48        0.2804
    979  O4         1.0140   -4.7590    2.5990 O.2    48  DT48       -0.2654
    980  C5         3.0770   -5.2330    1.5230 C.ar   48  DT48        0.0534
    981  C6         4.3940   -5.3580    1.7060 C.ar   48  DT48        0.0824
    982  C7         2.4470   -5.4280    0.1760 C.3    48  DT48        0.0377
    983  P          7.9670   -9.7280    4.3440 P.3    49  DT49        0.2141
    984  OP1        8.8230  -10.9290    4.6380 O.3    49  DT49       -0.4373
    985  OP2        6.6130  -10.1050    3.8740 O.2    49  DT49       -0.5172
    986  O5'        7.8740   -8.8540    5.6790 O.3    49  DT49       -0.3114
    987  C5'        7.8270   -9.5080    6.9570 C.3    49  DT49        0.1811
    988  C4'        7.1660   -8.6200    7.9740 C.3    49  DT49        0.1746
    989  O4'        6.4210   -7.5410    7.3460 O.3    49  DT49       -0.3327
    990  C3'        6.1140   -9.4010    8.7180 C.3    49  DT49        0.1558
    991  O3'        6.7190  -10.0830    9.8410 O.3    49  DT49       -0.3138
    992  C2'        5.1960   -8.3130    9.2020 C.3    49  DT49        0.0866
    993  C1'        5.2120   -7.3140    8.0500 C.3    49  DT49        0.2106
    994  N1         4.0500   -7.6160    7.1510 N.ar   49  DT49       -0.2559
    995  C2         2.8360   -7.0240    7.4430 C.ar   49  DT49        0.3545
    996  O2         2.6520   -6.3420    8.4360 O.2    49  DT49       -0.2443
    997  N3         1.8390   -7.2600    6.5270 N.ar   49  DT49       -0.1533
    998  C4         1.9320   -8.0120    5.3750 C.ar   49  DT49        0.2804
    999  O4         0.9480   -8.1320    4.6500 O.2    49  DT49       -0.2654
   1000  C5         3.2240   -8.5950    5.1420 C.ar   49  DT49        0.0534
   1001  C6         4.2110   -8.3810    6.0160 C.ar   49  DT49        0.0824
   1002  C7         3.4260   -9.4320    3.9140 C.3    49  DT49        0.0377
   1003  P          6.1570  -11.3340   10.2680 P.3    50  DT50        0.2141
   1004  OP1        7.1670  -11.8530   11.2320 O.3    50  DT50       -0.4373
   1005  OP2        6.0070  -11.8340    8.8690 O.2    50  DT50       -0.5172
   1006  O5'        4.7420  -11.2760   10.9640 O.3    50  DT50       -0.3114
   1007  C5'        4.7050  -10.7100   12.2110 C.3    50  DT50        0.1811
   1008  C4'        3.3030  -10.2330   12.4650 C.3    50  DT50        0.1746
   1009  O4'        2.9610   -9.4840   11.2800 O.3    50  DT50       -0.3327
   1010  C3'        2.1690  -11.2340   12.4420 C.3    50  DT50        0.1558
   1011  O3'        2.1150  -12.0750   13.5790 O.3    50  DT50       -0.3138
   1012  C2'        0.9700  -10.2880   12.2580 C.3    50  DT50        0.0866
   1013  C1'        1.5490   -9.3660   11.2160 C.3    50  DT50        0.2106
   1014  N1         1.1360   -9.7200    9.8570 N.ar   50  DT50       -0.2559
   1015  C2        -0.1950   -9.6850    9.4850 C.ar   50  DT50        0.3545
   1016  O2        -1.0890   -9.3610   10.2470 O.2    50  DT50       -0.2443
   1017  N3        -0.4440  -10.0450    8.1830 N.ar   50  DT50       -0.1533
   1018  C4         0.4820  -10.4290    7.2360 C.ar   50  DT50        0.2804
   1019  O4         0.1050  -10.7230    6.1050 O.2    50  DT50       -0.2654
   1020  C5         1.8420  -10.4410    7.6990 C.ar   50  DT50        0.0534
   1021  C6         2.1120  -10.0960    8.9600 C.ar   50  DT50        0.0824
   1022  C7         2.9250  -10.8450    6.7430 C.3    50  DT50        0.0377
   1023  P          2.1760  -13.4790   13.1360 P.3    51  DG51        0.2141
   1024  OP1        2.2250  -14.5940   14.1070 O.3    51  DG51       -0.4373
   1025  OP2        2.5560  -13.7320   11.7270 O.2    51  DG51       -0.5172
   1026  O5'        0.6860  -12.8910   13.0410 O.3    51  DG51       -0.3114
   1027  C5'       -0.0370  -12.5390   14.2150 C.3    51  DG51        0.1811
   1028  C4'       -1.4760  -12.9960   14.1540 C.3    51  DG51        0.1746
   1029  O4'       -2.2210  -12.1580   13.2380 O.3    51  DG51       -0.3327
   1030  C3'       -1.7070  -14.4220   13.6700 C.3    51  DG51        0.1558
   1031  O3'       -1.6590  -15.3710   14.7230 O.3    51  DG51       -0.3138
   1032  C2'       -3.0660  -14.3740   12.9850 C.3    51  DG51        0.0865
   1033  C1'       -3.1190  -12.9310   12.4780 C.3    51  DG51        0.2094
   1034  N9        -2.3000  -12.5380   10.9930 N.ar   51  DG51       -0.2713
   1035  C8        -0.9870  -12.7770   10.6680 C.ar   51  DG51        0.1816
   1036  N7        -0.7830  -12.8710    9.3820 N.ar   51  DG51       -0.2173
   1037  C5        -2.0320  -12.6800    8.8220 C.ar   51  DG51        0.1748
   1038  C6        -2.4440  -12.6730    7.4640 C.ar   51  DG51        0.3023
   1039  O6        -1.7510  -12.8400    6.4530 O.2    51  DG51       -0.2633
   1040  N1        -3.8110  -12.4440    7.3360 N.ar   51  DG51       -0.1709
   1041  C2        -4.6750  -12.2470    8.3860 C.ar   51  DG51        0.2606
   1042  N2        -5.9590  -12.0400    8.0650 N.pl3  51  DG51       -0.0859
   1043  N3        -4.3080  -12.2510    9.6530 N.ar   51  DG51       -0.1918
   1044  C4        -2.9840  -12.4730    9.8010 C.ar   51  DG51        0.1722
   1045  P         -1.4630  -17.0090   14.3760 P.3    52  DG52        0.2141
   1046  OP1       -0.5850  -17.8680   15.1970 O.3    52  DG52       -0.4373
   1047  OP2       -1.1980  -16.8840   12.9260 O.2    52  DG52       -0.5172
   1048  O5'       -2.9800  -17.5020   14.5450 O.3    52  DG52       -0.3114
   1049  C5'       -3.5140  -17.7330   15.8460 C.3    52  DG52        0.1811
   1050  C4'       -4.5420  -18.8510   15.8680 C.3    52  DG52        0.1746
   1051  O4'       -5.7030  -18.4700   15.0950 O.3    52  DG52       -0.3327
   1052  C3'       -4.1030  -20.1570   15.2270 C.3    52  DG52        0.1558
   1053  O3'       -3.3520  -20.9420   16.1360 O.3    52  DG52       -0.3138
   1054  C2'       -5.4350  -20.7940   14.8030 C.3    52  DG52        0.0865
   1055  C1'       -6.1570  -19.5550   14.3090 C.3    52  DG52        0.2094
   1056  N9        -5.7590  -19.2890   12.8280 N.ar   52  DG52       -0.2713
   1057  C8        -4.8070  -18.4520   12.2980 C.ar   52  DG52        0.1816
   1058  N7        -4.7000  -18.5490   11.0010 N.ar   52  DG52       -0.2173
   1059  C5        -5.6360  -19.5030   10.6500 C.ar   52  DG52        0.1748
   1060  C6        -5.9820  -20.0340    9.3800 C.ar   52  DG52        0.3023
   1061  O6        -5.5050  -19.7480    8.2750 O.2    52  DG52       -0.2633
   1062  N1        -6.9900  -20.9900    9.4730 N.ar   52  DG52       -0.1709
   1063  C2        -7.5900  -21.3860   10.6440 C.ar   52  DG52        0.2606
   1064  N2        -8.5440  -22.3200   10.5330 N.pl3  52  DG52       -0.0859
   1065  N3        -7.2790  -20.9020   11.8310 N.ar   52  DG52       -0.1918
   1066  C4        -6.3020  -19.9730   11.7650 C.ar   52  DG52        0.1722
   1067  P         -2.7120  -21.6280   15.5440 P.3    53  DG53        0.2141
   1068  OP1       -1.7760  -22.2310   16.5200 O.3    53  DG53       -0.4373
   1069  OP2       -2.2510  -20.5620   14.6260 O.2    53  DG53       -0.5172
   1070  O5'       -3.2740  -22.7730   14.5710 O.3    53  DG53       -0.3114
   1071  C5'       -3.9410  -23.9110   15.1010 C.3    53  DG53        0.1811
   1072  C4'       -5.1480  -24.2980   14.2810 C.3    53  DG53        0.1746
   1073  O4'       -5.5800  -23.1740   13.4640 O.3    53  DG53       -0.3327
   1074  C3'       -4.9620  -25.4170   13.2640 C.3    53  DG53        0.1558
   1075  O3'       -4.9470  -26.7150   13.8350 O.3    53  DG53       -0.3138
   1076  C2'       -6.1430  -25.1780   12.3300 C.3    53  DG53        0.0865
   1077  C1'       -6.1700  -23.6510   12.2690 C.3    53  DG53        0.2094
   1078  N9        -5.3110  -23.2140   11.0730 N.ar   53  DG53       -0.2713
   1079  C8        -4.2650  -22.3270   11.1440 C.ar   53  DG53        0.1816
   1080  N7        -3.8010  -21.9830    9.9730 N.ar   53  DG53       -0.2173
   1081  C5        -4.5850  -22.6820    9.0750 C.ar   53  DG53        0.1748
   1082  C6        -4.5560  -22.7180    7.6570 C.ar   53  DG53        0.3023
   1083  O6        -3.7980  -22.1100    6.8910 O.2    53  DG53       -0.2633
   1084  N1        -5.5320  -23.5630    7.1370 N.ar   53  DG53       -0.1709
   1085  C2        -6.4260  -24.2850    7.8910 C.ar   53  DG53        0.2606
   1086  N2        -7.2950  -25.0460    7.2100 N.pl3  53  DG53       -0.0859
   1087  N3        -6.4650  -24.2630    9.2080 N.ar   53  DG53       -0.1918
   1088  C4        -5.5260  -23.4490    9.7350 C.ar   53  DG53        0.1722
   1089  P         -4.2820  -27.9420   13.0570 P.3    54  DG54        0.2141
   1090  OP1       -4.6500  -28.7620   14.3070 O.3    54  DG54       -0.4373
   1091  OP2       -2.8230  -27.8120   12.8890 O.2    54  DG54       -0.5172
   1092  O5'       -4.9880  -28.5130   11.7580 O.3    54  DG54       -0.3114
   1093  C5'       -6.3900  -28.8550   11.8090 C.3    54  DG54        0.1811
   1094  C4'       -6.6910  -29.2480   10.3780 C.3    54  DG54        0.1746
   1095  O4'       -6.8250  -28.0570    9.6230 O.3    54  DG54       -0.3327
   1096  C3'       -5.6210  -30.0300    9.6540 C.3    54  DG54        0.1558
   1097  O3'       -5.7080  -31.4590    9.8420 O.3    54  DG54       -0.3138
   1098  C2'       -5.9910  -29.7440    8.1810 C.3    54  DG54        0.0865
   1099  C1'       -6.4020  -28.2990    8.2680 C.3    54  DG54        0.2094
   1100  N9        -5.2510  -27.4550    7.9800 N.ar   54  DG54       -0.2713
   1101  C8        -4.3660  -26.9060    8.8770 C.ar   54  DG54        0.1816
   1102  N7        -3.3480  -26.3240    8.3050 N.ar   54  DG54       -0.2173
   1103  C5        -3.5700  -26.4950    6.9520 C.ar   54  DG54        0.1748
   1104  C6        -2.8060  -26.0800    5.8310 C.ar   54  DG54        0.3023
   1105  O6        -1.7380  -25.4550    5.8210 O.2    54  DG54       -0.2633
   1106  N1        -3.3950  -26.4630    4.6290 N.ar   54  DG54       -0.1709
   1107  C2        -4.5750  -27.1580    4.5200 C.ar   54  DG54        0.2606
   1108  N2        -4.9850  -27.4350    3.2750 N.pl3  54  DG54       -0.0859
   1109  N3        -5.2960  -27.5510    5.5520 N.ar   54  DG54       -0.1918
   1110  C4        -4.7430  -27.1910    6.7300 C.ar   54  DG54        0.1722
   1111  P         -4.4750  -32.4220    9.5830 P.3    55  DA55        0.2141
   1112  OP1       -5.6170  -33.2240   10.0700 O.3    55  DA55       -0.4373
   1113  OP2       -3.0900  -32.9280    9.7430 O.2    55  DA55       -0.5172
   1114  O5'       -4.6950  -32.1840    8.0330 O.3    55  DA55       -0.3114
   1115  C5'       -5.7080  -32.8820    7.3380 C.3    55  DA55        0.1811
   1116  C4'       -5.4150  -32.9060    5.8570 C.3    55  DA55        0.1746
   1117  O4'       -5.2990  -31.5500    5.3530 O.3    55  DA55       -0.3327
   1118  C3'       -4.1040  -33.5370    5.4490 C.3    55  DA55        0.1558
   1119  O3'       -4.2340  -34.9500    5.4350 O.3    55  DA55       -0.3138
   1120  C2'       -3.9080  -32.9430    4.0600 C.3    55  DA55        0.0865
   1121  C1'       -4.3510  -31.5070    4.2990 C.3    55  DA55        0.2094
   1122  N9        -3.3050  -30.5300    4.7180 N.ar   55  DA55       -0.2714
   1123  C8        -2.9040  -30.2040    5.9870 C.ar   55  DA55        0.1815
   1124  N7        -1.9810  -29.2740    6.0280 N.ar   55  DA55       -0.2193
   1125  C5        -1.7590  -28.9680    4.6950 C.ar   55  DA55        0.1518
   1126  C6        -0.8940  -28.0550    4.0650 C.ar   55  DA55        0.1919
   1127  N6        -0.0590  -27.2500    4.7270 N.pl3  55  DA55       -0.1054
   1128  N1        -0.9180  -27.9980    2.7160 N.ar   55  DA55       -0.2040
   1129  C2        -1.7560  -28.8050    2.0540 C.ar   55  DA55        0.2016
   1130  N3        -2.6150  -29.7010    2.5340 N.ar   55  DA55       -0.2048
   1131  C4        -2.5660  -29.7340    3.8760 C.ar   55  DA55        0.1691
   1132  P         -2.6940  -36.0540    5.5530 P.3    56  DG56        0.2141
   1133  OP1       -2.7730  -37.5310    5.5870 O.2    56  DG56       -0.5172
   1134  OP2       -2.0100  -35.3250    6.6470 O.3    56  DG56       -0.4373
   1135  O5'       -1.9100  -35.6100    4.2280 O.3    56  DG56       -0.3114
   1136  C5'       -2.1500  -36.3200    3.0250 C.3    56  DG56        0.1811
   1137  C4'       -1.6040  -35.6110    1.8090 C.3    56  DG56        0.1746
   1138  O4'       -1.8600  -34.1840    1.8850 O.3    56  DG56       -0.3327
   1139  C3'       -0.1040  -35.6870    1.5760 C.3    56  DG56        0.1558
   1140  O3'        0.3140  -36.9140    1.0170 O.3    56  DG56       -0.3138
   1141  C2'        0.1250  -34.5200    0.6280 C.3    56  DG56        0.0865
   1142  C1'       -0.8470  -33.4870    1.1910 C.3    56  DG56        0.2094
   1143  N9        -0.1570  -32.6090    2.1400 N.ar   56  DG56       -0.2713
   1144  C8        -0.4600  -32.5260    3.4770 C.ar   56  DG56        0.1816
   1145  N7         0.2010  -31.5870    4.0980 N.ar   56  DG56       -0.2173
   1146  C5         0.9860  -31.0130    3.1160 C.ar   56  DG56        0.1748
   1147  C6         1.9180  -29.9460    3.1850 C.ar   56  DG56        0.3023
   1148  O6         2.2410  -29.2740    4.1730 O.2    56  DG56       -0.2633
   1149  N1         2.5000  -29.6820    1.9480 N.ar   56  DG56       -0.1709
   1150  C2         2.2180  -30.3620    0.7880 C.ar   56  DG56        0.2606
   1151  N2         2.8800  -29.9620   -0.3070 N.pl3  56  DG56       -0.0859
   1152  N3         1.3560  -31.3560    0.7080 N.ar   56  DG56       -0.1918
   1153  C4         0.7790  -31.6310    1.8970 C.ar   56  DG56        0.1722
   1154  P          1.4500  -37.4900    1.5260 P.3    57  DA57        0.2141
   1155  OP1        1.6450  -38.8990    1.0980 O.2    57  DA57       -0.5172
   1156  OP2        1.2930  -37.1850    2.9780 O.3    57  DA57       -0.4373
   1157  O5'        2.6100  -36.5990    0.8960 O.3    57  DA57       -0.3114
   1158  C5'        2.6500  -36.4060   -0.5130 C.3    57  DA57        0.1812
   1159  C4'        3.6240  -35.3270   -0.8820 C.3    57  DA57        0.1775
   1160  O4'        3.1490  -34.0640   -0.3710 O.3    57  DA57       -0.3326
   1161  C3'        5.0170  -35.4610   -0.2980 C.3    57  DA57        0.1864
   1162  O3'        5.8060  -36.3610   -1.0680 O.3    57  DA57       -0.2133
   1163  C2'        5.5330  -34.0270   -0.3690 C.3    57  DA57        0.0894
   1164  C1'        4.2580  -33.2350   -0.0870 C.3    57  DA57        0.2095
   1165  N9         4.1040  -32.7840    1.2540 N.ar   57  DA57       -0.2714
   1166  C8         3.4860  -33.4690    2.2680 C.ar   57  DA57        0.1815
   1167  N7         3.6300  -32.9110    3.4470 N.ar   57  DA57       -0.2193
   1168  C5         4.3950  -31.7850    3.1900 C.ar   57  DA57        0.1518
   1169  C6         4.8930  -30.7690    4.0240 C.ar   57  DA57        0.1919
   1170  N6         4.6820  -30.7250    5.3420 N.pl3  57  DA57       -0.1054
   1171  N1         5.6230  -29.7880    3.4510 N.ar   57  DA57       -0.2040
   1172  C2         5.8330  -29.8330    2.1300 C.ar   57  DA57        0.2016
   1173  N3         5.4180  -30.7330    1.2430 N.ar   57  DA57       -0.2048
   1174  C4         4.6960  -31.6940    1.8440 C.ar   57  DA57        0.1691
   1175  P          6.8080  -37.2400   -0.1720 P.3    58  DC58        0.3939
   1176  OP1        5.9620  -37.8480   -1.2200 O.3    58  DC58       -0.1496
   1177  OP2        8.1220  -37.8380    0.1460 O.3    58  DC58       -0.1425
   1178  O5'        7.1790  -35.7570   -0.6550 O.3    58  DC58       -0.2926
   1179  C5'        8.5250  -35.3210   -0.5120 C.3    58  DC58        0.1828
   1180  C4'        8.9080  -34.2060   -1.4570 C.3    58  DC58        0.1747
   1181  O4'        8.9650  -34.7180   -2.8180 O.3    58  DC58       -0.3327
   1182  C3'        7.9650  -33.0040   -1.4740 C.3    58  DC58        0.1558
   1183  O3'        8.5510  -31.8150   -0.9530 O.3    58  DC58       -0.3138
   1184  C2'        7.6190  -32.7640   -2.9410 C.3    58  DC58        0.0866
   1185  C1'        8.3910  -33.8080   -3.7340 C.3    58  DC58        0.2106
   1186  N1         7.0120  -34.3430   -4.2310 N.ar   58  DC58       -0.2556
   1187  C2         6.3840  -33.6770   -5.2890 C.ar   58  DC58        0.3531
   1188  O2         6.9260  -32.6640   -5.7630 O.2    58  DC58       -0.2443
   1189  N3         5.2080  -34.1530   -5.7640 N.ar   58  DC58       -0.1739
   1190  C4         4.6630  -35.2440   -5.2230 C.ar   58  DC58        0.1759
   1191  N4         3.5040  -35.6760   -5.7240 N.pl3  58  DC58       -0.1070
   1192  C5         5.2830  -35.9330   -4.1500 C.ar   58  DC58        0.0566
   1193  C6         6.4440  -35.4600   -3.6850 C.ar   58  DC58        0.0849
   1194  P          7.7020  -30.7260   -0.4410 P.3    59  DA59        0.2141
   1195  OP1        8.3210  -29.9440    0.6540 O.3    59  DA59       -0.4373
   1196  OP2        6.4820  -31.5290   -0.2000 O.2    59  DA59       -0.5172
   1197  O5'        7.2920  -29.7390   -1.6320 O.3    59  DA59       -0.3114
   1198  C5'        8.2390  -28.8500   -2.2060 C.3    59  DA59        0.1811
   1199  C4'        7.8970  -28.5600   -3.6450 C.3    59  DA59        0.1746
   1200  O4'        7.4820  -29.7950   -4.2770 O.3    59  DA59       -0.3327
   1201  C3'        6.7600  -27.5730   -3.8800 C.3    59  DA59        0.1558
   1202  O3'        7.2440  -26.2370   -3.9570 O.3    59  DA59       -0.3138
   1203  C2'        6.1270  -28.0540   -5.1820 C.3    59  DA59        0.0865
   1204  C1'        6.4350  -29.5560   -5.1900 C.3    59  DA59        0.2094
   1205  N9         5.3240  -30.4060   -4.7260 N.ar   59  DA59       -0.2714
   1206  C8         4.9720  -30.9190   -3.5050 C.ar   59  DA59        0.1815
   1207  N7         3.7330  -31.3450   -3.4470 N.ar   59  DA59       -0.2193
   1208  C5         3.2360  -31.0940   -4.7160 C.ar   59  DA59        0.1518
   1209  C6         1.9770  -31.3180   -5.3010 C.ar   59  DA59        0.1919
   1210  N6         0.9480  -31.8690   -4.6530 N.pl3  59  DA59       -0.1054
   1211  N1         1.8110  -30.9510   -6.5900 N.ar   59  DA59       -0.2040
   1212  C2         2.8430  -30.3990   -7.2390 C.ar   59  DA59        0.2016
   1213  N3         4.0710  -30.1400   -6.7980 N.ar   59  DA59       -0.2048
   1214  C4         4.2040  -30.5150   -5.5150 C.ar   59  DA59        0.1691
   1215  P          6.2790  -24.8740   -3.4620 P.3    60  DT60        0.2141
   1216  OP1        6.7730  -23.6330   -4.1200 O.2    60  DT60       -0.5172
   1217  OP2        6.8360  -25.2830   -2.1390 O.3    60  DT60       -0.4373
   1218  O5'        4.6890  -24.7630   -3.3430 O.3    60  DT60       -0.3114
   1219  C5'        3.8630  -24.6190   -4.5230 C.3    60  DT60        0.1811
   1220  C4'        2.5070  -25.2850   -4.3280 C.3    60  DT60        0.1746
   1221  O4'        2.6570  -26.4870   -3.5190 O.3    60  DT60       -0.3327
   1222  C3'        1.4110  -24.5090   -3.6080 C.3    60  DT60        0.1558
   1223  O3'        0.7050  -23.6170   -4.4540 O.3    60  DT60       -0.3138
   1224  C2'        0.4830  -25.6210   -3.1490 C.3    60  DT60        0.0866
   1225  C1'        1.4750  -26.7160   -2.7720 C.3    60  DT60        0.2106
   1226  N1         1.7440  -26.5780   -1.3230 N.ar   60  DT60       -0.2559
   1227  C2         0.7880  -27.0170   -0.4280 C.ar   60  DT60        0.3545
   1228  O2        -0.2960  -27.4540   -0.7740 O.2    60  DT60       -0.2443
   1229  N3         1.1450  -26.9240    0.8960 N.ar   60  DT60       -0.1533
   1230  C4         2.3360  -26.4470    1.4020 C.ar   60  DT60        0.2804
   1231  O4         2.5110  -26.4270    2.6180 O.2    60  DT60       -0.2654
   1232  C5         3.2770  -26.0100    0.4100 C.ar   60  DT60        0.0534
   1233  C6         2.9550  -26.0890   -0.8840 C.ar   60  DT60        0.0824
   1234  C7         4.6030  -25.4740    0.8610 C.3    60  DT60        0.0377
   1235  P         -0.1110  -22.5460   -3.8220 P.3    61  DC61        0.2141
   1236  OP1       -0.8550  -21.3990   -4.3870 O.2    61  DC61       -0.5172
   1237  OP2        0.8610  -22.3730   -2.7150 O.3    61  DC61       -0.4373
   1238  O5'       -1.1560  -23.6550   -3.3760 O.3    61  DC61       -0.3114
   1239  C5'       -2.0190  -24.2190   -4.3360 C.3    61  DC61        0.1811
   1240  C4'       -3.1350  -24.8610   -3.5420 C.3    61  DC61        0.1746
   1241  O4'       -2.5270  -25.6270   -2.4800 O.3    61  DC61       -0.3327
   1242  C3'       -4.0310  -23.8550   -2.8370 C.3    61  DC61        0.1558
   1243  O3'       -5.2050  -23.6980   -3.6360 O.3    61  DC61       -0.3138
   1244  C2'       -4.3200  -24.4590   -1.4630 C.3    61  DC61        0.0866
   1245  C1'       -3.3340  -25.6140   -1.3260 C.3    61  DC61        0.2106
   1246  N1        -2.4460  -25.5210   -0.2960 N.ar   61  DC61       -0.2556
   1247  C2        -2.8620  -25.9720    0.9620 C.ar   61  DC61        0.3531
   1248  O2        -3.8130  -26.7680    1.0280 O.2    61  DC61       -0.2443
   1249  N3        -2.2180  -25.5260    2.0680 N.ar   61  DC61       -0.1739
   1250  C4        -1.2020  -24.6710    1.9490 C.ar   61  DC61        0.1759
   1251  N4        -0.5980  -24.2590    3.0670 N.pl3  61  DC61       -0.1070
   1252  C5        -0.7660  -24.2020    0.6830 C.ar   61  DC61        0.0566
   1253  C6        -1.4040  -24.6440   -0.4060 C.ar   61  DC61        0.0849
   1254  P         -6.5590  -22.8150   -3.1340 P.3    62  DC62        0.2141
   1255  OP1       -7.5240  -22.9080   -4.2510 O.2    62  DC62       -0.5172
   1256  OP2       -6.0850  -21.4950   -2.6620 O.3    62  DC62       -0.4373
   1257  O5'       -7.2370  -23.4760   -1.8440 O.3    62  DC62       -0.3114
   1258  C5'       -8.3470  -24.3480   -2.0120 C.3    62  DC62        0.1811
   1259  C4'       -8.7570  -25.0450   -0.7330 C.3    62  DC62        0.1746
   1260  O4'       -7.5930  -25.5130    0.0020 O.3    62  DC62       -0.3327
   1261  C3'       -9.4940  -24.2060    0.3000 C.3    62  DC62        0.1558
   1262  O3'      -10.8490  -23.9560   -0.0160 O.3    62  DC62       -0.3138
   1263  C2'       -9.3110  -25.0320    1.5660 C.3    62  DC62        0.0866
   1264  C1'       -7.8690  -25.5100    1.3910 C.3    62  DC62        0.2106
   1265  N1        -6.9480  -24.5290    2.0910 N.ar   62  DC62       -0.2556
   1266  C2        -6.9030  -24.4440    3.4870 C.ar   62  DC62        0.3531
   1267  O2        -7.7830  -25.0190    4.1500 O.2    62  DC62       -0.2443
   1268  N3        -5.9070  -23.7380    4.0730 N.ar   62  DC62       -0.1739
   1269  C4        -4.9840  -23.1360    3.3210 C.ar   62  DC62        0.1759
   1270  N4        -4.0210  -22.4510    3.9430 N.pl3  62  DC62       -0.1070
   1271  C5        -5.0120  -23.2100    1.9050 C.ar   62  DC62        0.0566
   1272  C6        -5.9970  -23.9080    1.3300 C.ar   62  DC62        0.0849
   1273  P        -11.2230  -22.5570   -0.0040 P.3    63  DT63        0.2141
   1274  OP1      -12.4470  -22.2860   -0.7880 O.2    63  DT63       -0.5172
   1275  OP2      -10.0300  -21.6990   -0.1750 O.3    63  DT63       -0.4373
   1276  O5'      -11.5220  -22.5070    1.5660 O.3    63  DT63       -0.3114
   1277  C5'      -12.4510  -23.4000    2.1650 C.3    63  DT63        0.1811
   1278  C4'      -12.4230  -23.2730    3.6680 C.3    63  DT63        0.1746
   1279  O4'      -11.1110  -23.6320    4.1580 O.3    63  DT63       -0.3327
   1280  C3'      -12.6870  -21.8760    4.2010 C.3    63  DT63        0.1558
   1281  O3'      -14.0700  -21.6840    4.4270 O.3    63  DT63       -0.3138
   1282  C2'      -11.8400  -21.7770    5.4680 C.3    63  DT63        0.0866
   1283  C1'      -10.7190  -22.7750    5.2040 C.3    63  DT63        0.2106
   1284  N1        -9.2980  -22.3130    4.8880 N.ar   63  DT63       -0.2559
   1285  C2        -8.5190  -21.9330    5.9640 C.ar   63  DT63        0.3545
   1286  O2        -8.8890  -22.0340    7.1200 O.2    63  DT63       -0.2443
   1287  N3        -7.2850  -21.4240    5.6370 N.ar   63  DT63       -0.1533
   1288  C4        -6.7640  -21.2620    4.3700 C.ar   63  DT63        0.2804
   1289  O4        -5.6370  -20.7910    4.2360 O.2    63  DT63       -0.2654
   1290  C5        -7.6330  -21.6790    3.3060 C.ar   63  DT63        0.0534
   1291  C6        -8.8380  -22.1770    3.5960 C.ar   63  DT63        0.0824
   1292  C7        -7.1570  -21.5420    1.8900 C.3    63  DT63        0.0377
   1293  P        -14.8690  -20.2980    4.1450 P.3    64  DA64        0.2141
   1294  OP1      -16.3180  -20.4670    4.1010 O.3    64  DA64       -0.4373
   1295  OP2      -14.2240  -19.3990    3.1470 O.2    64  DA64       -0.5172
   1296  O5'      -14.4000  -19.9040    5.6040 O.3    64  DA64       -0.3114
   1297  C5'      -15.0000  -20.5100    6.7470 C.3    64  DA64        0.1812
   1298  C4'      -15.1170  -19.5240    7.8850 C.3    64  DA64        0.1775
   1299  O4'      -13.7960  -19.1680    8.3740 O.3    64  DA64       -0.3326
   1300  C3'      -15.7210  -18.1790    7.5350 C.3    64  DA64        0.1864
   1301  O3'      -17.1210  -18.2920    7.4920 O.3    64  DA64       -0.2133
   1302  C2'      -15.2180  -17.3430    8.7040 C.3    64  DA64        0.0894
   1303  C1'      -13.7820  -17.8090    8.7600 C.3    64  DA64        0.2095
   1304  N9       -12.7090  -17.1100    8.0350 N.ar   64  DA64       -0.2714
   1305  C8       -12.3660  -17.1890    6.7110 C.ar   64  DA64        0.1815
   1306  N7       -11.4420  -16.3300    6.3520 N.ar   64  DA64       -0.2193
   1307  C5       -11.1600  -15.6380    7.5190 C.ar   64  DA64        0.1518
   1308  C6       -10.2650  -14.5930    7.8070 C.ar   64  DA64        0.1919
   1309  N6        -9.4560  -14.0420    6.8990 N.pl3  64  DA64       -0.1054
   1310  N1       -10.2300  -14.1290    9.0740 N.ar   64  DA64       -0.2040
   1311  C2       -11.0410  -14.6830    9.9830 C.ar   64  DA64        0.2016
   1312  N3       -11.9230  -15.6690    9.8340 N.ar   64  DA64       -0.2048
   1313  C4       -11.9330  -16.1070    8.5640 C.ar   64  DA64        0.1691
   1314  P        -17.9370  -17.3950    6.5860 P.3    65  DT65        0.3939
   1315  OP1      -18.3890  -18.7180    7.0500 O.3    65  DT65       -0.1496
   1316  OP2      -17.4160  -17.2100    5.2220 O.3    65  DT65       -0.1425
   1317  O5'      -19.1080  -16.3080    6.5840 O.3    65  DT65       -0.2926
   1318  C5'      -19.7390  -15.8440    7.7930 C.3    65  DT65        0.1828
   1319  C4'      -20.2480  -14.4210    7.6840 C.3    65  DT65        0.1747
   1320  O4'      -19.1450  -13.5070    7.8940 O.3    65  DT65       -0.3327
   1321  C3'      -20.7710  -13.9980    6.3220 C.3    65  DT65        0.1558
   1322  O3'      -22.0580  -14.5360    6.1000 O.3    65  DT65       -0.3138
   1323  C2'      -20.7800  -12.5020    6.5970 C.3    65  DT65        0.0866
   1324  C1'      -19.4360  -12.2960    7.2700 C.3    65  DT65        0.2106
   1325  N1       -18.4100  -11.8400    6.3550 N.ar   65  DT65       -0.2559
   1326  C2       -18.5090  -10.5840    5.7880 C.ar   65  DT65        0.3545
   1327  O2       -19.4230   -9.8160    6.0300 O.2    65  DT65       -0.2443
   1328  N3       -17.4950  -10.2570    4.9210 N.ar   65  DT65       -0.1533
   1329  C4       -16.4160  -11.0420    4.5720 C.ar   65  DT65        0.2804
   1330  O4       -15.5840  -10.6090    3.7780 O.2    65  DT65       -0.2654
   1331  C5       -16.3850  -12.3320    5.2020 C.ar   65  DT65        0.0534
   1332  C6       -17.3580  -12.6760    6.0490 C.ar   65  DT65        0.0824
   1333  C7       -15.2500  -13.2610    4.8860 C.3    65  DT65        0.0377
   1334  P        -22.4690  -14.7700    4.7720 P.3    66  DG66        0.2141
   1335  OP1      -23.4670  -15.8720    4.7550 O.3    66  DG66       -0.4373
   1336  OP2      -21.1840  -14.9350    4.0410 O.2    66  DG66       -0.5172
   1337  O5'      -23.1780  -13.4490    4.2280 O.3    66  DG66       -0.3114
   1338  C5'      -24.1870  -12.7960    4.9940 C.3    66  DG66        0.1811
   1339  C4'      -24.4180  -11.3970    4.4720 C.3    66  DG66        0.1746
   1340  O4'      -23.1910  -10.6270    4.5810 O.3    66  DG66       -0.3327
   1341  C3'      -24.7760  -11.2940    3.0000 C.3    66  DG66        0.1558
   1342  O3'      -26.1610  -11.5210    2.7980 O.3    66  DG66       -0.3138
   1343  C2'      -24.3920   -9.8550    2.6820 C.3    66  DG66        0.0865
   1344  C1'      -23.1130   -9.7000    3.5070 C.3    66  DG66        0.2094
   1345  N9       -21.8540  -10.0460    2.8200 N.ar   66  DG66       -0.2713
   1346  C8       -21.2490  -11.2790    2.7910 C.ar   66  DG66        0.1816
   1347  N7       -20.1920  -11.3160    2.0260 N.ar   66  DG66       -0.2173
   1348  C5       -20.0890  -10.0340    1.5210 C.ar   66  DG66        0.1748
   1349  C6       -19.1410   -9.4650    0.6320 C.ar   66  DG66        0.3023
   1350  O6       -18.1670  -10.0120    0.0980 O.2    66  DG66       -0.2633
   1351  N1       -19.4060   -8.1220    0.3770 N.ar   66  DG66       -0.1709
   1352  C2       -20.4550   -7.4150    0.9120 C.ar   66  DG66        0.2606
   1353  N2       -20.5470   -6.1280    0.5490 N.pl3  66  DG66       -0.0859
   1354  N3       -21.3440   -7.9290    1.7390 N.ar   66  DG66       -0.1918
   1355  C4       -21.1070   -9.2320    2.0000 C.ar   66  DG66        0.1722
   1356  P        -26.6230  -12.0490    1.5350 P.3    67  DC67        0.2141
   1357  OP1      -27.9920  -12.3960    1.0550 O.2    67  DC67       -0.5172
   1358  OP2      -25.4870  -12.9530    1.2240 O.3    67  DC67       -0.4373
   1359  O5'      -26.2650  -10.6010    0.9720 O.3    67  DC67       -0.3114
   1360  C5'      -27.1670   -9.4940    1.1470 C.3    67  DC67        0.1811
   1361  C4'      -27.0570   -8.5440   -0.0180 C.3    67  DC67        0.1746
   1362  O4'      -25.7470   -7.9290   -0.0350 O.3    67  DC67       -0.3327
   1363  C3'      -27.1870   -9.1830   -1.3850 C.3    67  DC67        0.1558
   1364  O3'      -28.5570   -9.3220   -1.7230 O.3    67  DC67       -0.3138
   1365  C2'      -26.4830   -8.1780   -2.2790 C.3    67  DC67        0.0866
   1366  C1'      -25.3400   -7.7160   -1.3720 C.3    67  DC67        0.2106
   1367  N1       -23.9570   -8.6440   -1.6370 N.ar   67  DC67       -0.2556
   1368  C2       -23.1110   -8.1880   -2.6540 C.ar   67  DC67        0.3531
   1369  O2       -23.3640   -7.1000   -3.1990 O.2    67  DC67       -0.2443
   1370  N3       -22.0460   -8.9430   -3.0150 N.ar   67  DC67       -0.1739
   1371  C4       -21.8140  -10.1050   -2.4030 C.ar   67  DC67        0.1759
   1372  N4       -20.7520  -10.8150   -2.7910 N.pl3  67  DC67       -0.1070
   1373  C5       -22.6590  -10.5850   -1.3700 C.ar   67  DC67        0.0566
   1374  C6       -23.7100   -9.8360   -1.0170 C.ar   67  DC67        0.0849
   1375  P        -28.9280  -10.3720   -2.6220 P.3    68  DG68        0.2141
   1376  OP1      -30.4010  -10.5480   -2.7020 O.2    68  DG68       -0.5172
   1377  OP2      -28.0470  -11.5430   -2.3760 O.3    68  DG68       -0.4373
   1378  O5'      -28.4440   -9.6340   -3.9680 O.3    68  DG68       -0.3114
   1379  C5'      -29.0080   -8.3850   -4.3540 C.3    68  DG68        0.1811
   1380  C4'      -28.3280   -7.8400   -5.5960 C.3    68  DG68        0.1746
   1381  O4'      -26.9140   -7.6450   -5.3810 O.3    68  DG68       -0.3327
   1382  C3'      -28.3470   -8.7720   -6.7880 C.3    68  DG68        0.1558
   1383  O3'      -29.6220   -8.7160   -7.3930 O.3    68  DG68       -0.3138
   1384  C2'      -27.2620   -8.1580   -7.6680 C.3    68  DG68        0.0865
   1385  C1'      -26.2360   -7.7530   -6.6230 C.3    68  DG68        0.2094
   1386  N9       -25.1180   -8.5910   -6.4330 N.ar   68  DG68       -0.2713
   1387  C8       -25.0110   -9.5990   -5.5060 C.ar   68  DG68        0.1816
   1388  N7       -23.8910  -10.2630   -5.5930 N.ar   68  DG68       -0.2173
   1389  C5       -23.2150   -9.6590   -6.6370 C.ar   68  DG68        0.1748
   1390  C6       -21.9440   -9.9440   -7.2010 C.ar   68  DG68        0.3023
   1391  O6       -21.1380  -10.8220   -6.8700 O.2    68  DG68       -0.2633
   1392  N1       -21.6380   -9.0850   -8.2530 N.ar   68  DG68       -0.1709
   1393  C2       -22.4550   -8.0770   -8.7060 C.ar   68  DG68        0.2606
   1394  N2       -21.9870   -7.3520   -9.7310 N.pl3  68  DG68       -0.0859
   1395  N3       -23.6380   -7.8010   -8.1920 N.ar   68  DG68       -0.1918
   1396  C4       -23.9560   -8.6230   -7.1700 C.ar   68  DG68        0.1722
   1397  P        -30.0740   -9.9360   -7.9990 P.3    69  DT69        0.2141
   1398  OP1      -31.4200   -9.6300   -8.5580 O.2    69  DT69       -0.5172
   1399  OP2      -29.8480  -11.1590   -7.1730 O.3    69  DT69       -0.4373
   1400  O5'      -29.0070   -9.9070   -9.1740 O.3    69  DT69       -0.3114
   1401  C5'      -29.0390   -8.8700  -10.1250 C.3    69  DT69        0.1811
   1402  C4'      -27.8460   -8.9620  -11.0230 C.3    69  DT69        0.1746
   1403  O4'      -26.6560   -8.9060  -10.2090 O.3    69  DT69       -0.3327
   1404  C3'      -27.6770  -10.2720  -11.7520 C.3    69  DT69        0.1558
   1405  O3'      -28.5260  -10.3240  -12.8830 O.3    69  DT69       -0.3138
   1406  C2'      -26.1990  -10.2370  -12.1120 C.3    69  DT69        0.0866
   1407  C1'      -25.6130   -9.6130  -10.8530 C.3    69  DT69        0.2106
   1408  N1       -25.0850  -10.6370   -9.9280 N.ar   69  DT69       -0.2559
   1409  C2       -23.8620  -11.2290  -10.1770 C.ar   69  DT69        0.3545
   1410  O2       -23.1780  -10.9590  -11.1490 O.2    69  DT69       -0.2443
   1411  N3       -23.4640  -12.1570   -9.2450 N.ar   69  DT69       -0.1533
   1412  C4       -24.1520  -12.5420   -8.1130 C.ar   69  DT69        0.2804
   1413  O4       -23.6650  -13.3890   -7.3680 O.2    69  DT69       -0.2654
   1414  C5       -25.4130  -11.8830   -7.9240 C.ar   69  DT69        0.0534
   1415  C6       -25.8240  -10.9770   -8.8160 C.ar   69  DT69        0.0824
   1416  C7       -26.2370  -12.2350   -6.7210 C.3    69  DT69        0.0377
   1417  P        -29.0290  -11.7330  -13.4060 P.3    70  DG70        0.2141
   1418  OP1      -30.1160  -11.5260  -14.4030 O.2    70  DG70       -0.5172
   1419  OP2      -29.3340  -12.3980  -12.1160 O.3    70  DG70       -0.4373
   1420  O5'      -27.8080  -12.4990  -14.1040 O.3    70  DG70       -0.3114
   1421  C5'      -27.5440  -12.2490  -15.4790 C.3    70  DG70        0.1811
   1422  C4'      -26.3490  -13.0210  -16.0230 C.3    70  DG70        0.1746
   1423  O4'      -25.1810  -12.8110  -15.1730 O.3    70  DG70       -0.3327
   1424  C3'      -26.4640  -14.5440  -16.0420 C.3    70  DG70        0.1558
   1425  O3'      -27.1770  -15.0720  -17.1550 O.3    70  DG70       -0.3138
   1426  C2'      -25.0130  -14.9720  -16.1500 C.3    70  DG70        0.0865
   1427  C1'      -24.3250  -13.9330  -15.2890 C.3    70  DG70        0.2094
   1428  N9       -23.9670  -14.3950  -14.0100 N.ar   70  DG70       -0.2713
   1429  C8       -24.6450  -14.2270  -12.8270 C.ar   70  DG70        0.1816
   1430  N7       -24.1300  -14.9030  -11.8370 N.ar   70  DG70       -0.2173
   1431  C5       -23.0460  -15.5550  -12.3940 C.ar   70  DG70        0.1748
   1432  C6       -22.1000  -16.4380  -11.8120 C.ar   70  DG70        0.3023
   1433  O6       -22.0370  -16.8280  -10.6390 O.2    70  DG70       -0.2633
   1434  N1       -21.1590  -16.8770  -12.7380 N.ar   70  DG70       -0.1709
   1435  C2       -21.1310  -16.5110  -14.0630 C.ar   70  DG70        0.2606
   1436  N2       -20.1450  -17.0370  -14.8010 N.pl3  70  DG70       -0.0859
   1437  N3       -22.0030  -15.6930  -14.6180 N.ar   70  DG70       -0.1918
   1438  C4       -22.9280  -15.2540  -13.7380 C.ar   70  DG70        0.1722
   1439  P        -27.4740  -16.6710  -17.2230 P.3    71  DC71        0.2141
   1440  OP1      -28.1520  -16.8080  -18.5300 O.2    71  DC71       -0.5172
   1441  OP2      -28.2600  -16.7380  -15.9700 O.3    71  DC71       -0.4373
   1442  O5'      -26.2980  -17.7590  -17.1640 O.3    71  DC71       -0.3114
   1443  C5'      -25.5560  -18.0670  -18.3390 C.3    71  DC71        0.1811
   1444  C4'      -24.1970  -18.6550  -18.0010 C.3    71  DC71        0.1746
   1445  O4'      -23.6280  -17.9140  -16.8970 O.3    71  DC71       -0.3327
   1446  C3'      -24.1840  -20.0940  -17.5070 C.3    71  DC71        0.1558
   1447  O3'      -24.2120  -21.0200  -18.5860 O.3    71  DC71       -0.3138
   1448  C2'      -22.8350  -20.1370  -16.8010 C.3    71  DC71        0.0866
   1449  C1'      -22.8150  -18.7720  -16.1250 C.3    71  DC71        0.2106
   1450  N1       -23.3050  -18.8220  -14.7950 N.ar   71  DC71       -0.2556
   1451  C2       -22.5420  -19.3690  -13.7580 C.ar   71  DC71        0.3531
   1452  O2       -21.4080  -19.8070  -14.0160 O.2    71  DC71       -0.2443
   1453  N3       -23.0600  -19.4060  -12.5070 N.ar   71  DC71       -0.1739
   1454  C4       -24.2820  -18.9250  -12.2760 C.ar   71  DC71        0.1759
   1455  N4       -24.7500  -18.9830  -11.0270 N.pl3  71  DC71       -0.1070
   1456  C5       -25.0710  -18.3660  -13.3130 C.ar   71  DC71        0.0566
   1457  C6       -24.5560  -18.3320  -14.5470 C.ar   71  DC71        0.0849
   1458  P        -24.5570  -22.1040  -18.2230 P.3    72  DT72        0.2141
   1459  OP1      -24.4930  -22.6790  -19.5700 O.2    72  DT72       -0.5172
   1460  OP2      -25.5220  -22.6490  -17.1930 O.3    72  DT72       -0.4373
   1461  O5'      -23.0960  -22.2160  -17.5800 O.3    72  DT72       -0.3114
   1462  C5'      -22.3190  -23.4050  -17.7310 C.3    72  DT72        0.1811
   1463  C4'      -21.2320  -23.4200  -16.6920 C.3    72  DT72        0.1746
   1464  O4'      -21.6760  -22.4240  -15.7580 O.3    72  DT72       -0.3327
   1465  C3'      -21.0950  -24.5730  -15.7340 C.3    72  DT72        0.1558
   1466  O3'      -20.3380  -25.6860  -16.2730 O.3    72  DT72       -0.3138
   1467  C2'      -20.3540  -23.8740  -14.6030 C.3    72  DT72        0.0866
   1468  C1'      -21.1930  -22.6510  -14.4480 C.3    72  DT72        0.2106
   1469  N1       -22.4800  -22.7290  -13.6140 N.ar   72  DT72       -0.2559
   1470  C2       -22.3200  -22.6970  -12.2420 C.ar   72  DT72        0.3545
   1471  O2       -21.2420  -22.8550  -11.6950 O.2    72  DT72       -0.2443
   1472  N3       -23.4720  -22.4740  -11.5270 N.ar   72  DT72       -0.1533
   1473  C4       -24.7400  -22.2840  -12.0350 C.ar   72  DT72        0.2804
   1474  O4       -25.6780  -22.0930  -11.2650 O.2    72  DT72       -0.2654
   1475  C5       -24.8250  -22.3320  -13.4680 C.ar   72  DT72        0.0534
   1476  C6       -23.7200  -22.5470  -14.1870 C.ar   72  DT72        0.0824
   1477  C7       -26.1630  -22.1370  -14.1170 C.3    72  DT72        0.0377
   1478  P        -20.8970  -27.1690  -15.8370 P.3    73  DA73        0.2141
   1479  OP1      -20.1770  -28.2140  -16.6070 O.2    73  DA73       -0.5172
   1480  OP2      -22.3760  -27.0720  -15.9400 O.3    73  DA73       -0.4373
   1481  O5'      -20.5020  -27.3340  -14.3000 O.3    73  DA73       -0.3114
   1482  C5'      -19.1240  -27.3470  -13.9030 C.3    73  DA73        0.1811
   1483  C4'      -18.9220  -26.5710  -12.6190 C.3    73  DA73        0.1746
   1484  O4'      -19.8730  -25.4730  -12.5350 O.3    73  DA73       -0.3327
   1485  C3'      -19.1180  -27.3090  -11.3080 C.3    73  DA73        0.1558
   1486  O3'      -17.9780  -28.0760  -10.9550 O.3    73  DA73       -0.3138
   1487  C2'      -19.3440  -26.1630  -10.3270 C.3    73  DA73        0.0865
   1488  C1'      -20.1500  -25.1830  -11.1730 C.3    73  DA73        0.2094
   1489  N9       -21.5710  -25.2970  -10.9010 N.ar   73  DA73       -0.2714
   1490  C8       -22.5010  -25.7790  -11.7850 C.ar   73  DA73        0.1815
   1491  N7       -23.7410  -25.5270  -11.4380 N.ar   73  DA73       -0.2193
   1492  C5       -23.6170  -24.8330  -10.2450 C.ar   73  DA73        0.1518
   1493  C6       -24.5680  -24.2820   -9.3680 C.ar   73  DA73        0.1919
   1494  N6       -25.8860  -24.3470   -9.5710 N.pl3  73  DA73       -0.1054
   1495  N1       -24.1120  -23.6540   -8.2630 N.ar   73  DA73       -0.2040
   1496  C2       -22.7910  -23.5890   -8.0610 C.ar   73  DA73        0.2016
   1497  N3       -21.8010  -24.0670   -8.8120 N.ar   73  DA73       -0.2048
   1498  C4       -22.2870  -24.6850   -9.9010 C.ar   73  DA73        0.1691
   1499  P        -17.9840  -28.6930  -10.1950 P.3    74  DC74        0.2141
   1500  OP1      -17.0520  -29.2780  -11.1840 O.2    74  DC74       -0.5172
   1501  OP2      -18.5770  -29.5580   -9.1490 O.3    74  DC74       -0.4373
   1502  O5'      -17.1950  -27.5700   -9.3760 O.3    74  DC74       -0.3114
   1503  C5'      -17.4650  -27.3490   -7.9990 C.3    74  DC74        0.1811
   1504  C4'      -17.5220  -25.8740   -7.6950 C.3    74  DC74        0.1746
   1505  O4'      -18.7100  -25.6000   -6.9070 O.3    74  DC74       -0.3327
   1506  C3'      -16.3450  -25.2920   -6.9110 C.3    74  DC74        0.1558
   1507  O3'      -16.1990  -23.9170   -7.2870 O.3    74  DC74       -0.3138
   1508  C2'      -16.8760  -25.3880   -5.4850 C.3    74  DC74        0.0866
   1509  C1'      -18.3250  -24.9520   -5.7130 C.3    74  DC74        0.2106
   1510  N1       -19.2080  -26.1440   -4.5750 N.ar   74  DC74       -0.2556
   1511  C2       -18.1590  -26.8340   -3.9580 C.ar   74  DC74        0.3531
   1512  O2       -17.1250  -27.0570   -4.6100 O.2    74  DC74       -0.2443
   1513  N3       -18.3020  -27.2380   -2.6730 N.ar   74  DC74       -0.1739
   1514  C4       -19.4310  -26.9770   -2.0130 C.ar   74  DC74        0.1759
   1515  N4       -19.5260  -27.3950   -0.7480 N.pl3  74  DC74       -0.1070
   1516  C5       -20.5050  -26.2790   -2.6200 C.ar   74  DC74        0.0566
   1517  C6       -20.3610  -25.8820   -3.8890 C.ar   74  DC74        0.0849
   1518  P        -15.0550  -22.8600   -6.7940 P.3    75  DC75        0.2141
   1519  OP1      -13.6720  -23.1060   -6.3090 O.2    75  DC75       -0.5172
   1520  OP2      -16.0400  -22.1800   -5.9100 O.3    75  DC75       -0.4373
   1521  O5'      -15.0120  -22.0330   -8.1520 O.3    75  DC75       -0.3114
   1522  C5'      -14.1680  -22.4440   -9.2180 C.3    75  DC75        0.1811
   1523  C4'      -14.3560  -21.5360  -10.3970 C.3    75  DC75        0.1746
   1524  O4'      -15.7000  -21.7120  -10.9040 O.3    75  DC75       -0.3327
   1525  C3'      -14.2520  -20.0480  -10.1020 C.3    75  DC75        0.1558
   1526  O3'      -12.9160  -19.5530  -10.1350 O.3    75  DC75       -0.3138
   1527  C2'      -15.0810  -19.4470  -11.2170 C.3    75  DC75        0.0866
   1528  C1'      -16.1980  -20.4720  -11.3500 C.3    75  DC75        0.2106
   1529  N1       -17.3640  -20.0920  -10.5500 N.ar   75  DC75       -0.2556
   1530  C2       -18.3210  -19.2360  -11.1080 C.ar   75  DC75        0.3531
   1531  O2       -18.1770  -18.8670  -12.2860 O.2    75  DC75       -0.2443
   1532  N3       -19.3700  -18.8360  -10.3520 N.ar   75  DC75       -0.1739
   1533  C4       -19.4830  -19.2570   -9.0910 C.ar   75  DC75        0.1759
   1534  N4       -20.5340  -18.8370   -8.3840 N.pl3  75  DC75       -0.1070
   1535  C5       -18.5250  -20.1240   -8.5070 C.ar   75  DC75        0.0566
   1536  C6       -17.4900  -20.5170   -9.2570 C.ar   75  DC75        0.0849
   1537  P        -12.5480  -18.0720   -9.4340 P.3    76  DG76        0.2141
   1538  OP1      -11.0750  -17.9270   -9.4530 O.2    76  DG76       -0.5172
   1539  OP2      -13.2880  -18.1130   -8.1510 O.3    76  DG76       -0.4373
   1540  O5'      -13.2150  -16.8560  -10.2330 O.3    76  DG76       -0.3114
   1541  C5'      -12.6230  -16.4700  -11.4610 C.3    76  DG76        0.1811
   1542  C4'      -13.6050  -15.8100  -12.3930 C.3    76  DG76        0.1746
   1543  O4'      -14.9280  -16.3860  -12.2360 O.3    76  DG76       -0.3327
   1544  C3'      -13.8620  -14.3330  -12.1660 C.3    76  DG76        0.1558
   1545  O3'      -12.8050  -13.5000  -12.5920 O.3    76  DG76       -0.3138
   1546  C2'      -15.1520  -14.1330  -12.9460 C.3    76  DG76        0.0865
   1547  C1'      -15.8980  -15.4100  -12.5670 C.3    76  DG76        0.2094
   1548  N9       -16.7920  -15.2420  -11.4020 N.ar   76  DG76       -0.2713
   1549  C8       -16.7410  -16.0170  -10.2690 C.ar   76  DG76        0.1816
   1550  N7       -17.7800  -15.8660   -9.4950 N.ar   76  DG76       -0.2173
   1551  C5       -18.5670  -14.9390  -10.1530 C.ar   76  DG76        0.1748
   1552  C6       -19.8200  -14.3750   -9.8000 C.ar   76  DG76        0.3023
   1553  O6       -20.5040  -14.5990   -8.7930 O.2    76  DG76       -0.2633
   1554  N1       -20.2700  -13.4670  -10.7540 N.ar   76  DG76       -0.1709
   1555  C2       -19.5950  -13.1420  -11.9060 C.ar   76  DG76        0.2606
   1556  N2       -20.1890  -12.2450  -12.7050 N.pl3  76  DG76       -0.0859
   1557  N3       -18.4300  -13.6560  -12.2470 N.ar   76  DG76       -0.1918
   1558  C4       -17.9740  -14.5410  -11.3350 C.ar   76  DG76        0.1722
   1559  P        -12.3280  -12.6120  -11.6050 P.3    77  DT77        0.2141
   1560  OP1      -11.1700  -12.1350  -12.4140 O.2    77  DT77       -0.5172
   1561  OP2      -12.1690  -12.8250  -10.1420 O.3    77  DT77       -0.4373
   1562  O5'      -13.6220  -11.7240  -11.8450 O.3    77  DT77       -0.3114
   1563  C5'      -13.8770  -11.1780  -13.1140 C.3    77  DT77        0.1811
   1564  C4'      -14.8400  -10.0470  -12.9880 C.3    77  DT77        0.1746
   1565  O4'      -16.1480  -10.5840  -12.7300 O.3    77  DT77       -0.3327
   1566  C3'      -14.5740   -9.1240  -11.8250 C.3    77  DT77        0.1558
   1567  O3'      -13.5590   -8.1800  -12.1190 O.3    77  DT77       -0.3138
   1568  C2'      -15.9520   -8.5330  -11.5510 C.3    77  DT77        0.0866
   1569  C1'      -16.8540   -9.7250  -11.8560 C.3    77  DT77        0.2106
   1570  N1       -17.2410  -10.5140  -10.6740 N.ar   77  DT77       -0.2559
   1571  C2       -18.3650  -10.0880   -9.9920 C.ar   77  DT77        0.3545
   1572  O2       -19.0860   -9.1920  -10.3930 O.2    77  DT77       -0.2443
   1573  N3       -18.6170  -10.7520   -8.8160 N.ar   77  DT77       -0.1533
   1574  C4       -17.8740  -11.7760   -8.2660 C.ar   77  DT77        0.2804
   1575  O4       -18.2280  -12.2750   -7.2000 O.2    77  DT77       -0.2654
   1576  C5       -16.7220  -12.1600   -9.0330 C.ar   77  DT77        0.0534
   1577  C6       -16.4540  -11.5310  -10.1800 C.ar   77  DT77        0.0824
   1578  C7       -15.8480  -13.2650   -8.5180 C.3    77  DT77        0.0377
   1579  P        -13.1580   -6.9960  -10.7820 P.3    78  DG78        0.2141
   1580  OP1      -12.1700   -6.0060  -11.2760 O.2    78  DG78       -0.5172
   1581  OP2      -12.7430   -8.0050   -9.7720 O.3    78  DG78       -0.4373
   1582  O5'      -14.4140   -6.2020  -10.2060 O.3    78  DG78       -0.3114
   1583  C5'      -14.9570   -5.0790  -10.9130 C.3    78  DG78        0.1811
   1584  C4'      -16.2720   -4.6480  -10.3000 C.3    78  DG78        0.1746
   1585  O4'      -17.1950   -5.7720  -10.2930 O.3    78  DG78       -0.3327
   1586  C3'      -16.2640   -4.2120   -8.8440 C.3    78  DG78        0.1558
   1587  O3'      -15.7920   -2.8850   -8.6610 O.3    78  DG78       -0.3138
   1588  C2'      -17.7360   -4.3330   -8.4920 C.3    78  DG78        0.0865
   1589  C1'      -18.0910   -5.6400   -9.1970 C.3    78  DG78        0.2094
   1590  N9       -17.8940   -6.7650   -8.3010 N.ar   78  DG78       -0.2713
   1591  C8       -16.8660   -7.6730   -8.3790 C.ar   78  DG78        0.1816
   1592  N7       -16.9290   -8.6020   -7.4650 N.ar   78  DG78       -0.2173
   1593  C5       -18.0650   -8.2940   -6.7400 C.ar   78  DG78        0.1748
   1594  C6       -18.6500   -8.9400   -5.6200 C.ar   78  DG78        0.3023
   1595  O6       -18.2580   -9.9550   -5.0310 O.2    78  DG78       -0.2633
   1596  N1       -19.8050   -8.2930   -5.1900 N.ar   78  DG78       -0.1709
   1597  C2       -20.3320   -7.1620   -5.7670 C.ar   78  DG78        0.2606
   1598  N2       -21.4530   -6.6840   -5.2120 N.pl3  78  DG78       -0.0859
   1599  N3       -19.8000   -6.5500   -6.8060 N.ar   78  DG78       -0.1918
   1600  C4       -18.6770   -7.1610   -7.2410 C.ar   78  DG78        0.1722
   1601  P        -15.2010   -2.4740   -7.3000 P.3    79  DA79        0.2141
   1602  OP1      -14.4280   -1.2440   -7.5970 O.2    79  DA79       -0.5172
   1603  OP2      -14.4710   -3.6980   -6.8980 O.3    79  DA79       -0.4373
   1604  O5'      -16.2540   -2.2370   -6.1100 O.3    79  DA79       -0.3114
   1605  C5'      -17.2930   -1.2720   -6.2230 C.3    79  DA79        0.1812
   1606  C4'      -18.5650   -1.6600   -5.4990 C.3    79  DA79        0.1775
   1607  O4'      -18.9210   -3.0460   -5.7690 O.3    79  DA79       -0.3326
   1608  C3'      -18.5510   -1.6200   -3.9780 C.3    79  DA79        0.1859
   1609  O3'      -18.5710   -0.3210   -3.4130 O.3    79  DA79       -0.2203
   1610  C2'      -19.7890   -2.4500   -3.6590 C.3    79  DA79        0.0894
   1611  C1'      -19.6200   -3.5870   -4.6630 C.3    79  DA79        0.2095
   1612  N9       -18.7990   -4.6920   -4.0430 N.ar   79  DA79       -0.2714
   1613  C8       -17.6070   -5.1250   -4.5630 C.ar   79  DA79        0.1815
   1614  N7       -17.2060   -6.2770   -4.0800 N.ar   79  DA79       -0.2193
   1615  C5       -18.2020   -6.6240   -3.1810 C.ar   79  DA79        0.1518
   1616  C6       -18.3710   -7.7380   -2.3390 C.ar   79  DA79        0.1919
   1617  N6       -17.5010   -8.7480   -2.2680 N.pl3  79  DA79       -0.1054
   1618  N1       -19.4770   -7.7770   -1.5660 N.ar   79  DA79       -0.2040
   1619  C2       -20.3480   -6.7650   -1.6390 C.ar   79  DA79        0.2016
   1620  N3       -20.3000   -5.6670   -2.3900 N.ar   79  DA79       -0.2048
   1621  C4       -19.1890   -5.6570   -3.1460 C.ar   79  DA79        0.1691
   1622  P        -16.6950    0.2810   -0.9360 P.3    80  DA80        0.5411
   1623  OP1      -16.6960    1.5750   -0.2010 O.2    80  DA80       -0.2272
   1624  OP2      -15.6060   -0.7040   -0.6930 O.2    80  DA80       -0.2272
   1625  O5'      -18.0840   -0.4650   -0.6980 O.3    80  DA80       -0.2722
   1626  C5'      -18.5320   -0.7310    0.6220 C.3    80  DA80        0.1850
   1627  C4'      -20.0110   -1.0350    0.6380 C.3    80  DA80        0.1755
   1628  O4'      -20.2320   -2.4150    0.2290 O.3    80  DA80       -0.3510
   1629  C3'      -20.5920   -0.9610    2.0400 C.3    80  DA80        0.1839
   1630  O3'      -20.9460    0.3720    2.3780 O.3    80  DA80       -0.2204
   1631  C2'      -21.7620   -1.9320    1.9810 C.3    80  DA80        0.0676
   1632  C1'      -21.1870   -3.0300    1.0840 C.3    80  DA80        0.1450
   1633  N9       -19.0780   -4.1970    1.4240 N.ar   80  DA80       -0.2032
   1634  C8       -18.1860   -4.3460    0.3950 C.ar   80  DA80        0.2005
   1635  N7       -17.4790   -5.4500    0.4640 N.ar   80  DA80       -0.2179
   1636  C5       -17.9390   -6.0670    1.6170 C.ar   80  DA80        0.1534
   1637  C6       -17.5910   -7.2750    2.2460 C.ar   80  DA80        0.1919
   1638  N6       -16.6600   -8.1100    1.7790 N.pl3  80  DA80       -0.1054
   1639  N1       -18.2400   -7.5980    3.3850 N.ar   80  DA80       -0.2040
   1640  C2       -19.1730   -6.7600    3.8510 C.ar   80  DA80        0.2016
   1641  N3       -19.5870   -5.5990    3.3500 N.ar   80  DA80       -0.2031
   1642  C4       -18.9230   -5.3060    2.2190 C.ar   80  DA80        0.1862
@<TRIPOS>BOND
     1  1459  1458    2
     2  1447  1458    1
     3  1447  1446    1
     4  1440  1439    2
     5  1443  1444    1
     6  1443  1442    1
     7  1458  1461    1
     8  1458  1460    1
     9  1444  1446    1
    10  1444  1445    1
    11  1462  1461    1
    12  1462  1463    1
    13  1446  1448    1
    14  1439  1442    1
    15  1439  1425    1
    16  1439  1441    1
    17  1425  1424    1
    18  1445  1449    1
    19  1448  1449    1
    20  1463  1464    1
    21  1463  1465    1
    22  1479  1478    2
    23  1466  1478    1
    24  1466  1465    1
    25  1426  1424    1
    26  1426  1427    1
    27  1449  1450    1
    28  1424  1422    1
    29  1422  1421    1
    30  1422  1423    1
    31  1480  1478    1
    32  1478  1481    1
    33  1464  1468    1
    34  1465  1467    1
    35  1421  1420    1
    36  1427  1423    1
    37  1427  1428    1
    38  1436  1435    1
    39  1450  1457   ar
    40  1450  1451   ar
    41  1437  1435   ar
    42  1437  1438   ar
    43  1467  1468    1
    44  1457  1456   ar
    45  1468  1469    1
    46  1418  1417    2
    47  1481  1482    1
    48  1476  1469   ar
    49  1476  1475   ar
    50  1477  1475    1
    51  1420  1417    1
    52  1435  1434   ar
    53  1452  1451    2
    54  1428  1438   ar
    55  1428  1429   ar
    56  1482  1483    1
    57  1451  1453   ar
    58  1438  1431   ar
    59  1469  1470   ar
    60  1475  1473   ar
    61  1417  1405    1
    62  1417  1419    1
    63  1456  1454   ar
    64  1563  1564    1
    65  1563  1562    1
    66  1564  1565    1
    67  1564  1566    1
    68  1546  1547    1
    69  1546  1544    1
    70  1405  1404    1
    71   683   682    2
    72  1429  1430   ar
    73  1434  1432   ar
    74  1565  1569    1
    75  1556  1555    1
    76  1483  1484    1
    77  1483  1485    1
    78  1545  1544    1
    79  1545  1559    1
    80  1547  1543    1
    81  1547  1548    1
    82  1484  1488    1
    83  1453  1454   ar
    84  1560  1559    2
    85  1431  1430   ar
    86  1431  1432   ar
    87  1542  1543    1
    88  1542  1544    1
    89  1542  1541    1
    90  1531  1530    2
    91  1454  1455    1
    92  1557  1555   ar
    93  1557  1558   ar
    94  1470  1471    2
    95  1470  1472   ar
    96  1567  1566    1
    97  1567  1579    1
    98  1406  1404    1
    99  1406  1407    1
   100  1473  1472   ar
   101  1473  1474    2
   102   666   665    1
   103   666   667    1
   104  1555  1554   ar
   105  1569  1568    1
   106  1569  1570    1
   107   663   662    2
   108  1562  1559    1
   109  1566  1568    1
   110  1432  1433    2
   111   665   662    1
   112  1490  1491   ar
   113  1490  1489   ar
   114  1404  1402    1
   115  1559  1561    1
   116   670   682    1
   117   670   669    1
   118   682   685    1
   119   682   684    1
   120  1541  1540    1
   121  1491  1492   ar
   122  1548  1558   ar
   123  1548  1549   ar
   124  1528  1527    1
   125  1528  1524    1
   126  1528  1529    1
   127   667   669    1
   128   667   668    1
   129  1558  1551   ar
   130  1485  1486    1
   131  1485  1487    1
   132  1580  1579    2
   133  1527  1525    1
   134   686   685    1
   135   686   687    1
   136  1500  1499    2
   137   650   662    1
   138   650   649    1
   139  1488  1489    1
   140  1488  1487    1
   141  1410  1409    2
   142  1530  1529   ar
   143  1530  1532   ar
   144  1402  1403    1
   145  1402  1401    1
   146   662   664    1
   147  1486  1499    1
   148  1583  1584    1
   149  1583  1582    1
   150  1524  1523    1
   151  1489  1498   ar
   152  1407  1403    1
   153  1407  1408    1
   154  1579  1582    1
   155  1579  1581    1
   156  1554  1552   ar
   157  1570  1577   ar
   158  1570  1571   ar
   159   669   671    1
   160  1529  1536   ar
   161   478   477    2
   162  1523  1525    1
   163  1523  1522    1
   164  1572  1571    2
   165  1532  1533   ar
   166  1584  1585    1
   167  1584  1586    1
   168  1585  1589    1
   169  1549  1550   ar
   170   668   672    1
   171  1492  1498   ar
   172  1492  1493   ar
   173  1540  1537    1
   174  1499  1502    1
   175  1499  1501    1
   176  1577  1576   ar
   177  1409  1408   ar
   178  1409  1411   ar
   179   687   688    1
   180   687   689    1
   181  1551  1552   ar
   182  1551  1550   ar
   183   464   477    1
   184   464   463    1
   185  1526  1525    1
   186  1526  1537    1
   187  1401  1400    1
   188   461   460    1
   189   461   463    1
   190   461   462    1
   191   460   459    1
   192   704   703    2
   193  1571  1573   ar
   194   649   647    1
   195   649   651    1
   196   671   672    1
   197  1408  1415   ar
   198   647   646    1
   199   647   648    1
   200  1498  1497   ar
   201  1552  1553    2
   202  1394  1393    1
   203   651   652    1
   204   690   689    1
   205   690   703    1
   206   457   456    2
   207   646   645    1
   208  1494  1493    1
   209  1538  1537    2
   210  1537  1539    1
   211   477   480    1
   212   477   479    1
   213  1502  1503    1
   214  1493  1495   ar
   215   672   673    1
   216   688   692    1
   217   463   465    1
   218   481   480    1
   219   481   482    1
   220  1536  1535   ar
   221  1411  1412   ar
   222   462   466    1
   223  1522  1521    1
   224  1589  1588    1
   225  1589  1590    1
   226   439   440    1
   227   439   438    1
   228   439   441    1
   229   442   456    1
   230   442   441    1
   231   689   691    1
   232  1400  1397    1
   233  1533  1535   ar
   234  1533  1534    1
   235   703   705    1
   236   703   706    1
   237  1576  1578    1
   238  1576  1574   ar
   239   465   466    1
   240   645   642    1
   241   443   441    1
   242   443   444    1
   243   459   456    1
   244   440   444    1
   245   648   652    1
   246  1586  1587    1
   247  1586  1588    1
   248  1415  1414   ar
   249  1573  1574   ar
   250  1497  1496   ar
   251   438   437    1
   252  1393  1392   ar
   253  1393  1395   ar
   254   456   458    1
   255  1587  1601    1
   256   652   653    1
   257   643   642    2
   258   466   467    1
   259   444   445    1
   260  1398  1397    2
   261   482   483    1
   262   482   484    1
   263  1591  1590   ar
   264  1591  1592   ar
   265  1590  1600   ar
   266  1574  1575    2
   267  1495  1496   ar
   268  1392  1390   ar
   269  1395  1396   ar
   270  1521  1518    1
   271  1412  1414   ar
   272  1412  1413    2
   273   629   642    1
   274   629   628    1
   275   630   631    1
   276   630   628    1
   277   673   680   ar
   278   673   674   ar
   279   680   679   ar
   280   692   691    1
   281   692   693    1
   282  1397  1383    1
   283  1397  1399    1
   284  1503  1504    1
   285  1414  1416    1
   286   642   644    1
   287   483   487    1
   288   926   925    2
   289   498   497    2
   290  1504  1506    1
   291  1504  1505    1
   292  1384  1382    1
   293  1384  1385    1
   294   706   707    1
   295   640   639   ar
   296   640   641   ar
   297  1602  1601    2
   298   694   693   ar
   299   694   695   ar
   300   428   427    2
   301   707   708    1
   302   485   484    1
   303   485   497    1
   304  1592  1593   ar
   305   631   627    1
   306   631   632    1
   307   929   930    1
   308   929   928    1
   309  1383  1382    1
   310   628   626    1
   311   437   434    1
   312   639   638   ar
   313  1601  1603    1
   314  1601  1604    1
   315  1507  1506    1
   316  1507  1518    1
   317   655   654    2
   318   454   455    1
   319   454   452    1
   320  1600  1599   ar
   321  1600  1593   ar
   322  1212  1213   ar
   323  1212  1211   ar
   324   626   627    1
   325   626   625    1
   326   653   654   ar
   327   653   660   ar
   328   945   944    2
   329  1390  1391    2
   330  1390  1389   ar
   331   467   468    1
   332   467   476    1
   333   693   702   ar
   334  1396  1389   ar
   335  1396  1386   ar
   336   484   486    1
   337   445   455   ar
   338   445   446   ar
   339   424   425    1
   340   424   422    1
   341   497   499    1
   342   497   500    1
   343   914   925    1
   344   914   913    1
   345   453   452    2
   346   453   475    1
   347   435   434    2
   348   681   679    1
   349   933   944    1
   350   933   932    1
   351  1506  1508    1
   352   679   677   ar
   353  1505  1509    1
   354   930   932    1
   355   930   931    1
   356   674   675    1
   357   674   676   ar
   358   675   412    1
   359  1599  1597   ar
   360  1213  1214   ar
   361  1518  1519    2
   362  1518  1520    1
   363  1382  1380    1
   364  1593  1594   ar
   365   423   434    1
   366   423   422    1
   367   925   928    1
   368   925   927    1
   369   654   656   ar
   370  1389  1388   ar
   371  1385  1386    1
   372  1385  1381    1
   373  1211  1209   ar
   374   455   448   ar
   375   911   910    1
   376   911   913    1
   377   911   912    1
   378   468   469    2
   379   487   486    1
   380   487   488    1
   381   695   696   ar
   382   434   436    1
   383   641   632   ar
   384   641   635   ar
   385   660   659   ar
   386   910   909    1
   387   452   451    2
   388  1386  1387   ar
   389   425   426    1
   390   425   421    1
   391   632   633   ar
   392   475   476    1
   393   475   474    1
   394   427   426   ar
   395   427   429   ar
   396  1605  1604    1
   397  1605  1606    1
   398   944   946    1
   399   944   947    1
   400   476   470    1
   401   638   636   ar
   402   422   420    1
   403   412   411    2
   404   625   624    1
   405   708   709    1
   406   708   710    1
   407   932   934    1
   408   446   447   ar
   409   913   915    1
   410   931   935    1
   411   907   906    2
   412   495   488   ar
   413   495   494   ar
   414   722   720    1
   415   702   696   ar
   416   702   701   ar
   417   912   916    1
   418  1607  1606    1
   419  1607  1611    1
   420  1597  1598    1
   421  1597  1596   ar
   422  1189  1187   ar
   423  1189  1190   ar
   424  1188  1187    2
   425   915   916    1
   426  1191  1190    1
   427   676   677   ar
   428  1509  1508    1
   429  1509  1510    1
   430   709   713    1
   431   677   678    2
   432   420   421    1
   433   420   419    1
   434   500   501    1
   435  1594  1596   ar
   436  1594  1595    2
   437   426   433   ar
   438  1380  1381    1
   439  1380  1379    1
   440  1388  1387   ar
   441   429   430   ar
   442  1214  1205   ar
   443  1214  1208   ar
   444   488   489   ar
   445  1606  1608    1
   446   501   502    1
   447   696   697   ar
   448   496   494    1
   449   275   274    1
   450   275   276    1
   451   275   277    1
   452   656   657   ar
   453  1209  1208   ar
   454  1209  1210    1
   455  1187  1186   ar
   456   916   917    1
   457   895   906    1
   458   895   894    1
   459   469   470    1
   460   448   447   ar
   461   448   449    1
   462  1190  1192   ar
   463   291   290    2
   464   934   935    1
   465   635   636   ar
   466   635   634   ar
   467  1204  1203    1
   468  1204  1205    1
   469  1204  1200    1
   470   659   657   ar
   471   659   661    1
   472  1203  1201    1
   473   274   273    1
   474   909   906    1
   475   474   473    2
   476   451   449    1
   477   633   634   ar
   478   278   277    1
   479   278   290    1
   480   636   637    2
   481   470   471    2
   482   710   711    1
   483   710   712    1
   484   701   700   ar
   485   494   492   ar
   486   711   723    1
   487   906   908    1
   488   721   720   ar
   489   721   714   ar
   490   935   936    1
   491   624   621    1
   492   276   280    1
   493   948   947    1
   494   948   949    1
   495    82    81    2
   496   411   413    1
   497   411   410    2
   498  1205  1206   ar
   499  1208  1207   ar
   500   720   718   ar
   501  1611  1612    1
   502  1611  1610    1
   503  1512  1511    2
   504  1510  1511   ar
   505  1510  1517   ar
   506  1613  1614   ar
   507  1613  1612   ar
   508  1219  1220    1
   509  1219  1218    1
   510   657   658    2
   511   725   723    2
   512  1223  1235    1
   513  1223  1222    1
   514   277   279    1
   515   724   723    1
   516    64    65    1
   517    64    63    1
   518  1236  1235    2
   519   449   450    2
   520  1379  1378    1
   521   279   280    1
   522  1239  1240    1
   523  1239  1238    1
   524  1220  1222    1
   525  1220  1221    1
   526    68    81    1
   527    68    67    1
   528    65    66    1
   529    65    67    1
   530   419   418    1
   531   489   490    2
   532   489   491   ar
   533   723   726    1
   534  1200  1199    1
   535   290   292    1
   536   290   293    1
   537   896   894    1
   538   896   897    1
   539   713   714    1
   540   713   712    1
   541  1255  1254    2
   542   280   281    1
   543   433   432   ar
   544   430   431    1
   545   430   432   ar
   546  1186  1185    1
   547  1186  1193   ar
   548   502   503    1
   549   502   504    1
   550   413   414    1
   551   410   408    1
   552  1192  1193   ar
   553   503   507    1
   554  1216  1215    2
   555    61    60    2
   556   271   270    2
   557   894   892    1
   558   622   621    2
   559  1614  1615   ar
   560  1612  1621   ar
   561   697   698    1
   562   697   699   ar
   563  1608  1610    1
   564  1608  1609    1
   565   256   270    1
   566   256   255    1
   567  1378  1375    1
   568  1511  1513   ar
   569  1202  1201    1
   570  1202  1215    1
   571   473   471    1
   572   714   715   ar
   573  1517  1516   ar
   574  1201  1199    1
   575   637   431    1
   576   471   472    1
   577  1235  1238    1
   578  1235  1237    1
   579   257   255    1
   580   257   258    1
   581   892   893    1
   582   892   891    1
   583   273   270    1
   584   917   924   ar
   585   917   918   ar
   586  1185  1184    1
   587  1185  1181    1
   588   700   699   ar
   589   919   918    2
   590   492   491   ar
   591   492   493    2
   592  1199  1198    1
   593  1243  1254    1
   594  1243  1242    1
   595   294   293    1
   596   294   295    1
   597  1222  1224    1
   598   943   936   ar
   599   943   942   ar
   600   621   609    1
   601   621   623    1
   602   267   266    1
   603   936   937   ar
   604   897   893    1
   605   897   898    1
   606    66    70    1
   607    81    84    1
   608    81    83    1
   609    67    69    1
   610    85    84    1
   611    85    86    1
   612  1240  1242    1
   613  1240  1241    1
   614  1221  1225    1
   615  1206  1207   ar
   616   900   899    2
   617  1215  1218    1
   618  1215  1217    1
   619   949   950    1
   620   949   951    1
   621   418   415    1
   622   515   514   ar
   623   515   508   ar
   624   718   719    2
   625   718   717   ar
   626   270   272    1
   627   614   613    2
   628  1369  1368    2
   629   514   512   ar
   630  1615  1621   ar
   631  1615  1616   ar
   632   255   253    1
   633  1224  1225    1
   634  1621  1620   ar
   635  1254  1256    1
   636  1254  1257    1
   637    49    60    1
   638    49    48    1
   639    69    70    1
   640   924   923   ar
   641    63    60    1
   642   918   920   ar
   643  1370  1368   ar
   644  1370  1371   ar
   645   283   282    2
   646   609   608    1
   647  1184  1182    1
   648    60    62    1
   649   726   727    1
   650   414   407   ar
   651   414   404   ar
   652   258   254    1
   653   258   259    1
   654   268   266   ar
   655   268   269   ar
   656   504   505    1
   657   504   506    1
   658   253   254    1
   659   253   252    1
   660   950   954    1
   661   408   409    2
   662   408   407    1
   663  1242  1244    1
   664   281   282   ar
   665   281   288   ar
   666  1181  1180    1
   667   507   508    1
   668   507   506    1
   669  1372  1371    1
   670  1225  1226    1
   671    70    71    1
   672   891   890    1
   673   402   403    1
   674   402   400    1
   675  1376  1375    2
   676  1513  1514   ar
   677    50    48    1
   678    50    51    1
   679  1368  1367   ar
   680    86    87    1
   681    86    88    1
   682  1375  1377    1
   683  1375  1364    1
   684  1516  1514   ar
   685   715   717   ar
   686   715   716    2
   687   266   265   ar
   688   610   608    1
   689   610   611    1
   690   952   951    1
   691   952   963    1
   692   505   516    1
   693   518   516    2
   694   517   516    1
   695   295   296    1
   696   295   297    1
   697  1241  1245    1
   698   942   940   ar
   699   508   509   ar
   700  1371  1373   ar
   701   245   244    1
   702   951   953    1
   703  1620  1619   ar
   704   899   898   ar
   705   899   901   ar
   706   938   937    2
   707   937   939   ar
   708  1616  1617    1
   709  1616  1618   ar
   710   282   284   ar
   711   898   905   ar
   712   964   963    2
   713  1365  1363    1
   714  1365  1366    1
   715   613   615   ar
   716   613   612   ar
   717  1198  1197    1
   718    48    46    1
   719   407   406   ar
   720   742   740    1
   721   403   404    1
   722   403   399    1
   723   727   728    1
   724   608   606    1
   725   516   519    1
   726   288   287   ar
   727    87    91    1
   728   965   963    1
   729  1514  1515    1
   730    46    47    1
   731    46    45    1
   732  1258  1257    1
   733  1258  1259    1
   734   296   300    1
   735   404   405   ar
   736   104   103    2
   737   512   513    1
   738   512   511   ar
   739   615   616   ar
   740   415   401    1
   741   415   416    2
   742   415   417    1
   743   252   251    1
   744    51    47    1
   745    51    52    1
   746   963   966    1
   747   269   259   ar
   748   269   262   ar
   749   923   921   ar
   750   259   260   ar
   751    89   103    1
   752    89    88    1
   753  1364  1363    1
   754   920   921   ar
   755   401   400    1
   756   884   885   ar
   757   884   883   ar
   758    54    53    2
   759  1619  1618   ar
   760  1367  1366    1
   761  1367  1374   ar
   762  1197  1194    1
   763   885   886   ar
   764   962   961   ar
   765   962   955   ar
   766   298   297    1
   767   298   309    1
   768   400   398    1
   769   103   105    1
   770   103   106    1
   771   311   309    2
   772  1182  1180    1
   773  1182  1183    1
   774  1244  1245    1
   775  1180  1179    1
   776   954   953    1
   777   954   955    1
   778   890   887    1
   779   310   309    1
   780    88    90    1
   781   597   598   ar
   782   597   595   ar
   783  1363  1361    1
   784   875   876    1
   785   875   873    1
   786  1366  1362    1
   787  1373  1374   ar
   788    71    72   ar
   789    71    80   ar
   790   265   263   ar
   791   612   611    1
   792   612   619   ar
   793  1245  1246    1
   794  1226  1233   ar
   795  1226  1227   ar
   796   297   299    1
   797   535   533    1
   798   611   607    1
   799   940   939   ar
   800   940   941    1
   801   901   902   ar
   802  1176  1162    1
   803  1176  1175    1
   804   509   511   ar
   805   509   510    2
   806   598   599   ar
   807   309   312    1
   808   905   904   ar
   809   244   246   ar
   810   244   243   ar
   811   921   922    1
   812  1162  1161    1
   813   740   741   ar
   814   740   738   ar
   815   284   285   ar
   816   961   959   ar
   817    45    44    1
   818   729   728    1
   819   729   733    1
   820  1183  1194    1
   821  1622  1625    1
   822  1622  1624    2
   823  1622  1623    2
   824   874   873    1
   825   874   887    1
   826  1233  1232   ar
   827  1159  1158    1
   828  1159  1160    1
   829  1159  1161    1
   830   406   405   ar
   831   741   734   ar
   832   606   607    1
   833   606   605    1
   834   399   398    1
   835   728   730    1
   836  1274  1273    2
   837   287   285   ar
   838   287   289    1
   839  1228  1227    2
   840   955   956   ar
   841    72    73   ar
   842    91    90    1
   843    91    92    1
   844   888   887    2
   845  1259  1260    1
   846  1259  1261    1
   847   251   248    1
   848   308   307   ar
   849   308   301   ar
   850   883   881   ar
   851   616   617    2
   852   616   618   ar
   853  1625  1626    1
   854  1178  1179    1
   855  1178  1175    1
   856   876   877    1
   857   876   872    1
   858   246   247   ar
   859   300   299    1
   860   300   301    1
   861    53    52   ar
   862    53    55   ar
   863   596   595    1
   864    52    59   ar
   865  1158  1157    1
   866   262   263   ar
   867   262   261   ar
   868   519   520    1
   869   398   397    1
   870  1194  1196    2
   871  1194  1195    1
   872  1227  1229   ar
   873   260   261   ar
   874    79    80   ar
   875    79    78   ar
   876   739   738    2
   877  1253  1246   ar
   878  1253  1252   ar
   879   532   531    2
   880   595   594   ar
   881  1160  1164    1
   882  1163  1161    1
   883  1163  1164    1
   884   873   871    1
   885   887   889    1
   886   533   531   ar
   887   533   534   ar
   888   886   877   ar
   889   886   880   ar
   890    80    74   ar
   891   243   241   ar
   892  1151  1150    1
   893  1246  1247   ar
   894   738   737   ar
   895   307   305   ar
   896   966   967    1
   897   285   286    2
   898   263   264    2
   899  1275  1273    1
   900  1175  1177    1
   901   619   618   ar
   902   389   388    2
   903    93    92   ar
   904    93    94   ar
   905  1164  1165    1
   906   599   600   ar
   907   902   904   ar
   908   902   903    1
   909  1362  1361    1
   910   106   107    1
   911  1361  1360    1
   912  1262  1273    1
   913  1262  1261    1
   914  1273  1276    1
   915  1260  1264    1
   916   605   604    1
   917   531   530   ar
   918   301   302   ar
   919   387   388   ar
   920   387   385   ar
   921  1350  1349    2
   922    44    41    1
   923   734   733    1
   924   734   735   ar
   925   877   878   ar
   926   982   980    1
   927   618   620    1
   928   386   385    2
   929   534   527   ar
   930   872   871    1
   931   871   870    1
   932  1628  1627    1
   933  1628  1632    1
   934   235   236    1
   935   235   233    1
   936   733   732    1
   937   520   521    1
   938    92   102   ar
   939  1261  1263    1
   940   312   313    1
   941   967   968    1
   942  1351  1349   ar
   943  1351  1352   ar
   944   107   108    1
   945  1634  1635   ar
   946  1634  1633   ar
   947   959   960    1
   948   959   958   ar
   949  1232  1234    1
   950  1232  1230   ar
   951   522   521    1
   952   522   526    1
   953  1635  1636   ar
   954    55    56   ar
   955   249   248    2
   956   730   731    1
   957   730   732    1
   958    73    74   ar
   959  1353  1352    1
   960   881   880   ar
   961   881   882    1
   962   574   573    2
   963   956   958   ar
   964   956   957    2
   965   388   390   ar
   966  1626  1627    1
   967    59    58   ar
   968   762   760    1
   969  1141  1142    1
   970  1141  1139    1
   971   248   234    1
   972   248   250    1
   973  1349  1348   ar
   974  1627  1629    1
   975   737   735   ar
   976  1252  1250   ar
   977   247   237   ar
   978   247   240   ar
   979  1152  1150   ar
   980  1152  1153   ar
   981   234   233    1
   982    38    37    1
   983   385   384   ar
   984   880   879   ar
   985  1150  1149   ar
   986    78    77   ar
   987   575   573   ar
   988   575   576   ar
   989    42    41    2
   990   552   551    2
   991    74    75   ar
   992   594   600   ar
   993   594   593   ar
   994  1229  1230   ar
   995  1157  1154    1
   996    94    95   ar
   997  1352  1354   ar
   998   577   576    1
   999   735   736    2
  1000   600   591   ar
  1001   530   528   ar
  1002  1247  1248    2
  1003  1247  1249   ar
  1004  1359  1360    1
  1005  1359  1356    1
  1006   397   396    1
  1007   368   367    1
  1008  1140  1154    1
  1009  1140  1139    1
  1010   859   858    2
  1011   241   240   ar
  1012   241   242    2
  1013  1357  1356    2
  1014  1632  1631    1
  1015   236   237    1
  1016   236   232    1
  1017  1155  1154    2
  1018   527   526    1
  1019   527   528   ar
  1020   396   393    1
  1021   313   314    1
  1022   124   122    2
  1023   745   743    2
  1024   305   306    1
  1025   305   304   ar
  1026   521   523    1
  1027  1142  1138    1
  1028  1142  1143    1
  1029   222   223   ar
  1030   222   220   ar
  1031  1358  1356    1
  1032   731   743    1
  1033   233   231    1
  1034  1173  1174   ar
  1035  1173  1172   ar
  1036  1165  1174   ar
  1037  1165  1166   ar
  1038   759   758    2
  1039   573   572   ar
  1040  1272  1271   ar
  1041  1272  1265   ar
  1042    41    43    1
  1043    41    27    1
  1044   526   525    1
  1045   223   224   ar
  1046   860   858   ar
  1047   860   861   ar
  1048  1264  1263    1
  1049  1264  1265    1
  1050   604   601    1
  1051  1230  1231    2
  1052  1633  1642   ar
  1053   302   304   ar
  1054   302   303    2
  1055   237   238   ar
  1056   878   879   ar
  1057   528   529    1
  1058  1348  1355   ar
  1059  1348  1347   ar
  1060   980   981   ar
  1061   980   978   ar
  1062  1154  1156    1
  1063  1356  1342    1
  1064   576   578   ar
  1065  1276  1277    1
  1066   240   239   ar
  1067  1139  1137    1
  1068    56    58   ar
  1069    56    57    1
  1070  1636  1642   ar
  1071  1636  1637   ar
  1072   862   861    2
  1073   870   869    1
  1074   102    95   ar
  1075   102   101   ar
  1076   981   974   ar
  1077   123   122    1
  1078  1354  1355   ar
  1079  1638  1637    1
  1080   858   857   ar
  1081   603   601    2
  1082  1137  1138    1
  1083  1137  1136    1
  1084   968   969    1
  1085   968   970    1
  1086  1174  1168   ar
  1087   108   110    1
  1088   108   109    1
  1089   322   321   ar
  1090   322   323   ar
  1091   760   758   ar
  1092   760   761   ar
  1093   969   973    1
  1094  1292  1290    1
  1095  1153  1143   ar
  1096  1153  1146   ar
  1097  1271  1269   ar
  1098   553   551    1
  1099   553   554    2
  1100   551   550    1
  1101  1149  1147   ar
  1102  1250  1249   ar
  1103  1250  1251    1
  1104  1631  1629    1
  1105    37    39   ar
  1106    37    36   ar
  1107   122   111    1
  1108   122   125    1
  1109    77    75   ar
  1110  1355  1345   ar
  1111    95    96   ar
  1112   743   744    1
  1113   743   746    1
  1114  1347  1346   ar
  1115   390   392    1
  1116   390   391   ar
  1117  1629  1630    1
  1118  1129  1130   ar
  1119  1129  1128   ar
  1120    75    76    1
  1121   758   757   ar
  1122   593   592   ar
  1123   231   232    1
  1124   231   230    1
  1125  1265  1266   ar
  1126   367   369   ar
  1127   367   366   ar
  1128   861   863   ar
  1129   384   391   ar
  1130   384   383    1
  1131  1172  1171   ar
  1132  1143  1144   ar
  1133   332   330    2
  1134   321   320   ar
  1135   221   220    1
  1136   120   121   ar
  1137   120   118   ar
  1138  1277  1278    1
  1139   111   110    1
  1140   591   590    1
  1141   591   592   ar
  1142   369   370   ar
  1143  1642  1641   ar
  1144   589   590    1
  1145   589   587    1
  1146   121   114   ar
  1147  1637  1639   ar
  1148  1166  1167   ar
  1149   110   112    1
  1150    39    40   ar
  1151   220   219   ar
  1152   529   555    1
  1153    28    26    1
  1154    28    29    1
  1155   395   393    1
  1156   395   380    1
  1157    27    26    1
  1158   842   843    2
  1159   842   840    1
  1160   224   225   ar
  1161   101    99   ar
  1162   523   525    1
  1163   523   524    1
  1164   601   602    1
  1165   601   588    1
  1166   382   383    1
  1167   382   380    1
  1168   393   394    2
  1169   393   381    1
  1170  1130  1131   ar
  1171   869   866    1
  1172   109   113    1
  1173   314   315    1
  1174   314   316    1
  1175   979   978    2
  1176   325   324    1
  1177   978   977   ar
  1178   315   319    1
  1179   572   579   ar
  1180   572   571   ar
  1181  1343  1341    1
  1182  1343  1344    1
  1183   843   844    1
  1184  1128  1126   ar
  1185   238   239   ar
  1186   590   586    1
  1187  1346  1345   ar
  1188   761   754   ar
  1189  1342  1341    1
  1190   970   971    1
  1191   970   972    1
  1192  1345  1344    1
  1193   578   579   ar
  1194   555   554    2
  1195    36    34   ar
  1196   383   379    1
  1197   974   973    1
  1198   974   975   ar
  1199  1341  1339    1
  1200   855   856    1
  1201   855   853    1
  1202  1136  1135    1
  1203   554   556    1
  1204   857   856    1
  1205   857   864   ar
  1206   323   324   ar
  1207   323   329   ar
  1208  1146  1147   ar
  1209  1146  1145   ar
  1210   841   840    1
  1211    26    24    1
  1212  1295  1293    2
  1213   366   365   ar
  1214   366   372   ar
  1215   973   972    1
  1216  1147  1148    2
  1217  1168  1167   ar
  1218  1168  1169   ar
  1219   550   549   ar
  1220   550   557   ar
  1221   757   755   ar
  1222   971   983    1
  1223  1108  1107    1
  1224   588   587    1
  1225   330   331    1
  1226   330   317    1
  1227   330   333    1
  1228   370   371   ar
  1229  1290  1291   ar
  1230  1290  1288   ar
  1231   579   569   ar
  1232  1269  1270    1
  1233  1269  1268   ar
  1234   119   118    1
  1235   746   747    1
  1236  1641  1640   ar
  1237   118   117   ar
  1238   587   585    1
  1239   365   364   ar
  1240    96    97    2
  1241    96    98   ar
  1242  1639  1640   ar
  1243   779   778    2
  1244   346   345    2
  1245   840   839    2
  1246   863   864   ar
  1247   863   865    1
  1248   230   229    1
  1249   114   113    1
  1250   114   115   ar
  1251   316   317    1
  1252   316   318    1
  1253  1171  1169   ar
  1254   324   326   ar
  1255  1144  1145   ar
  1256   125   126    1
  1257   320   319    1
  1258   320   329   ar
  1259  1266  1268   ar
  1260  1266  1267    2
  1261   225   219   ar
  1262   225   216   ar
  1263  1344  1340    1
  1264   219   218   ar
  1265    29    30    1
  1266    29    25    1
  1267   856   852    1
  1268   380   381    1
  1269   380   378    1
  1270   571   570   ar
  1271    40    30   ar
  1272    40    33   ar
  1273  1291  1284   ar
  1274    16    15   ar
  1275    16    17   ar
  1276   113   112    1
  1277  1278  1279    1
  1278  1278  1280    1
  1279   549   548   ar
  1280   199   198    2
  1281    99    98   ar
  1282    99   100    1
  1283  1330  1329    2
  1284   343   342   ar
  1285   343   344   ar
  1286    15    13   ar
  1287   977   975   ar
  1288   319   318    1
  1289   985   983    2
  1290  1131  1125   ar
  1291  1131  1122   ar
  1292   202   201    1
  1293   200   198   ar
  1294   200   201   ar
  1295   844   865    1
  1296   844   845    1
  1297  1002  1000    1
  1298   754   755   ar
  1299   754   753    1
  1300   747   748    1
  1301  1169  1170    1
  1302  1336  1334    2
  1303   975   976    2
  1304   782   780    1
  1305  1120  1121    1
  1306  1120  1118    1
  1307  1126  1125   ar
  1308  1126  1127    1
  1309   329   328   ar
  1310  1294  1293    1
  1311   866   854    1
  1312   866   867    2
  1313   866   868    1
  1314  1293  1281    1
  1315  1293  1296    1
  1316  1279  1283    1
  1317    30    31   ar
  1318   854   853    1
  1319   586   585    1
  1320   755   756    2
  1321  1280  1281    1
  1322  1280  1282    1
  1323  1135  1132    1
  1324  1337  1334    1
  1325  1337  1338    1
  1326   372   371   ar
  1327   372   363   ar
  1328    34    33   ar
  1329    34    35    2
  1330  1289  1288    2
  1331   853   851    1
  1332   556   557    1
  1333   379   378    1
  1334   229   226    1
  1335   557   547   ar
  1336   819   818    2
  1337  1121  1122    1
  1338  1121  1117    1
  1339   983   984    1
  1340   983   986    1
  1341  1288  1287   ar
  1342   135   134   ar
  1343   135   136   ar
  1344    24    25    1
  1345    24    23    1
  1346   749   753    1
  1347   749   748    1
  1348   198   197   ar
  1349  1339  1340    1
  1350  1339  1338    1
  1351   345   344   ar
  1352   345   347   ar
  1353    17    18   ar
  1354  1107  1106   ar
  1355  1107  1109   ar
  1356   778   780   ar
  1357   778   777   ar
  1358   364   363   ar
  1359   117   115   ar
  1360   126   127    1
  1361   342   341   ar
  1362    33    32   ar
  1363   333   334    1
  1364  1329  1328   ar
  1365  1329  1331   ar
  1366   585   584    1
  1367   201   203   ar
  1368   569   570   ar
  1369   569   568    1
  1370   115   116    2
  1371  1106  1104   ar
  1372   999   998    2
  1373   344   351   ar
  1374  1125  1124   ar
  1375  1122  1123   ar
  1376   839   845    1
  1377   839   838    1
  1378   134   133   ar
  1379  1335  1334    1
  1380   214   215    1
  1381   214   212    1
  1382   326   327   ar
  1383   218   217   ar
  1384  1334  1322    1
  1385   378   377    1
  1386   178   177    1
  1387   216   215    1
  1388   216   217   ar
  1389   354   352    2
  1390   845   836    1
  1391  1333  1331    1
  1392  1284  1283    1
  1393  1284  1285   ar
  1394  1328  1326   ar
  1395   138   137    1
  1396   852   851    1
  1397   820   818   ar
  1398   820   821   ar
  1399   548   547   ar
  1400   780   781   ar
  1401   753   752    1
  1402   748   750    1
  1403    13    14    1
  1404    13    12   ar
  1405   363   362    1
  1406   799   798    2
  1407  1000   998   ar
  1408  1000  1001   ar
  1409  1331  1332   ar
  1410  1283  1282    1
  1411   215   211    1
  1412   375   373    2
  1413  1316  1314    1
  1414   818   817   ar
  1415   376   377    1
  1416   376   373    1
  1417   145   143    2
  1418   538   536    2
  1419   537   536    2
  1420   159   158    1
  1421   851   850    1
  1422  1117  1116    1
  1423   998   997   ar
  1424   536   539    1
  1425   328   327   ar
  1426   568   567    1
  1427   568   564    1
  1428   547   546    1
  1429  1119  1118    1
  1430  1119  1132    1
  1431   777   775   ar
  1432  1118  1116    1
  1433   822   821    1
  1434    31    32   ar
  1435  1109  1110   ar
  1436  1132  1133    2
  1437  1132  1134    1
  1438   136   137   ar
  1439   136   142   ar
  1440  1296  1297    1
  1441    23    22    1
  1442   347   348   ar
  1443  1287  1285   ar
  1444   986   987    1
  1445   750   752    1
  1446   750   751    1
  1447    18    12   ar
  1448    18     9   ar
  1449   567   565    1
  1450  1326  1327    2
  1451  1326  1325   ar
  1452   334   335    1
  1453   226   227    2
  1454   226   213    1
  1455   226   228    1
  1456  1105  1104    2
  1457  1104  1103   ar
  1458   765   763    2
  1459   197   204   ar
  1460   197   196   ar
  1461  1116  1115    1
  1462   137   139   ar
  1463   341   351   ar
  1464   341   340    1
  1465   203   204   ar
  1466   821   823   ar
  1467   584   583    1
  1468   127   128    1
  1469   127   129    1
  1470   177   179   ar
  1471   177   176   ar
  1472   838   837    2
  1473   351   350   ar
  1474  1285  1286    2
  1475   212   213    1
  1476   212   210    1
  1477  1123  1124   ar
  1478   179   180   ar
  1479   128   132    1
  1480  1001   994   ar
  1481  1332  1325   ar
  1482  1322  1321    1
  1483   133   142   ar
  1484   133   132    1
  1485  1019  1018    2
  1486   373   374    1
  1487   373   360    1
  1488    12    11   ar
  1489   352   355    1
  1490   352   338    1
  1491   352   353    1
  1492   781   774   ar
  1493   836   837    1
  1494   836   835    1
  1495   337   338    1
  1496   337   335    1
  1497   337   339    1
  1498   583   580    1
  1499   160   158   ar
  1500   160   161   ar
  1501   355   356    1
  1502  1321  1323    1
  1503  1321  1319    1
  1504  1306  1305   ar
  1505  1306  1307   ar
  1506   798   797   ar
  1507   798   800   ar
  1508  1325  1324    1
  1509   129   130    1
  1510   129   131    1
  1511   362   361    1
  1512   362   358    1
  1513   158   157   ar
  1514  1039  1038    2
  1515   204   194   ar
  1516   997   995   ar
  1517   564   563    1
  1518   143   130    1
  1519   143   144    1
  1520   143   146    1
  1521   359   361    1
  1522   359   360    1
  1523   359   357    1
  1524  1317  1314    1
  1525  1317  1318    1
  1526  1314  1315    1
  1527  1323  1324    1
  1528   817   816   ar
  1529   817   824   ar
  1530   211   210    1
  1531   142   141   ar
  1532   336   335    1
  1533   336   340    1
  1534   802   800    1
  1535     7     8    1
  1536     7     5    1
  1537   850   849    1
  1538  1305  1304   ar
  1539   775   774   ar
  1540   775   776    2
  1541  1110  1103   ar
  1542  1110  1100   ar
  1543  1022  1020    1
  1544   539   540    1
  1545  1297  1298    1
  1546   849   846    1
  1547   751   763    1
  1548   540   541    1
  1549   196   195   ar
  1550    22     6    1
  1551   834   835    1
  1552   834   832    1
  1553   348   350   ar
  1554   348   349    1
  1555   132   131    1
  1556   835   831    1
  1557  1083  1082    2
  1558  1309  1308    1
  1559     9     8    1
  1560     9    10   ar
  1561   546   542    1
  1562   546   545    1
  1563  1103  1102   ar
  1564   987   988    1
  1565   340   339    1
  1566   797   795   ar
  1567   763   766    1
  1568   763   764    1
  1569  1315  1301    1
  1570   542   541    1
  1571   358   357    1
  1572   774   773    1
  1573   210   209    1
  1574  1084  1082   ar
  1575  1084  1085   ar
  1576   994   995   ar
  1577   994   993    1
  1578   139   140   ar
  1579   176   175   ar
  1580   176   182   ar
  1581   180   181   ar
  1582  1086  1085    1
  1583   823   824   ar
  1584  1018  1020   ar
  1585  1018  1017   ar
  1586     8     4    1
  1587   800   801   ar
  1588  1324  1320    1
  1589   565   563    1
  1590   565   566    1
  1591   816   815   ar
  1592  1040  1038   ar
  1593  1040  1041   ar
  1594  1115  1114    1
  1595   989   988    1
  1596   989   993    1
  1597   161   154   ar
  1598   995   996    2
  1599   175   174   ar
  1600  1038  1037   ar
  1601  1301  1300    1
  1602   824   814   ar
  1603    11    10   ar
  1604  1307  1308   ar
  1605  1307  1313   ar
  1606  1300  1298    1
  1607  1300  1302    1
  1608   357   356    1
  1609   563   562    1
  1610   157   155   ar
  1611  1082  1081   ar
  1612   545   543    1
  1613  1319  1318    1
  1614  1319  1320    1
  1615  1020  1021   ar
  1616   541   543    1
  1617   146   147    1
  1618   566   580    1
  1619   766   767    1
  1620  1308  1310   ar
  1621   194   195   ar
  1622   194   193    1
  1623   580   582    2
  1624   580   581    1
  1625     6    19    1
  1626     5     3    1
  1627    21    19    2
  1628  1298  1299    1
  1629  1085  1087   ar
  1630   141   140   ar
  1631   988   990    1
  1632  1100  1099    1
  1633  1100  1101   ar
  1634  1114  1111    1
  1635  1304  1313   ar
  1636  1304  1303    1
  1637   848   846    2
  1638   993   992    1
  1639  1042  1041    1
  1640   543   544    1
  1641    19    20    2
  1642   846   833    1
  1643   846   847    1
  1644  1098  1099    1
  1645  1098  1096    1
  1646  1017  1015   ar
  1647   832   833    1
  1648   832   830    1
  1649   831   830    1
  1650  1099  1095    1
  1651  1061  1060    2
  1652   182   181   ar
  1653   182   173   ar
  1654  1102  1101   ar
  1655   795   796    2
  1656   795   794   ar
  1657  1299  1303    1
  1658  1041  1043   ar
  1659   773   769    1
  1660   773   772    1
  1661   208   209    1
  1662   208   205    1
  1663   769   768    1
  1664  1313  1312   ar
  1665   815   814   ar
  1666   801   794   ar
  1667     4     3    1
  1668   154   155   ar
  1669   154   153    1
  1670  1302  1303    1
  1671   990   992    1
  1672   990   991    1
  1673   155   156    2
  1674   174   173   ar
  1675   814   813    1
  1676  1037  1036   ar
  1677  1037  1044   ar
  1678  1005  1003    2
  1679   193   192    1
  1680   193   189    1
  1681   192   190    1
  1682   767   768    1
  1683  1021  1014   ar
  1684   562   561    1
  1685     3     2    1
  1686  1310  1311   ar
  1687   147   148    1
  1688   830   829    1
  1689  1081  1088   ar
  1690  1081  1080   ar
  1691   561   558    1
  1692   794   793    1
  1693  1087  1088   ar
  1694   785   783    2
  1695   173   172    1
  1696  1060  1062   ar
  1697  1060  1059   ar
  1698  1036  1035   ar
  1699   768   770    1
  1700   207   205    2
  1701   772   770    1
  1702  1062  1063   ar
  1703   544   558    1
  1704  1015  1014   ar
  1705  1015  1016    2
  1706   149   153    1
  1707   149   148    1
  1708   770   771    1
  1709  1111  1113    2
  1710  1111  1097    1
  1711  1111  1112    1
  1712  1095  1094    1
  1713  1043  1044   ar
  1714  1096  1097    1
  1715  1096  1094    1
  1716   164   162    2
  1717  1088  1078   ar
  1718   205   191    1
  1719   205   206    1
  1720  1044  1034   ar
  1721   153   152    1
  1722  1312  1311   ar
  1723   991  1003    1
  1724  1014  1013    1
  1725   190   191    1
  1726   190   188    1
  1727   558   559    2
  1728   558   560    1
  1729  1080  1079   ar
  1730   813   812    1
  1731   813   809    1
  1732   148   150    1
  1733   150   152    1
  1734   150   151    1
  1735   828   829    1
  1736   828   825    1
  1737   812   810    1
  1738   189   188    1
  1739  1003  1006    1
  1740  1003  1004    1
  1741     2     1    1
  1742  1094  1093    1
  1743  1064  1063    1
  1744   793   789    1
  1745   793   792    1
  1746   827   825    2
  1747  1063  1065   ar
  1748   783   771    1
  1749   783   786    1
  1750   783   784    1
  1751  1059  1058   ar
  1752  1059  1066   ar
  1753  1035  1034   ar
  1754   172   171    1
  1755   172   168    1
  1756   185   183    2
  1757   786   787    1
  1758  1006  1007    1
  1759   151   162    1
  1760   188   187    1
  1761  1034  1033    1
  1762  1058  1057   ar
  1763   171   169    1
  1764   162   165    1
  1765   162   163    1
  1766  1078  1079   ar
  1767  1078  1077    1
  1768   186   183    1
  1769   186   187    1
  1770   810   811    1
  1771   810   808    1
  1772   809   808    1
  1773   789   788    1
  1774   792   790    1
  1775   805   803    2
  1776   165   166    1
  1777  1013  1009    1
  1778  1013  1012    1
  1779   825   811    1
  1780   825   826    1
  1781  1009  1008    1
  1782   168   167    1
  1783   169   167    1
  1784   169   170    1
  1785   790   788    1
  1786   790   791    1
  1787  1025  1023    2
  1788  1092  1093    1
  1789  1092  1089    1
  1790  1066  1065   ar
  1791  1066  1056   ar
  1792   806   803    1
  1793   806   807    1
  1794   183   170    1
  1795   183   184    1
  1796   808   807    1
  1797   788   787    1
  1798  1007  1008    1
  1799  1012  1010    1
  1800  1077  1076    1
  1801  1077  1073    1
  1802  1057  1056   ar
  1803   167   166    1
  1804  1076  1074    1
  1805   803   791    1
  1806   803   804    1
  1807  1010  1008    1
  1808  1010  1011    1
  1809  1033  1032    1
  1810  1033  1029    1
  1811  1056  1055    1
  1812  1091  1089    2
  1813  1047  1045    2
  1814  1032  1030    1
  1815  1026  1023    1
  1816  1026  1027    1
  1817  1089  1075    1
  1818  1089  1090    1
  1819  1023  1011    1
  1820  1023  1024    1
  1821  1029  1028    1
  1822  1074  1075    1
  1823  1074  1072    1
  1824  1073  1072    1
  1825  1030  1028    1
  1826  1030  1031    1
  1827  1028  1027    1
  1828  1072  1071    1
  1829  1055  1054    1
  1830  1055  1051    1
  1831  1045  1048    1
  1832  1045  1031    1
  1833  1045  1046    1
  1834  1048  1049    1
  1835  1070  1071    1
  1836  1070  1067    1
  1837  1069  1067    2
  1838  1054  1052    1
  1839  1051  1050    1
  1840  1052  1050    1
  1841  1052  1053    1
  1842  1067  1053    1
  1843  1067  1068    1
  1844  1049  1050    1
