@<TRIPOS>MOLECULE
dna.pdb
 1463 1638 0 0 0
SMALL
GASTEIGER

@<TRIPOS>ATOM
      1  O5'       13.6650  -12.0750    5.0440 O.3     1  DA1        -0.2176
      2  C5'       12.6420  -11.2370    4.5610 C.3     1  DA1         0.2140
      3  C4'       12.7850   -9.8500    5.1100 C.3     1  DA1         0.1776
      4  O4'       12.6960   -8.9090    4.0100 O.3     1  DA1        -0.3326
      5  C3'       11.6480   -9.5240    6.0540 C.3     1  DA1         0.1559
      6  O3'       12.1360   -9.7320    7.3750 O.3     1  DA1        -0.3138
      7  C2'       11.3370   -8.0690    5.7360 C.3     1  DA1         0.0865
      8  C1'       11.6310   -8.0180    4.2340 C.3     1  DA1         0.2094
      9  N9        10.2930   -8.5610    3.1630 N.ar    1  DA1        -0.2714
     10  C8         9.9740   -9.6480    2.3930 C.ar    1  DA1         0.1815
     11  N7         8.7690   -9.5960    1.8780 N.ar    1  DA1        -0.2193
     12  C5         8.2610   -8.3930    2.3420 C.ar    1  DA1         0.1518
     13  C6         7.0250   -7.7510    2.1520 C.ar    1  DA1         0.1919
     14  N6         6.0360   -8.2570    1.4110 N.pl3   1  DA1        -0.1054
     15  N1         6.8380   -6.5590    2.7560 N.ar    1  DA1        -0.2040
     16  C2         7.8300   -6.0520    3.4980 C.ar    1  DA1         0.2016
     17  N3         9.0350   -6.5600    3.7500 N.ar    1  DA1        -0.2048
     18  C4         9.1880   -7.7450    3.1360 C.ar    1  DA1         0.1691
     19  P         11.1510  -10.6850    8.6750 P.3     2  DT2         0.2141
     20  OP1       11.4150  -10.7660   10.1330 O.3     2  DT2        -0.4373
     21  OP2       10.5020  -11.8620    8.0310 O.2     2  DT2        -0.5172
     22  O5'       10.3080   -9.3440    8.4320 O.3     2  DT2        -0.3114
     23  C5'       10.3700   -8.3360    9.4240 C.3     2  DT2         0.1811
     24  C4'        9.2260   -7.3580    9.3010 C.3     2  DT2         0.1746
     25  O4'        9.3020   -6.6920    8.0000 O.3     2  DT2        -0.3327
     26  C3'        7.8270   -7.9750    9.3870 C.3     2  DT2         0.1558
     27  O3'        7.3580   -8.2760   10.7320 O.3     2  DT2        -0.3138
     28  C2'        7.0140   -6.9260    8.6190 C.3     2  DT2         0.0866
     29  C1'        7.9890   -6.5810    7.4620 C.3     2  DT2         0.2106
     30  N1         7.6460   -7.5700    6.3160 N.ar    2  DT2        -0.2559
     31  C2         6.7330   -7.1880    5.3510 C.ar    2  DT2         0.3545
     32  O2         6.0910   -6.1540    5.4160 O.2     2  DT2        -0.2443
     33  N3         6.5940   -8.0650    4.3030 N.ar    2  DT2        -0.1533
     34  C4         7.2630   -9.2580    4.1250 C.ar    2  DT2         0.2804
     35  O4         7.0310   -9.9390    3.1290 O.2     2  DT2        -0.2654
     36  C5         8.1930   -9.5850    5.1690 C.ar    2  DT2         0.0534
     37  C6         8.3480   -8.7500    6.2000 C.ar    2  DT2         0.0824
     38  C7         8.9700  -10.8640    5.0670 C.3     2  DT2         0.0377
     39  P          6.7770   -9.7210   11.0320 P.3     3  DC3         0.2141
     40  OP1        6.8100   -9.9570   12.5100 O.3     3  DC3        -0.4373
     41  OP2        7.1430  -10.8320   10.1050 O.2     3  DC3        -0.5172
     42  O5'        5.3030   -9.3140   10.7030 O.3     3  DC3        -0.3114
     43  C5'        4.6530   -8.3460   11.4780 C.3     3  DC3         0.1811
     44  C4'        3.3640   -8.0100   10.8270 C.3     3  DC3         0.1746
     45  O4'        3.6440   -7.4890    9.5050 O.3     3  DC3        -0.3327
     46  C3'        2.5260   -9.2280   10.5070 C.3     3  DC3         0.1558
     47  O3'        1.8370   -9.7170   11.6500 O.3     3  DC3        -0.3138
     48  C2'        1.6040   -8.6630    9.4340 C.3     3  DC3         0.0866
     49  C1'        2.5870   -7.8320    8.6200 C.3     3  DC3         0.2106
     50  N1         3.0850   -8.5640    7.5610 N.ar    3  DC3        -0.2556
     51  C2         2.3250   -8.7760    6.4050 C.ar    3  DC3         0.3531
     52  O2         1.2040   -8.2450    6.3200 O.2     3  DC3        -0.2443
     53  N3         2.8300   -9.5530    5.4170 N.ar    3  DC3        -0.1739
     54  C4         4.0370  -10.1030    5.5520 C.ar    3  DC3         0.1759
     55  N4         4.4940  -10.8600    4.5520 N.pl3   3  DC3        -0.1070
     56  C5         4.8230   -9.9000    6.7160 C.ar    3  DC3         0.0566
     57  C6         4.3200   -9.1330    7.6890 C.ar    3  DC3         0.0849
     58  P          1.2830  -11.4100   11.7120 P.3     4  DC4         0.2141
     59  OP1        1.4490  -12.0860   13.0200 O.3     4  DC4        -0.4373
     60  OP2        1.3990  -12.1770   10.4510 O.2     4  DC4        -0.5172
     61  O5'       -0.1670  -10.7300   11.6340 O.3     4  DC4        -0.3114
     62  C5'       -1.2630  -11.3710   10.9950 C.3     4  DC4         0.1811
     63  C4'       -1.9670  -10.4280   10.0490 C.3     4  DC4         0.1746
     64  O4'       -0.9750   -9.7250    9.2540 O.3     4  DC4        -0.3327
     65  C3'       -2.8730  -11.0700    9.0080 C.3     4  DC4         0.1558
     66  O3'       -4.1590  -11.4250    9.4880 O.3     4  DC4        -0.3138
     67  C2'       -2.8880  -10.0120    7.9110 C.3     4  DC4         0.0866
     68  C1'       -1.4180   -9.6030    7.9190 C.3     4  DC4         0.2106
     69  N1        -0.5740  -10.5210    6.9450 N.ar    4  DC4        -0.2556
     70  C2        -0.7130  -10.4340    5.5550 C.ar    4  DC4         0.3531
     71  O2        -1.6680   -9.7880    5.0900 O.2     4  DC4        -0.2443
     72  N3         0.1920  -11.0540    4.7610 N.ar    4  DC4        -0.1739
     73  C4         1.2000  -11.7370    5.3050 C.ar    4  DC4         0.1759
     74  N4         2.0670  -12.3310    4.4830 N.pl3   4  DC4        -0.1070
     75  C5         1.3590  -11.8370    6.7110 C.ar    4  DC4         0.0566
     76  C6         0.4630  -11.2240    7.4920 C.ar    4  DC4         0.0849
     77  P         -4.7760  -12.7500    9.1070 P.3     5  DG5         0.2141
     78  OP1       -6.0490  -12.4660    9.8150 O.3     5  DG5        -0.4373
     79  OP2       -4.1240  -14.0660    9.2870 O.2     5  DG5        -0.5172
     80  O5'       -5.0070  -12.4890    7.5550 O.3     5  DG5        -0.3114
     81  C5'       -5.5500  -11.2330    7.1060 C.3     5  DG5         0.1811
     82  C4'       -5.5890  -11.1800    5.5980 C.3     5  DG5         0.1746
     83  O4'       -4.2560  -10.9730    5.0570 O.3     5  DG5        -0.3327
     84  C3'       -6.0920  -12.4360    4.9100 C.3     5  DG5         0.1558
     85  O3'       -7.5080  -12.5020    4.8930 O.3     5  DG5        -0.3138
     86  C2'       -5.4890  -12.3060    3.5180 C.3     5  DG5         0.0865
     87  C1'       -4.1330  -11.6590    3.8210 C.3     5  DG5         0.2094
     88  N9        -3.0660  -12.6030    3.9440 N.ar    5  DG5        -0.2713
     89  C8        -2.5510  -13.1890    5.0750 C.ar    5  DG5         0.1816
     90  N7        -1.6280  -14.0760    4.8210 N.ar    5  DG5        -0.2173
     91  C5        -1.5240  -14.0790    3.4430 C.ar    5  DG5         0.1748
     92  C6        -0.6910  -14.8380    2.5810 C.ar    5  DG5         0.3023
     93  O6         0.1530  -15.6900    2.8860 O.2     5  DG5        -0.2633
     94  N1        -0.9090  -14.5280    1.2410 N.ar    5  DG5        -0.1709
     95  C2        -1.8170  -13.6020    0.7880 C.ar    5  DG5         0.2606
     96  N2        -1.8830  -13.4410   -0.5410 N.pl3   5  DG5        -0.0859
     97  N3        -2.5980  -12.8900    1.5760 N.ar    5  DG5        -0.1918
     98  C4        -2.4050  -13.1740    2.8810 C.ar    5  DG5         0.1722
     99  P         -8.2260  -13.9040    4.6190 P.3     6  DT6         0.2141
    100  OP1       -9.6580  -13.5910    4.7780 O.2     6  DT6        -0.5172
    101  OP2       -7.6210  -14.9690    5.4470 O.3     6  DT6        -0.4373
    102  O5'       -7.9250  -14.2280    3.0770 O.3     6  DT6        -0.3114
    103  C5'       -8.6170  -13.4930    2.0590 C.3     6  DT6         0.1811
    104  C4'       -8.1820  -13.9050    0.6640 C.3     6  DT6         0.1746
    105  O4'       -6.7830  -13.5630    0.4670 O.3     6  DT6        -0.3327
    106  C3'       -8.2180  -15.4020    0.4250 C.3     6  DT6         0.1558
    107  O3'       -9.4850  -15.8350   -0.0010 O.3     6  DT6        -0.3138
    108  C2'       -7.2330  -15.5460   -0.7180 C.3     6  DT6         0.0866
    109  C1'       -6.1490  -14.5610   -0.3070 C.3     6  DT6         0.2106
    110  N1        -5.0910  -15.1750    0.4680 N.ar    6  DT6        -0.2559
    111  C2        -4.0210  -15.6680   -0.2540 C.ar    6  DT6         0.3545
    112  O2        -3.8690  -15.4600   -1.4440 O.2     6  DT6        -0.2443
    113  N3        -3.1280  -16.4200    0.4720 N.ar    6  DT6        -0.1533
    114  C4        -3.1970  -16.7200    1.8160 C.ar    6  DT6         0.2804
    115  O4        -2.3170  -17.4080    2.3280 O.2     6  DT6        -0.2654
    116  C5        -4.3380  -16.1730    2.4950 C.ar    6  DT6         0.0534
    117  C6        -5.2210  -15.4380    1.8140 C.ar    6  DT6         0.0824
    118  C7        -4.5030  -16.4450    3.9610 C.3     6  DT6         0.0377
    119  P         -9.8000  -17.4200    0.1630 P.3     7  DC7         0.2141
    120  OP1      -11.2120  -17.1980   -0.2140 O.2     7  DC7        -0.5172
    121  OP2       -9.4800  -18.5820    1.0170 O.3     7  DC7        -0.4373
    122  O5'       -8.9110  -17.5290   -1.1300 O.3     7  DC7        -0.3114
    123  C5'       -9.4780  -17.9150   -2.3300 C.3     7  DC7         0.1811
    124  C4'       -8.3510  -18.3340   -3.2340 C.3     7  DC7         0.1746
    125  O4'       -7.0610  -17.8550   -2.7590 O.3     7  DC7        -0.3327
    126  C3'       -8.1340  -19.8210   -3.2840 C.3     7  DC7         0.1558
    127  O3'       -9.1400  -20.3790   -4.0750 O.3     7  DC7        -0.3138
    128  C2'       -6.7590  -19.8580   -3.9250 C.3     7  DC7         0.0866
    129  C1'       -6.0450  -18.7540   -3.1560 C.3     7  DC7         0.2106
    130  N1        -5.3400  -19.1980   -1.9610 N.ar    7  DC7        -0.2556
    131  C2        -4.0620  -19.7600   -2.0550 C.ar    7  DC7         0.3531
    132  O2        -3.6190  -20.0530   -3.1790 O.2     7  DC7        -0.2443
    133  N3        -3.3480  -19.9680   -0.9240 N.ar    7  DC7        -0.1739
    134  C4        -3.8640  -19.6390    0.2610 C.ar    7  DC7         0.1759
    135  N4        -3.1230  -19.8630    1.3490 N.pl3   7  DC7        -0.1070
    136  C5        -5.1570  -19.0680    0.3780 C.ar    7  DC7         0.0566
    137  C6        -5.8590  -18.8640   -0.7420 C.ar    7  DC7         0.0849
    138  P         -9.5530  -21.8450   -3.8040 P.3     8  DA8         0.2141
    139  OP1      -10.6580  -22.0980   -4.7530 O.2     8  DA8        -0.5172
    140  OP2       -9.7190  -22.0410   -2.3410 O.3     8  DA8        -0.4373
    141  O5'       -8.2880  -22.7530   -4.1610 O.3     8  DA8        -0.3114
    142  C5'       -7.9430  -22.9270   -5.5250 C.3     8  DA8         0.1811
    143  C4'       -6.5580  -23.5040   -5.7020 C.3     8  DA8         0.1746
    144  O4'       -5.6140  -22.8280   -4.8330 O.3     8  DA8        -0.3327
    145  C3'       -6.3570  -24.9590   -5.3180 C.3     8  DA8         0.1558
    146  O3'       -6.9180  -25.8860   -6.2280 O.3     8  DA8        -0.3138
    147  C2'       -4.8430  -25.0250   -5.2430 C.3     8  DA8         0.0865
    148  C1'       -4.5570  -23.7120   -4.5240 C.3     8  DA8         0.2094
    149  N9        -4.5460  -23.8860   -3.1230 N.ar    8  DA8        -0.2714
    150  C8        -5.5180  -23.2600   -2.3880 C.ar    8  DA8         0.1815
    151  N7        -5.2510  -23.1920   -1.1060 N.ar    8  DA8        -0.2193
    152  C5        -4.0200  -23.8170   -0.9900 C.ar    8  DA8         0.1518
    153  C6        -3.1880  -24.0730    0.1150 C.ar    8  DA8         0.1919
    154  N6        -3.4890  -23.7120    1.3650 N.pl3   8  DA8        -0.1054
    155  N1        -2.0250  -24.7190   -0.1120 N.ar    8  DA8        -0.2040
    156  C2        -1.7250  -25.0790   -1.3650 C.ar    8  DA8         0.2016
    157  N3        -2.4230  -24.8950   -2.4830 N.ar    8  DA8        -0.2048
    158  C4        -3.5730  -24.2510   -2.2240 C.ar    8  DA8         0.1691
    159  P         -8.0000  -26.9220   -5.6740 P.3     9  DC9         0.2141
    160  OP1       -9.1650  -27.3830   -6.4700 O.2     9  DC9        -0.5172
    161  OP2       -8.0700  -26.8540   -4.1960 O.3     9  DC9        -0.4373
    162  O5'       -6.7210  -27.8300   -5.9880 O.3     9  DC9        -0.3114
    163  C5'       -6.5930  -29.0620   -5.3050 C.3     9  DC9         0.1811
    164  C4'       -5.1940  -29.3240   -4.8150 C.3     9  DC9         0.1746
    165  O4'       -4.6170  -28.1520   -4.1790 O.3     9  DC9        -0.3327
    166  C3'       -5.1420  -30.3520   -3.7110 C.3     9  DC9         0.1558
    167  O3'       -5.3400  -31.6650   -4.1880 O.3     9  DC9        -0.3138
    168  C2'       -3.7990  -30.0690   -3.0540 C.3     9  DC9         0.0866
    169  C1'       -3.8050  -28.5420   -3.0850 C.3     9  DC9         0.2106
    170  N1        -4.5690  -27.9810   -1.7530 N.ar    9  DC9        -0.2556
    171  C2        -3.9030  -28.0840   -0.5260 C.ar    9  DC9         0.3531
    172  O2        -2.8140  -28.6810   -0.4850 O.2     9  DC9        -0.2443
    173  N3        -4.4640  -27.5320    0.5770 N.ar    9  DC9        -0.1739
    174  C4        -5.6350  -26.9010    0.4850 C.ar    9  DC9         0.1759
    175  N4        -6.1490  -26.3730    1.5980 N.pl3   9  DC9        -0.1070
    176  C5        -6.3260  -26.7860   -0.7490 C.ar    9  DC9         0.0566
    177  C6        -5.7690  -27.3320   -1.8350 C.ar    9  DC9         0.0849
    178  P         -6.4970  -32.3910   -3.4800 P.3    10  DA10        0.2141
    179  OP1       -6.5370  -33.6470   -4.2740 O.2    10  DA10       -0.5172
    180  OP2       -7.7600  -31.8370   -2.9420 O.3    10  DA10       -0.4373
    181  O5'       -5.4930  -32.5800   -2.2520 O.3    10  DA10       -0.3114
    182  C5'       -4.4860  -33.5950   -2.2680 C.3    10  DA10        0.1811
    183  C4'       -4.2600  -34.1250   -0.8710 C.3    10  DA10        0.1746
    184  O4'       -3.6770  -33.0670   -0.0570 O.3    10  DA10       -0.3327
    185  C3'       -5.5310  -34.4990   -0.1220 C.3    10  DA10        0.1558
    186  O3'       -6.0650  -35.7820   -0.4170 O.3    10  DA10       -0.3138
    187  C2'       -5.1340  -34.3270    1.3360 C.3    10  DA10        0.0865
    188  C1'       -4.2240  -33.1040    1.2520 C.3    10  DA10        0.2094
    189  N9        -5.0540  -31.7710    1.2850 N.ar   10  DA10       -0.2714
    190  C8        -5.8110  -31.1330    0.3370 C.ar   10  DA10        0.1815
    191  N7        -6.5670  -30.1760    0.8210 N.ar   10  DA10       -0.2193
    192  C5        -6.2880  -30.1870    2.1780 C.ar   10  DA10        0.1518
    193  C6        -6.7660  -29.4100    3.2480 C.ar   10  DA10        0.1919
    194  N6        -7.6630  -28.4310    3.1080 N.pl3  10  DA10       -0.1054
    195  N1        -6.2850  -29.6780    4.4810 N.ar   10  DA10       -0.2040
    196  C2        -5.3850  -30.6580    4.6200 C.ar   10  DA10        0.2016
    197  N3        -4.8600  -31.4550    3.6920 N.ar   10  DA10       -0.2048
    198  C4        -5.3590  -31.1640    2.4790 C.ar   10  DA10        0.1691
    199  P         -7.7190  -36.0590   -0.1880 P.3    11  DC11        0.2141
    200  OP1       -7.9110  -37.3600   -0.8660 O.2    11  DC11       -0.5172
    201  OP2       -8.2020  -34.8250   -0.8500 O.3    11  DC11       -0.4373
    202  O5'       -8.3320  -36.1190    1.2930 O.3    11  DC11       -0.3114
    203  C5'       -8.0490  -37.2440    2.1100 C.3    11  DC11        0.1811
    204  C4'       -8.3570  -36.9790    3.5710 C.3    11  DC11        0.1746
    205  O4'       -7.6060  -35.8290    4.0180 O.3    11  DC11       -0.3327
    206  C3'       -9.7970  -36.6120    3.8820 C.3    11  DC11        0.1558
    207  O3'      -10.5940  -37.7710    4.0230 O.3    11  DC11       -0.3138
    208  C2'       -9.6450  -35.9070    5.2260 C.3    11  DC11        0.0866
    209  C1'       -8.3590  -35.1230    4.9890 C.3    11  DC11        0.2106
    210  N1        -8.7060  -33.7570    4.4610 N.ar   11  DC11       -0.2556
    211  C2        -8.9240  -32.7010    5.3530 C.ar   11  DC11        0.3531
    212  O2        -8.8600  -32.9260    6.5740 O.2    11  DC11       -0.2443
    213  N3        -9.1970  -31.4680    4.8620 N.ar   11  DC11       -0.1739
    214  C4        -9.2560  -31.2730    3.5440 C.ar   11  DC11        0.1759
    215  N4        -9.5280  -30.0420    3.1060 N.pl3  11  DC11       -0.1070
    216  C5        -9.0380  -32.3300    2.6240 C.ar   11  DC11        0.0566
    217  C6        -8.7690  -33.5460    3.1130 C.ar   11  DC11        0.0849
    218  P        -11.8370  -37.6320    3.7170 P.3    12  DC12        0.2141
    219  OP1      -12.4580  -38.9650    3.9300 O.3    12  DC12       -0.4373
    220  OP2      -11.9670  -36.9620    2.3950 O.2    12  DC12       -0.5172
    221  O5'      -12.3770  -36.6810    4.8730 O.3    12  DC12       -0.3114
    222  C5'      -12.4610  -37.1810    6.2000 C.3    12  DC12        0.1812
    223  C4'      -13.1380  -36.1920    7.1170 C.3    12  DC12        0.1775
    224  O4'      -12.2880  -35.0150    7.2700 O.3    12  DC12       -0.3326
    225  C3'      -14.4440  -35.5960    6.6310 C.3    12  DC12        0.1864
    226  O3'      -15.4620  -36.5050    6.1350 O.3    12  DC12       -0.2133
    227  C2'      -14.5510  -34.3030    7.4330 C.3    12  DC12        0.0895
    228  C1'      -13.0930  -33.8420    7.3850 C.3    12  DC12        0.2107
    229  N1       -12.9180  -32.9550    6.6390 N.ar   12  DC12       -0.2556
    230  C2       -13.3740  -31.6690    6.9510 C.ar   12  DC12        0.3531
    231  O2       -13.6820  -31.4130    8.1280 O.2    12  DC12       -0.2443
    232  N3       -13.4670  -30.7450    5.9660 N.ar   12  DC12       -0.1739
    233  C4       -13.1270  -31.0660    4.7170 C.ar   12  DC12        0.1759
    234  N4       -13.2350  -30.1220    3.7780 N.pl3  12  DC12       -0.1070
    235  C5       -12.6630  -32.3630    4.3800 C.ar   12  DC12        0.0566
    236  C6       -12.5720  -33.2730    5.3560 C.ar   12  DC12        0.0849
    237  P        -16.7990  -36.8180    6.9910 P.3    13  DT13        0.3939
    238  OP1      -17.3230  -38.0180    7.6970 O.3    13  DT13       -0.1425
    239  OP2      -16.7900  -36.7930    5.5020 O.3    13  DT13       -0.1496
    240  O5'      -17.6120  -35.5420    7.4890 O.3    13  DT13       -0.2926
    241  C5'      -17.7170  -35.2400    8.8780 C.3    13  DT13        0.1828
    242  C4'      -18.3300  -33.8750    9.0690 C.3    13  DT13        0.1747
    243  O4'      -17.3530  -32.8460    8.7870 O.3    13  DT13       -0.3327
    244  C3'      -19.5190  -33.5560    8.1740 C.3    13  DT13        0.1558
    245  O3'      -20.7300  -34.1060    8.7030 O.3    13  DT13       -0.3138
    246  C2'      -19.5000  -32.0290    8.1160 C.3    13  DT13        0.0866
    247  C1'      -18.0010  -31.7240    8.2200 C.3    13  DT13        0.2106
    248  N1       -17.2850  -31.4310    6.9480 N.ar   13  DT13       -0.2559
    249  C2       -17.4100  -30.1570    6.4260 C.ar   13  DT13        0.3545
    250  O2       -17.9080  -29.2330    7.0430 O.2    13  DT13       -0.2443
    251  N3       -16.9290  -30.0030    5.1480 N.ar   13  DT13       -0.1533
    252  C4       -16.3490  -30.9730    4.3570 C.ar   13  DT13        0.2804
    253  O4       -15.9640  -30.6820    3.2280 O.2    13  DT13       -0.2654
    254  C5       -16.2560  -32.2690    4.9690 C.ar   13  DT13        0.0534
    255  C6       -16.7160  -32.4470    6.2100 C.ar   13  DT13        0.0824
    256  C7       -15.6400  -33.3920    4.1880 C.3    13  DT13        0.0377
    257  P        -22.3520  -34.4190    7.6580 P.3    14  DG14        0.2141
    258  OP1      -23.6540  -35.0940    7.8890 O.3    14  DG14       -0.4373
    259  OP2      -21.5590  -34.7410    6.4420 O.2    14  DG14       -0.5172
    260  O5'      -22.5950  -32.8490    7.7080 O.3    14  DG14       -0.3114
    261  C5'      -22.9480  -32.1300    6.5470 C.3    14  DG14        0.1811
    262  C4'      -22.7230  -30.6530    6.7570 C.3    14  DG14        0.1746
    263  O4'      -21.3230  -30.3160    6.5600 O.3    14  DG14       -0.3327
    264  C3'      -23.4560  -29.8360    5.7190 C.3    14  DG14        0.1558
    265  O3'      -24.7850  -29.6670    6.1810 O.3    14  DG14       -0.3138
    266  C2'      -22.6270  -28.5600    5.6450 C.3    14  DG14        0.0865
    267  C1'      -21.2100  -29.1200    5.7950 C.3    14  DG14        0.2094
    268  N9       -20.5880  -29.3460    4.5310 N.ar   14  DG14       -0.2713
    269  C8       -20.1080  -30.5430    4.0580 C.ar   14  DG14        0.1816
    270  N7       -19.5330  -30.4420    2.8900 N.ar   14  DG14       -0.2173
    271  C5       -19.6350  -29.1010    2.5720 C.ar   14  DG14        0.1748
    272  C6       -19.1950  -28.3870    1.4280 C.ar   14  DG14        0.3023
    273  O6       -18.6030  -28.8240    0.4330 O.2    14  DG14       -0.2633
    274  N1       -19.5050  -27.0320    1.5080 N.ar   14  DG14       -0.1709
    275  C2       -20.1580  -26.4380    2.5620 C.ar   14  DG14        0.2606
    276  N2       -20.3660  -25.1180    2.4590 N.pl3  14  DG14       -0.0859
    277  N3       -20.5730  -27.0880    3.6310 N.ar   14  DG14       -0.1918
    278  C4       -20.2850  -28.4050    3.5740 C.ar   14  DG14        0.1722
    279  P        -25.9370  -30.1460    5.2730 P.3    15  DC15        0.2141
    280  OP1      -27.3500  -30.0210    5.7820 O.3    15  DC15       -0.4373
    281  OP2      -25.5500  -31.3440    4.5130 O.2    15  DC15       -0.5172
    282  O5'      -25.7110  -28.8710    4.3950 O.3    15  DC15       -0.3114
    283  C5'      -26.2110  -27.6210    4.8470 C.3    15  DC15        0.1811
    284  C4'      -25.9460  -26.5720    3.8180 C.3    15  DC15        0.1746
    285  O4'      -24.5040  -26.5350    3.5560 O.3    15  DC15       -0.3327
    286  C3'      -26.5170  -26.9220    2.4580 C.3    15  DC15        0.1558
    287  O3'      -27.8630  -26.5470    2.3490 O.3    15  DC15       -0.3138
    288  C2'      -25.6820  -26.0410    1.5550 C.3    15  DC15        0.0866
    289  C1'      -24.3040  -26.2070    2.1870 C.3    15  DC15        0.2106
    290  N1       -23.6230  -27.2720    1.5140 N.ar   15  DC15       -0.2556
    291  C2       -22.9520  -26.9960    0.3180 C.ar   15  DC15        0.3531
    292  O2       -22.9160  -25.8220   -0.0910 O.2    15  DC15       -0.2443
    293  N3       -22.3630  -28.0110   -0.3580 N.ar   15  DC15       -0.1739
    294  C4       -22.4270  -29.2550    0.1190 C.ar   15  DC15        0.1759
    295  N4       -21.8310  -30.2230   -0.5820 N.pl3  15  DC15       -0.1070
    296  C5       -23.1020  -29.5560    1.3290 C.ar   15  DC15        0.0566
    297  C6       -23.6830  -28.5500    1.9930 C.ar   15  DC15        0.0849
    298  P        -28.9480  -27.4500    1.4640 P.3    16  DT16        0.2141
    299  OP1      -30.0270  -27.7930    2.4140 O.3    16  DT16       -0.4373
    300  OP2      -28.1880  -28.5550    0.8340 O.2    16  DT16       -0.5172
    301  O5'      -29.5070  -26.5660    0.2270 O.3    16  DT16       -0.3114
    302  C5'      -28.8110  -25.4640   -0.3860 C.3    16  DT16        0.1811
    303  C4'      -28.3500  -25.6810   -1.8300 C.3    16  DT16        0.1746
    304  O4'      -26.9090  -25.8510   -1.9880 O.3    16  DT16       -0.3327
    305  C3'      -28.9610  -26.8450   -2.6050 C.3    16  DT16        0.1558
    306  O3'      -30.2820  -26.4940   -2.9250 O.3    16  DT16       -0.3138
    307  C2'      -28.0570  -26.8750   -3.8380 C.3    16  DT16        0.0866
    308  C1'      -26.6930  -26.4700   -3.2580 C.3    16  DT16        0.2106
    309  N1       -25.9160  -27.6690   -3.1400 N.ar   16  DT16       -0.2559
    310  C2       -25.1130  -28.0600   -4.1940 C.ar   16  DT16        0.3545
    311  O2       -25.0090  -27.4190   -5.2240 O.2    16  DT16       -0.2443
    312  N3       -24.4300  -29.2370   -3.9980 N.ar   16  DT16       -0.1533
    313  C4       -24.4710  -30.0430   -2.8800 C.ar   16  DT16        0.2804
    314  O4       -23.7990  -31.0720   -2.8520 O.2    16  DT16       -0.2654
    315  C5       -25.3280  -29.5700   -1.8300 C.ar   16  DT16        0.0534
    316  C6       -26.0030  -28.4290   -1.9940 C.ar   16  DT16        0.0824
    317  C7       -25.4400  -30.3780   -0.5710 C.3    16  DT16        0.0377
    318  P        -31.3440  -27.4940   -3.9940 P.3    17  DC17        0.2141
    319  OP1      -32.6990  -26.9800   -4.3060 O.2    17  DC17       -0.5172
    320  OP2      -31.1790  -28.5430   -2.9530 O.3    17  DC17       -0.4373
    321  O5'      -30.6350  -28.0590   -5.3080 O.3    17  DC17       -0.3114
    322  C5'      -30.6750  -27.3290   -6.5280 C.3    17  DC17        0.1811
    323  C4'      -29.6380  -27.8490   -7.4960 C.3    17  DC17        0.1746
    324  O4'      -28.3600  -27.8950   -6.8240 O.3    17  DC17       -0.3327
    325  C3'      -29.7890  -29.2450   -8.0820 C.3    17  DC17        0.1558
    326  O3'      -30.6260  -29.2790   -9.2320 O.3    17  DC17       -0.3138
    327  C2'      -28.3720  -29.5620   -8.5180 C.3    17  DC17        0.0866
    328  C1'      -27.5480  -28.8770   -7.4320 C.3    17  DC17        0.2106
    329  N1       -27.0840  -29.8230   -6.4860 N.ar   17  DC17       -0.2556
    330  C2       -26.0260  -30.6860   -6.7920 C.ar   17  DC17        0.3531
    331  O2       -25.5130  -30.6260   -7.9220 O.2    17  DC17       -0.2443
    332  N3       -25.5950  -31.5600   -5.8510 N.ar   17  DC17       -0.1739
    333  C4       -26.1770  -31.5890   -4.6520 C.ar   17  DC17        0.1759
    334  N4       -25.7180  -32.4670   -3.7560 N.pl3  17  DC17       -0.1070
    335  C5       -27.2500  -30.7230   -4.3220 C.ar   17  DC17        0.0566
    336  C6       -27.6730  -29.8620   -5.2540 C.ar   17  DC17        0.0849
    337  P        -30.9200  -30.7520  -10.0470 P.3    18  DT18        0.2141
    338  OP1      -32.1900  -30.3870  -10.7250 O.2    18  DT18       -0.5172
    339  OP2      -30.9610  -31.5260   -8.7820 O.3    18  DT18       -0.4373
    340  O5'      -29.9830  -31.5460  -11.0630 O.3    18  DT18       -0.3114
    341  C5'      -30.1320  -32.9460  -11.2540 C.3    18  DT18        0.1811
    342  C4'      -29.3950  -33.3800  -12.4960 C.3    18  DT18        0.1746
    343  O4'      -30.0150  -32.7960  -13.6670 O.3    18  DT18       -0.3327
    344  C3'      -27.9590  -32.9120  -12.5670 C.3    18  DT18        0.1558
    345  O3'      -27.1380  -33.8230  -11.8640 O.3    18  DT18       -0.3138
    346  C2'      -27.6730  -32.9140  -14.0650 C.3    18  DT18        0.0866
    347  C1'      -29.0260  -32.4920  -14.6370 C.3    18  DT18        0.2106
    348  N1       -29.1160  -31.1290  -15.0290 N.ar   18  DT18       -0.2559
    349  C2       -28.4110  -30.7030  -16.1380 C.ar   18  DT18        0.3545
    350  O2       -27.7210  -31.4470  -16.8130 O.2    18  DT18       -0.2443
    351  N3       -28.5400  -29.3670  -16.4320 N.ar   18  DT18       -0.1533
    352  C4       -29.2880  -28.4350  -15.7430 C.ar   18  DT18        0.2804
    353  O4       -29.3070  -27.2690  -16.1290 O.2    18  DT18       -0.2654
    354  C5       -29.9900  -28.9540  -14.6030 C.ar   18  DT18        0.0534
    355  C6       -29.8820  -30.2490  -14.2950 C.ar   18  DT18        0.0824
    356  C7       -30.8310  -28.0180  -13.7870 C.3    18  DT18        0.0377
    357  P        -25.6300  -33.2630  -11.1190 P.3    19  DA19        0.2141
    358  OP1      -24.7650  -34.4270  -11.4350 O.2    19  DA19       -0.5172
    359  OP2      -25.9550  -32.9520   -9.7030 O.3    19  DA19       -0.4373
    360  O5'      -24.9970  -31.9650  -11.8020 O.3    19  DA19       -0.3114
    361  C5'      -24.9580  -31.8650  -13.2230 C.3    19  DA19        0.1811
    362  C4'      -24.3170  -30.5700  -13.6800 C.3    19  DA19        0.1746
    363  O4'      -25.1780  -29.4400  -13.3570 O.3    19  DA19       -0.3327
    364  C3'      -23.0000  -30.3130  -12.9490 C.3    19  DA19        0.1558
    365  O3'      -21.8880  -30.0960  -13.8210 O.3    19  DA19       -0.3138
    366  C2'      -23.3130  -29.3080  -11.8400 C.3    19  DA19        0.0865
    367  C1'      -24.5440  -28.6110  -12.4090 C.3    19  DA19        0.2094
    368  N9       -25.3370  -28.0560  -11.6060 N.ar   19  DA19       -0.2714
    369  C8       -25.8500  -28.8460  -10.6100 C.ar   19  DA19        0.1815
    370  N7       -26.0310  -28.2140   -9.4750 N.ar   19  DA19       -0.2193
    371  C5       -25.6080  -26.9220   -9.7430 C.ar   19  DA19        0.1518
    372  C6       -25.5470  -25.7630   -8.9500 C.ar   19  DA19        0.1919
    373  N6       -25.9290  -25.7210   -7.6710 N.pl3  19  DA19       -0.1054
    374  N1       -25.0730  -24.6360   -9.5220 N.ar   19  DA19       -0.2040
    375  C2       -24.6910  -24.6790  -10.8040 C.ar   19  DA19        0.2016
    376  N3       -24.7020  -25.7050  -11.6510 N.ar   19  DA19       -0.2048
    377  C4       -25.1770  -26.8100  -11.0510 C.ar   19  DA19        0.1691
    378  P        -20.4470  -29.8410  -13.3500 P.3    20  DT20        0.2141
    379  OP1      -19.3280  -30.0430  -14.3000 O.2    20  DT20       -0.5172
    380  OP2      -20.4170  -30.4760  -12.0090 O.3    20  DT20       -0.4373
    381  O5'      -20.6810  -28.2710  -13.1320 O.3    20  DT20       -0.3114
    382  C5'      -19.5680  -27.4110  -12.9160 C.3    20  DT20        0.1811
    383  C4'      -19.9870  -26.0610  -12.3660 C.3    20  DT20        0.1746
    384  O4'      -21.3940  -26.0790  -12.0190 O.3    20  DT20       -0.3327
    385  C3'      -19.2880  -25.6710  -11.0750 C.3    20  DT20        0.1558
    386  O3'      -18.0440  -25.0520  -11.3440 O.3    20  DT20       -0.3138
    387  C2'      -20.2970  -24.7160  -10.4430 C.3    20  DT20        0.0866
    388  C1'      -21.6000  -25.4440  -10.7660 C.3    20  DT20        0.2106
    389  N1       -21.9500  -26.4410   -9.7310 N.ar   20  DT20       -0.2559
    390  C2       -22.3900  -26.0340   -8.4860 C.ar   20  DT20        0.3545
    391  O2       -22.3650  -24.8730   -8.1190 O.2    20  DT20       -0.2443
    392  N3       -22.8640  -27.0410   -7.6790 N.ar   20  DT20       -0.1533
    393  C4       -22.9380  -28.3840   -7.9860 C.ar   20  DT20        0.2804
    394  O4       -23.3890  -29.1700   -7.1570 O.2    20  DT20       -0.2654
    395  C5       -22.4610  -28.7270   -9.2960 C.ar   20  DT20        0.0534
    396  C6       -21.9960  -27.7680  -10.1010 C.ar   20  DT20        0.0824
    397  C7       -22.5000  -30.1640   -9.7240 C.3    20  DT20        0.0377
    398  P        -16.9450  -25.2460  -10.3520 P.3    21  DT21        0.2141
    399  OP1      -15.7410  -24.7290  -11.0450 O.2    21  DT21       -0.5172
    400  OP2      -16.9690  -26.6150   -9.7850 O.3    21  DT21       -0.4373
    401  O5'      -17.2420  -24.2860   -9.1040 O.3    21  DT21       -0.3114
    402  C5'      -17.1660  -22.8830   -9.3310 C.3    21  DT21        0.1811
    403  C4'      -17.5050  -22.0320   -8.1260 C.3    21  DT21        0.1746
    404  O4'      -18.8990  -22.2300   -7.7580 O.3    21  DT21       -0.3327
    405  C3'      -16.6770  -22.2970   -6.8720 C.3    21  DT21        0.1558
    406  O3'      -15.7850  -21.2370   -6.5540 O.3    21  DT21       -0.3138
    407  C2'      -17.6790  -22.4510   -5.7310 C.3    21  DT21        0.0866
    408  C1'      -19.0580  -22.3360   -6.3590 C.3    21  DT21        0.2106
    409  N1       -19.6380  -23.7210   -5.9980 N.ar   21  DT21       -0.2559
    410  C2       -20.4070  -23.7340   -4.8500 C.ar   21  DT21        0.3545
    411  O2       -20.7480  -22.7200   -4.2670 O.2    21  DT21       -0.2443
    412  N3       -20.7630  -24.9840   -4.4040 N.ar   21  DT21       -0.1533
    413  C4       -20.4360  -26.1940   -4.9780 C.ar   21  DT21        0.2804
    414  O4       -20.8310  -27.2360   -4.4610 O.2    21  DT21       -0.2654
    415  C5       -19.6350  -26.0970   -6.1660 C.ar   21  DT21        0.0534
    416  C6       -19.2750  -24.8940   -6.6220 C.ar   21  DT21        0.0824
    417  C7       -19.2260  -27.3600   -6.8650 C.3    21  DT21        0.0377
    418  P        -15.0520  -21.7580   -6.0310 P.3    22  DC22        0.2141
    419  OP1      -13.8450  -20.9700   -6.3680 O.2    22  DC22       -0.5172
    420  OP2      -15.0050  -23.2370   -6.0760 O.3    22  DC22       -0.4373
    421  O5'      -15.5050  -21.4010   -4.5360 O.3    22  DC22       -0.3114
    422  C5'      -15.7470  -20.0580   -4.1470 C.3    22  DC22        0.1811
    423  C4'      -16.7240  -19.9740   -3.0010 C.3    22  DC22        0.1746
    424  O4'      -17.8200  -20.8980   -3.2270 O.3    22  DC22       -0.3327
    425  C3'      -16.2000  -20.3830   -1.6310 C.3    22  DC22        0.1558
    426  O3'      -15.4310  -19.3840   -0.9890 O.3    22  DC22       -0.3138
    427  C2'      -17.4800  -20.7290   -0.8830 C.3    22  DC22        0.0866
    428  C1'      -18.2690  -21.4240   -1.9910 C.3    22  DC22        0.2106
    429  N1       -18.1960  -22.9200   -1.9690 N.ar   22  DC22       -0.2556
    430  C2       -18.7850  -23.5550   -0.8700 C.ar   22  DC22        0.3531
    431  O2       -19.2790  -22.8550    0.0310 O.2    22  DC22       -0.2443
    432  N3       -18.7980  -24.9090   -0.8190 N.ar   22  DC22       -0.1739
    433  C4       -18.2540  -25.6190   -1.8080 C.ar   22  DC22        0.1759
    434  N4       -18.2900  -26.9500   -1.7140 N.pl3  22  DC22       -0.1070
    435  C5       -17.6530  -24.9940   -2.9310 C.ar   22  DC22        0.0566
    436  C6       -17.6420  -23.6580   -2.9770 C.ar   22  DC22        0.0849
    437  P        -14.6020  -19.7130    0.3480 P.3    23  DC23        0.2141
    438  OP1      -13.9540  -18.6000    1.0720 O.3    23  DC23       -0.4373
    439  OP2      -13.8840  -20.9990    0.2210 O.2    23  DC23       -0.5172
    440  O5'      -15.9750  -20.0660    1.0960 O.3    23  DC23       -0.3114
    441  C5'      -16.4960  -19.1450    2.0600 C.3    23  DC23        0.1811
    442  C4'      -17.1500  -19.7450    3.2990 C.3    23  DC23        0.1746
    443  O4'      -17.9810  -20.8900    2.9410 O.3    23  DC23       -0.3327
    444  C3'      -16.2130  -20.2500    4.3950 C.3    23  DC23        0.1558
    445  O3'      -16.0280  -19.3500    5.4770 O.3    23  DC23       -0.3138
    446  C2'      -16.8710  -21.5160    4.9370 C.3    23  DC23        0.0866
    447  C1'      -17.8120  -21.9710    3.8380 C.3    23  DC23        0.2106
    448  N1       -17.0680  -23.0760    3.3530 N.ar   23  DC23       -0.2556
    449  C2       -17.2670  -24.3170    3.9670 C.ar   23  DC23        0.3531
    450  O2       -18.1030  -24.4040    4.8830 O.2    23  DC23       -0.2443
    451  N3       -16.5450  -25.3840    3.5480 N.ar   23  DC23       -0.1739
    452  C4       -15.6580  -25.2430    2.5620 C.ar   23  DC23        0.1759
    453  N4       -14.9700  -26.3230    2.1830 N.pl3  23  DC23       -0.1070
    454  C5       -15.4420  -23.9940    1.9270 C.ar   23  DC23        0.0566
    455  C6       -16.1570  -22.9430    2.3430 C.ar   23  DC23        0.0849
    456  P        -14.5660  -19.4320    5.8880 P.3    24  DT24        0.2141
    457  OP1      -14.1600  -18.1010    6.4200 O.3    24  DT24       -0.4373
    458  OP2      -13.8150  -20.0280    4.7560 O.2    24  DT24       -0.5172
    459  O5'      -14.6420  -20.5100    7.0580 O.3    24  DT24       -0.3114
    460  C5'      -15.4880  -20.2940    8.1790 C.3    24  DT24        0.1811
    461  C4'      -15.4560  -21.4910    9.0850 C.3    24  DT24        0.1746
    462  O4'      -16.0400  -22.6050    8.3740 O.3    24  DT24       -0.3327
    463  C3'      -14.0780  -21.9970    9.5070 C.3    24  DT24        0.1558
    464  O3'      -13.4830  -21.3000   10.6000 O.3    24  DT24       -0.3138
    465  C2'      -14.3540  -23.4580    9.8310 C.3    24  DT24        0.0866
    466  C1'      -15.3980  -23.8040    8.7710 C.3    24  DT24        0.2106
    467  N1       -14.8270  -24.5010    7.5820 N.ar   24  DT24       -0.2559
    468  C2       -14.8000  -25.8830    7.5500 C.ar   24  DT24        0.3545
    469  O2       -15.2520  -26.5770    8.4440 O.2    24  DT24       -0.2443
    470  N3       -14.2220  -26.4270    6.4290 N.ar   24  DT24       -0.1533
    471  C4       -13.6790  -25.7440    5.3610 C.ar   24  DT24        0.2804
    472  O4       -13.1950  -26.3730    4.4230 O.2    24  DT24       -0.2654
    473  C5       -13.7440  -24.3130    5.4690 C.ar   24  DT24        0.0534
    474  C6       -14.3010  -23.7580    6.5480 C.ar   24  DT24        0.0824
    475  C7       -13.1790  -23.4800    4.3570 C.3    24  DT24        0.0377
    476  P        -11.7230  -20.9480   10.5940 P.3    25  DC25        0.2141
    477  OP1      -11.3850  -19.7070   11.3290 O.3    25  DC25       -0.4373
    478  OP2      -11.5530  -21.0250    9.1270 O.2    25  DC25       -0.5172
    479  O5'      -10.8720  -22.1790   11.1630 O.3    25  DC25       -0.3114
    480  C5'      -11.3160  -22.7740   12.3740 C.3    25  DC25        0.1811
    481  C4'      -10.9140  -24.2220   12.4850 C.3    25  DC25        0.1746
    482  O4'      -11.7590  -25.0620   11.6560 O.3    25  DC25       -0.3327
    483  C3'       -9.4970  -24.5420   12.0440 C.3    25  DC25        0.1558
    484  O3'       -8.5600  -24.2640   13.0690 O.3    25  DC25       -0.3138
    485  C2'       -9.5750  -26.0230   11.6870 C.3    25  DC25        0.0866
    486  C1'      -11.0280  -26.1920   11.2260 C.3    25  DC25        0.2106
    487  N1       -11.3650  -26.2950    9.8230 N.ar   25  DC25       -0.2556
    488  C2       -11.2410  -27.5710    9.2610 C.ar   25  DC25        0.3531
    489  O2       -11.1490  -28.5510   10.0190 O.2    25  DC25       -0.2443
    490  N3       -11.2260  -27.6980    7.9130 N.ar   25  DC25       -0.1739
    491  C4       -11.3270  -26.6170    7.1390 C.ar   25  DC25        0.1759
    492  N4       -11.3070  -26.7920    5.8150 N.pl3  25  DC25       -0.1070
    493  C5       -11.4530  -25.3160    7.6890 C.ar   25  DC25        0.0566
    494  C6       -11.4680  -25.1940    9.0210 C.ar   25  DC25        0.0849
    495  P         -6.9780  -23.5030   12.8710 P.3    26  DT26        0.2141
    496  OP1       -6.2710  -22.9620   14.0550 O.3    26  DT26       -0.4373
    497  OP2       -6.8720  -22.7930   11.5760 O.2    26  DT26       -0.5172
    498  O5'       -6.4690  -24.9940   12.5600 O.3    26  DT26       -0.3114
    499  C5'       -6.2810  -25.9470   13.5990 C.3    26  DT26        0.1811
    500  C4'       -5.8560  -27.3010   13.0810 C.3    26  DT26        0.1746
    501  O4'       -6.8240  -27.7890   12.1140 O.3    26  DT26       -0.3327
    502  C3'       -4.5360  -27.3670   12.3260 C.3    26  DT26        0.1558
    503  O3'       -3.3900  -27.3810   13.1640 O.3    26  DT26       -0.3138
    504  C2'       -4.6990  -28.6420   11.5070 C.3    26  DT26        0.0866
    505  C1'       -6.1730  -28.5570   11.1160 C.3    26  DT26        0.2106
    506  N1        -6.4390  -27.8710    9.7330 N.ar   26  DT26       -0.2559
    507  C2        -6.2450  -28.6540    8.6110 C.ar   26  DT26        0.3545
    508  O2        -5.8730  -29.8130    8.6660 O.2    26  DT26       -0.2443
    509  N3        -6.5030  -28.0290    7.4150 N.ar   26  DT26       -0.1533
    510  C4        -6.9250  -26.7290    7.2330 C.ar   26  DT26        0.2804
    511  O4        -7.1160  -26.3090    6.0940 O.2    26  DT26       -0.2654
    512  C5        -7.1020  -25.9810    8.4450 C.ar   26  DT26        0.0534
    513  C6        -6.8590  -26.5640    9.6220 C.ar   26  DT26        0.0824
    514  C7        -7.5590  -24.5550    8.3520 C.3    26  DT26        0.0377
    515  P         -1.8850  -26.8170   12.6340 P.3    27  DG27        0.2141
    516  OP1       -0.8950  -26.4600   13.6750 O.3    27  DG27       -0.4373
    517  OP2       -2.8060  -25.7890   12.0910 O.2    27  DG27       -0.5172
    518  O5'       -1.1410  -27.4040   11.3420 O.3    27  DG27       -0.3114
    519  C5'       -0.3410  -28.5770   11.4110 C.3    27  DG27        0.1811
    520  C4'        0.1320  -29.0070   10.0440 C.3    27  DG27        0.1746
    521  O4'       -0.9900  -29.4950    9.2670 O.3    27  DG27       -0.3327
    522  C3'        0.7490  -27.9140    9.1840 C.3    27  DG27        0.1558
    523  O3'        2.1100  -27.6820    9.5020 O.3    27  DG27       -0.3138
    524  C2'        0.4900  -28.3940    7.7570 C.3    27  DG27        0.0865
    525  C1'       -0.8350  -29.1400    7.9110 C.3    27  DG27        0.2094
    526  N9        -1.9350  -28.3420    7.4300 N.ar   27  DG27       -0.2713
    527  C8        -2.6090  -27.3170    8.0490 C.ar   27  DG27        0.1816
    528  N7        -3.3250  -26.6000    7.2260 N.ar   27  DG27       -0.2173
    529  C5        -3.1150  -27.1850    5.9910 C.ar   27  DG27        0.1748
    530  C6        -3.6250  -26.8470    4.7110 C.ar   27  DG27        0.3023
    531  O6        -4.3960  -25.9260    4.4120 O.2    27  DG27       -0.2633
    532  N1        -3.1550  -27.7050    3.7200 N.ar   27  DG27       -0.1709
    533  C2        -2.2990  -28.7580    3.9350 C.ar   27  DG27        0.2606
    534  N2        -1.9580  -29.4730    2.8550 N.pl3  27  DG27       -0.0859
    535  N3        -1.8160  -29.0830    5.1180 N.ar   27  DG27       -0.1918
    536  C4        -2.2580  -28.2640    6.0960 C.ar   27  DG27        0.1722
    537  P          3.2230  -26.8230    8.3010 P.3    28  DT28        0.2141
    538  OP1        4.6190  -26.8160    8.8260 O.3    28  DT28       -0.4373
    539  OP2        2.3740  -25.6180    8.5030 O.2    28  DT28       -0.5172
    540  O5'        3.2860  -27.0680    6.7250 O.3    28  DT28       -0.3114
    541  C5'        4.0640  -28.1730    6.2430 C.3    28  DT28        0.1812
    542  C4'        3.9230  -28.2480    4.7470 C.3    28  DT28        0.1775
    543  O4'        2.5310  -28.4850    4.4160 O.3    28  DT28       -0.3326
    544  C3'        4.2530  -26.9920    3.9550 C.3    28  DT28        0.1859
    545  O3'        5.6450  -26.8910    3.7790 O.3    28  DT28       -0.2202
    546  C2'        3.5170  -27.2450    2.6550 C.3    28  DT28        0.0895
    547  C1'        2.2480  -27.9210    3.1370 C.3    28  DT28        0.2107
    548  N1         1.0730  -26.9230    3.3550 N.ar   28  DT28       -0.2559
    549  C2         0.3270  -26.5910    2.2400 C.ar   28  DT28        0.3545
    550  O2         0.5150  -27.0890    1.1440 O.2    28  DT28       -0.2443
    551  N3        -0.6520  -25.6510    2.4530 N.ar   28  DT28       -0.1533
    552  C4        -0.9530  -25.0220    3.6440 C.ar   28  DT28        0.2804
    553  O4        -1.8630  -24.1980    3.6790 O.2    28  DT28       -0.2654
    554  C5        -0.1340  -25.4190    4.7550 C.ar   28  DT28        0.0534
    555  C6         0.8250  -26.3320    4.5750 C.ar   28  DT28        0.0824
    556  C7        -0.3830  -24.7910    6.0940 C.3    28  DT28        0.0377
    557  P          6.6310  -25.8830    4.2070 P.3    29  DT29        0.4149
    558  OP1        8.1090  -25.7860    4.0640 O.3    29  DT29       -0.1481
    559  OP2        5.8660  -24.7340    4.7550 O.2    29  DT29       -0.2668
    560  O5'        5.9920  -26.1990    2.7840 O.3    29  DT29       -0.2177
    561  C5'        6.4710  -27.2690    1.9910 C.3    29  DT29        0.2140
    562  C4'        5.7000  -27.3470    0.6930 C.3    29  DT29        0.1776
    563  O4'        4.2900  -27.5680    0.9880 O.3    29  DT29       -0.3326
    564  C3'        5.6750  -26.1110   -0.2100 C.3    29  DT29        0.1559
    565  O3'        6.8390  -25.9000   -1.0210 O.3    29  DT29       -0.3138
    566  C2'        4.4370  -26.3610   -1.0670 C.3    29  DT29        0.0866
    567  C1'        3.4940  -27.0340   -0.0690 C.3    29  DT29        0.2106
    568  N1         2.5670  -26.0660    0.4870 N.ar   29  DT29       -0.2559
    569  C2         1.3320  -25.8880   -0.1070 C.ar   29  DT29        0.3545
    570  O2         0.9450  -26.5580   -1.0490 O.2    29  DT29       -0.2443
    571  N3         0.5620  -24.8910    0.4410 N.ar   29  DT29       -0.1533
    572  C4         0.8950  -24.0730    1.5000 C.ar   29  DT29        0.2804
    573  O4         0.0960  -23.2210    1.8810 O.2    29  DT29       -0.2654
    574  C5         2.1930  -24.3190    2.0620 C.ar   29  DT29        0.0534
    575  C6         2.9630  -25.2820    1.5490 C.ar   29  DT29        0.0824
    576  C7         2.6480  -23.4800    3.2190 C.3    29  DT29        0.0377
    577  P          7.1280  -24.4800   -1.6060 P.3    30  DG30        0.2141
    578  OP1        8.1860  -24.0970   -2.5790 O.2    30  DG30       -0.5172
    579  OP2        6.7290  -23.5290   -0.5250 O.3    30  DG30       -0.4373
    580  O5'        5.8530  -24.8610   -2.4810 O.3    30  DG30       -0.3114
    581  C5'        6.0000  -25.3940   -3.7960 C.3    30  DG30        0.1811
    582  C4'        4.8640  -24.9280   -4.6690 C.3    30  DG30        0.1746
    583  O4'        3.6210  -25.3420   -4.0520 O.3    30  DG30       -0.3327
    584  C3'        4.7360  -23.4200   -4.7980 C.3    30  DG30        0.1558
    585  O3'        5.5340  -22.9550   -5.8800 O.3    30  DG30       -0.3138
    586  C2'        3.2540  -23.2470   -5.0890 C.3    30  DG30        0.0865
    587  C1'        2.6520  -24.3190   -4.1860 C.3    30  DG30        0.2094
    588  N9         2.2490  -23.8100   -2.8050 N.ar   30  DG30       -0.2713
    589  C8         2.9300  -23.8260   -1.6120 C.ar   30  DG30        0.1816
    590  N7         2.3260  -23.1630   -0.6650 N.ar   30  DG30       -0.2173
    591  C5         1.1770  -22.6800   -1.2630 C.ar   30  DG30        0.1748
    592  C6         0.1260  -21.8860   -0.7370 C.ar   30  DG30        0.3023
    593  O6         0.0030  -21.4410    0.4110 O.2    30  DG30       -0.2633
    594  N1        -0.8520  -21.6180   -1.6900 N.ar   30  DG30       -0.1709
    595  C2        -0.8210  -22.0600   -2.9910 C.ar   30  DG30        0.2606
    596  N2        -1.8560  -21.7010   -3.7630 N.pl3  30  DG30       -0.0859
    597  N3         0.1500  -22.7970   -3.4950 N.ar   30  DG30       -0.1918
    598  C4         1.1110  -23.0690   -2.5870 C.ar   30  DG30        0.1722
    599  P          6.0960  -21.3020   -5.9030 P.3    31  DA31        0.2141
    600  OP1        6.9980  -21.1940   -7.0830 O.2    31  DA31       -0.5172
    601  OP2        6.6070  -20.9370   -4.5550 O.3    31  DA31       -0.4373
    602  O5'        4.7690  -20.4570   -6.1750 O.3    31  DA31       -0.3114
    603  C5'        3.9920  -20.6770   -7.3620 C.3    31  DA31        0.1811
    604  C4'        2.6340  -20.0170   -7.2560 C.3    31  DA31        0.1746
    605  O4'        1.8870  -20.5880   -6.1450 O.3    31  DA31       -0.3327
    606  C3'        2.5600  -18.5210   -6.9680 C.3    31  DA31        0.1558
    607  O3'        2.8590  -17.7090   -8.1050 O.3    31  DA31       -0.3138
    608  C2'        1.0960  -18.3840   -6.5610 C.3    31  DA31        0.0865
    609  C1'        0.9000  -19.6570   -5.7220 C.3    31  DA31        0.2094
    610  N9         1.1190  -19.3810   -4.3060 N.ar   31  DA31       -0.2714
    611  C8         2.1590  -19.8280   -3.5340 C.ar   31  DA31        0.1815
    612  N7         2.0730  -19.4720   -2.2740 N.ar   31  DA31       -0.2193
    613  C5         0.8970  -18.7420   -2.2150 C.ar   31  DA31        0.1518
    614  C6         0.2410  -18.0880   -1.1570 C.ar   31  DA31        0.1919
    615  N6         0.7000  -18.0680    0.0970 N.pl3  31  DA31       -0.1054
    616  N1        -0.9150  -17.4490   -1.4350 N.ar   31  DA31       -0.2040
    617  C2        -1.3740  -17.4710   -2.6920 C.ar   31  DA31        0.2016
    618  N3        -0.8490  -18.0500   -3.7690 N.ar   31  DA31       -0.2048
    619  C4         0.2990  -18.6760   -3.4590 C.ar   31  DA31        0.1691
    620  P          3.1740  -16.0900   -7.9160 P.3    32  DA32        0.2141
    621  OP1        3.6950  -15.7230   -9.2520 O.2    32  DA32       -0.5172
    622  OP2        4.1120  -16.1630   -6.7620 O.3    32  DA32       -0.4373
    623  O5'        1.9830  -15.1040   -7.5530 O.3    32  DA32       -0.3114
    624  C5'        0.8770  -14.9410   -8.4470 C.3    32  DA32        0.1811
    625  C4'       -0.3510  -14.5140   -7.6890 C.3    32  DA32        0.1746
    626  O4'       -0.6440  -15.5270   -6.7000 O.3    32  DA32       -0.3327
    627  C3'       -0.2540  -13.2270   -6.8840 C.3    32  DA32        0.1558
    628  O3'       -0.5410  -12.0860   -7.6680 O.3    32  DA32       -0.3138
    629  C2'       -1.3100  -13.4370   -5.8080 C.3    32  DA32        0.0865
    630  C1'       -1.1470  -14.9230   -5.5180 C.3    32  DA32        0.2094
    631  N9        -0.2120  -15.1630   -4.3820 N.ar   32  DA32       -0.2714
    632  C8         1.1310  -15.4160   -4.4830 C.ar   32  DA32        0.1815
    633  N7         1.7120  -15.6600   -3.3320 N.ar   32  DA32       -0.2193
    634  C5         0.6800  -15.5600   -2.4120 C.ar   32  DA32        0.1518
    635  C6         0.6400  -15.7110   -1.0150 C.ar   32  DA32        0.1919
    636  N6         1.7090  -16.0080   -0.2730 N.pl3  32  DA32       -0.1054
    637  N1        -0.5510  -15.5440   -0.4010 N.ar   32  DA32       -0.2040
    638  C2        -1.6220  -15.2480   -1.1450 C.ar   32  DA32        0.2016
    639  N3        -1.7100  -15.0820   -2.4630 N.ar   32  DA32       -0.2048
    640  C4        -0.5110  -15.2530   -3.0440 C.ar   32  DA32        0.1691
    641  P          0.1430  -10.6480   -7.3050 P.3    33  DG33        0.2141
    642  OP1        0.2540   -9.6160   -8.3710 O.2    33  DG33       -0.5172
    643  OP2        1.3070  -10.9450   -6.4360 O.3    33  DG33       -0.4373
    644  O5'       -1.0620  -10.3100   -6.3290 O.3    33  DG33       -0.3114
    645  C5'       -0.9260   -9.3300   -5.3190 C.3    33  DG33        0.1811
    646  C4'       -2.0300   -9.4910   -4.3210 C.3    33  DG33        0.1746
    647  O4'       -1.9250  -10.8070   -3.7370 O.3    33  DG33       -0.3327
    648  C3'       -2.0340   -8.5180   -3.1550 C.3    33  DG33        0.1558
    649  O3'       -2.7510   -7.3180   -3.5030 O.3    33  DG33       -0.3138
    650  C2'       -2.7690   -9.3240   -2.0830 C.3    33  DG33        0.0865
    651  C1'       -2.3470  -10.7610   -2.3940 C.3    33  DG33        0.2094
    652  N9        -0.9900  -11.2650   -1.6830 N.ar   33  DG33       -0.2713
    653  C8         0.1080  -11.9230   -2.1830 C.ar   33  DG33        0.1816
    654  N7         1.0590  -12.0810   -1.3020 N.ar   33  DG33       -0.2173
    655  C5         0.5620  -11.4960   -0.1530 C.ar   33  DG33        0.1748
    656  C6         1.1410  -11.3540    1.1350 C.ar   33  DG33        0.3023
    657  O6         2.2520  -11.7380    1.5220 O.2    33  DG33       -0.2633
    658  N1         0.2920  -10.6910    2.0170 N.ar   33  DG33       -0.1709
    659  C2        -0.9600  -10.2220    1.6980 C.ar   33  DG33        0.2606
    660  N2        -1.6300   -9.6090    2.6830 N.pl3  33  DG33       -0.0859
    661  N3        -1.5100  -10.3450    0.5060 N.ar   33  DG33       -0.1918
    662  C4        -0.7030  -10.9850   -0.3670 C.ar   33  DG33        0.1722
    663  P         -1.9630   -5.9360   -3.9660 P.3    34  DA34        0.2141
    664  OP1       -2.6170   -5.0400   -4.9450 O.2    34  DA34       -0.5172
    665  OP2       -0.6690   -6.5660   -4.3060 O.3    34  DA34       -0.4373
    666  O5'       -1.6790   -5.1660   -2.5940 O.3    34  DA34       -0.3114
    667  C5'       -2.7560   -4.9210   -1.7050 C.3    34  DA34        0.1811
    668  C4'       -2.2930   -4.7330   -0.2810 C.3    34  DA34        0.1746
    669  O4'       -1.9690   -6.0170    0.3080 O.3    34  DA34       -0.3327
    670  C3'       -1.0490   -3.8760   -0.0830 C.3    34  DA34        0.1558
    671  O3'       -1.3570   -2.4930   -0.0290 O.3    34  DA34       -0.3138
    672  C2'       -0.4620   -4.4010    1.2200 C.3    34  DA34        0.0865
    673  C1'       -0.9100   -5.8670    1.2290 C.3    34  DA34        0.2094
    674  N9         0.1090   -6.7810    0.8360 N.ar   34  DA34       -0.2714
    675  C8         0.2660   -7.4590   -0.3450 C.ar   34  DA34        0.1815
    676  N7         1.3830   -8.1430   -0.4180 N.ar   34  DA34       -0.2193
    677  C5         2.0020   -7.8980    0.7970 C.ar   34  DA34        0.1518
    678  C6         3.2230   -8.3350    1.3420 C.ar   34  DA34        0.1919
    679  N6         4.0690   -9.1460    0.7030 N.pl3  34  DA34       -0.1054
    680  N1         3.5460   -7.9040    2.5800 N.ar   34  DA34       -0.2040
    681  C2         2.6960   -7.0920    3.2200 C.ar   34  DA34        0.2016
    682  N3         1.5220   -6.6140    2.8130 N.ar   34  DA34       -0.2048
    683  C4         1.2310   -7.0600    1.5790 C.ar   34  DA34        0.1691
    684  P         -0.2270   -1.2870   -0.5820 P.3    35  DA35        0.2141
    685  OP1       -0.5310    0.1350   -0.3120 O.3    35  DA35       -0.4373
    686  OP2       -0.1690   -1.8100   -1.9670 O.2    35  DA35       -0.5172
    687  O5'        1.1860   -1.6790    0.0540 O.3    35  DA35       -0.3114
    688  C5'        1.3130   -1.5220    1.4570 C.3    35  DA35        0.1811
    689  C4'        2.5950   -2.1100    1.9850 C.3    35  DA35        0.1746
    690  O4'        2.5720   -3.5520    1.8270 O.3    35  DA35       -0.3327
    691  C3'        3.8730   -1.6880    1.2750 C.3    35  DA35        0.1558
    692  O3'        4.3370   -0.3950    1.6270 O.3    35  DA35       -0.3138
    693  C2'        4.8170   -2.8140    1.6610 C.3    35  DA35        0.0865
    694  C1'        3.8720   -4.0060    1.5200 C.3    35  DA35        0.2094
    695  N9         3.8190   -4.4990    0.0450 N.ar   35  DA35       -0.2714
    696  C8         2.7970   -4.3840   -0.8610 C.ar   35  DA35        0.1815
    697  N7         2.9970   -5.0530   -1.9710 N.ar   35  DA35       -0.2193
    698  C5         4.2360   -5.6460   -1.7820 C.ar   35  DA35        0.1518
    699  C6         5.0150   -6.4880   -2.5950 C.ar   35  DA35        0.1919
    700  N6         4.6430   -6.8940   -3.8120 N.pl3  35  DA35       -0.1054
    701  N1         6.2040   -6.9030   -2.1090 N.ar   35  DA35       -0.2040
    702  C2         6.5760   -6.4970   -0.8890 C.ar   35  DA35        0.2016
    703  N3         5.9310   -5.7090   -0.0320 N.ar   35  DA35       -0.2048
    704  C4         4.7540   -5.3130   -0.5460 C.ar   35  DA35        0.1691
    705  P          4.6090    0.6140    0.4440 P.3    36  DC36        0.2141
    706  OP1        5.0500    1.9630    0.8750 O.3    36  DC36       -0.4373
    707  OP2        3.7110    0.4350   -0.7210 O.2    36  DC36       -0.5172
    708  O5'        5.8940   -0.2690    0.0930 O.3    36  DC36       -0.3114
    709  C5'        6.9260   -0.4230    1.0540 C.3    36  DC36        0.1811
    710  C4'        8.2200   -0.7930    0.3850 C.3    36  DC36        0.1746
    711  O4'        8.1520   -2.1670   -0.0650 O.3    36  DC36       -0.3327
    712  C3'        8.5140   -0.0090   -0.8770 C.3    36  DC36        0.1558
    713  O3'        9.0980    1.2510   -0.6240 O.3    36  DC36       -0.3138
    714  C2'        9.4070   -0.9470   -1.6700 C.3    36  DC36        0.0866
    715  C1'        8.7700   -2.2920   -1.3300 C.3    36  DC36        0.2106
    716  N1         7.7370   -2.7570   -2.3080 N.ar   36  DC36       -0.2556
    717  C2         8.2140   -3.3900   -3.4610 C.ar   36  DC36        0.3531
    718  O2         9.4240   -3.6670   -3.5340 O.2    36  DC36       -0.2443
    719  N3         7.3480   -3.6800   -4.4610 N.ar   36  DC36       -0.1739
    720  C4         6.0580   -3.3630   -4.3390 C.ar   36  DC36        0.1759
    721  N4         5.2420   -3.6680   -5.3510 N.pl3  36  DC36       -0.1070
    722  C5         5.5550   -2.7220   -3.1790 C.ar   36  DC36        0.0566
    723  C6         6.4130   -2.4370   -2.1940 C.ar   36  DC36        0.0849
    724  P          8.9500    2.4210   -1.8590 P.3    37  DC37        0.2141
    725  OP1        9.4020    3.6340   -1.1320 O.3    37  DC37       -0.4373
    726  OP2        7.5180    2.2770   -2.2260 O.2    37  DC37       -0.5172
    727  O5'        9.8260    2.2620   -3.1850 O.3    37  DC37       -0.3114
    728  C5'       11.2510    2.3140   -3.1270 C.3    37  DC37        0.1811
    729  C4'       11.8640    1.7510   -4.3940 C.3    37  DC37        0.1746
    730  O4'       11.3400    0.4170   -4.6300 O.3    37  DC37       -0.3327
    731  C3'       11.5740    2.4710   -5.7040 C.3    37  DC37        0.1558
    732  O3'       12.4350    3.5880   -5.8980 O.3    37  DC37       -0.3138
    733  C2'       11.8890    1.3890   -6.7310 C.3    37  DC37        0.0866
    734  C1'       11.3770    0.1360   -6.0200 C.3    37  DC37        0.2106
    735  N1        10.0810   -0.2400   -6.4430 N.ar   37  DC37       -0.2556
    736  C2         9.9060   -0.8640   -7.6830 C.ar   37  DC37        0.3531
    737  O2        10.9070   -1.0930   -8.3840 O.2    37  DC37       -0.2443
    738  N3         8.6560   -1.1990   -8.0820 N.ar   37  DC37       -0.1739
    739  C4         7.6110   -0.9320   -7.2970 C.ar   37  DC37        0.1759
    740  N4         6.3980   -1.2800   -7.7330 N.pl3  37  DC37       -0.1070
    741  C5         7.7670   -0.3000   -6.0370 C.ar   37  DC37        0.0566
    742  C6         9.0040    0.0280   -5.6470 C.ar   37  DC37        0.0849
    743  P         12.1430    4.5960   -7.1240 P.3    38  DA38        0.2141
    744  OP1       13.5130    4.8950   -6.6550 O.3    38  DA38       -0.4373
    745  OP2       11.1530    5.6890   -7.2660 O.2    38  DA38       -0.5172
    746  O5'       12.1800    3.9180   -8.5750 O.3    38  DA38       -0.3114
    747  C5'       13.2630    3.0960   -8.9860 C.3    38  DA38        0.1811
    748  C4'       13.0470    2.6450  -10.4040 C.3    38  DA38        0.1746
    749  O4'       12.1560    1.5020  -10.4170 O.3    38  DA38       -0.3327
    750  C3'       12.3670    3.6790  -11.2820 C.3    38  DA38        0.1558
    751  O3'       13.2910    4.5960  -11.8430 O.3    38  DA38       -0.3138
    752  C2'       11.6140    2.8310  -12.3020 C.3    38  DA38        0.0865
    753  C1'       11.2220    1.6090  -11.4710 C.3    38  DA38        0.2094
    754  N9         9.8300    1.7410  -10.8920 N.ar   38  DA38       -0.2714
    755  C8         9.3940    2.1190   -9.6480 C.ar   38  DA38        0.1815
    756  N7         8.0880    2.1310   -9.5260 N.ar   38  DA38       -0.2193
    757  C5         7.6350    1.7350  -10.7750 C.ar   38  DA38        0.1518
    758  C6         6.3420    1.5470  -11.2960 C.ar   38  DA38        0.1919
    759  N6         5.2250    1.7410  -10.5920 N.pl3  38  DA38       -0.1054
    760  N1         6.2380    1.1470  -12.5820 N.ar   38  DA38       -0.2040
    761  C2         7.3580    0.9520  -13.2870 C.ar   38  DA38        0.2016
    762  N3         8.6250    1.0940  -12.9080 N.ar   38  DA38       -0.2048
    763  C4         8.6960    1.4930  -11.6260 C.ar   38  DA38        0.1691
    764  P         12.8120    6.2210  -12.2400 P.3    39  DC39        0.2141
    765  OP1       13.4000    7.1520  -13.2300 O.2    39  DC39       -0.5172
    766  OP2       12.0450    6.7370  -11.0850 O.3    39  DC39       -0.4373
    767  O5'       11.7830    5.2600  -12.9990 O.3    39  DC39       -0.3114
    768  C5'       12.0120    5.0270  -14.3810 C.3    39  DC39        0.1811
    769  C4'       10.8050    5.3440  -15.2240 C.3    39  DC39        0.1746
    770  O4'        9.8370    4.2850  -15.0080 O.3    39  DC39       -0.3327
    771  C3'       10.1120    6.6670  -14.9020 C.3    39  DC39        0.1558
    772  O3'       10.0900    7.5810  -15.9920 O.3    39  DC39       -0.3138
    773  C2'        8.6730    6.3090  -14.5480 C.3    39  DC39        0.0866
    774  C1'        8.5630    4.8020  -14.6910 C.3    39  DC39        0.2106
    775  N1         8.1440    4.3200  -13.4120 N.ar   39  DC39       -0.2556
    776  C2         6.7500    4.2510  -13.3000 C.ar   39  DC39        0.3531
    777  O2         6.0710    4.1630  -14.3370 O.2    39  DC39       -0.2443
    778  N3         6.1850    4.2840  -12.0700 N.ar   39  DC39       -0.1739
    779  C4         6.9530    4.3800  -10.9840 C.ar   39  DC39        0.1759
    780  N4         6.3510    4.4090   -9.7930 N.pl3  39  DC39       -0.1070
    781  C5         8.3670    4.4510  -11.0760 C.ar   39  DC39        0.0566
    782  C6         8.9220    4.4190  -12.2930 C.ar   39  DC39        0.0849
    783  P         10.0810    9.3160  -15.5630 P.3    40  DT40        0.2141
    784  OP1       10.6690   10.4470  -16.3250 O.2    40  DT40       -0.5172
    785  OP2       10.6680    8.9720  -14.2410 O.3    40  DT40       -0.4373
    786  O5'        8.4870    9.5360  -15.4090 O.3    40  DT40       -0.3114
    787  C5'        7.5610    9.1070  -16.3860 C.3    40  DT40        0.1812
    788  C4'        6.1370    9.1850  -15.8580 C.3    40  DT40        0.1775
    789  O4'        5.9040    8.0290  -15.0260 O.3    40  DT40       -0.3326
    790  C3'        5.7730   10.3080  -14.8920 C.3    40  DT40        0.1859
    791  O3'        5.6020   11.5700  -15.5220 O.3    40  DT40       -0.2202
    792  C2'        4.4780    9.7680  -14.2890 C.3    40  DT40        0.0895
    793  C1'        4.7910    8.2810  -14.1680 C.3    40  DT40        0.2107
    794  N1         5.0990    7.8120  -12.8240 N.ar   40  DT40       -0.2559
    795  C2         4.0550    7.5290  -11.9640 C.ar   40  DT40        0.3545
    796  O2         2.8840    7.5940  -12.2960 O.2    40  DT40       -0.2443
    797  N3         4.4310    7.1640  -10.6940 N.ar   40  DT40       -0.1533
    798  C4         5.7170    7.0580  -10.2080 C.ar   40  DT40        0.2804
    799  O4         5.8970    6.7170   -9.0410 O.2    40  DT40       -0.2654
    800  C5         6.7450    7.3690  -11.1610 C.ar   40  DT40        0.0534
    801  C6         6.4080    7.7260  -12.4030 C.ar   40  DT40        0.0824
    802  C7         8.1790    7.2830  -10.7280 C.3    40  DT40        0.0377
    803  P          5.7580   13.0030  -14.6820 P.3    41  DT41        0.4149
    804  OP1        5.7030   14.0470  -15.7310 O.3    41  DT41       -0.1481
    805  OP2        5.6440   13.4180  -13.2660 O.2    41  DT41       -0.2668
    806  O5'        4.6230   11.9060  -14.9830 O.3    41  DT41       -0.2177
    807  C5'        3.4040   12.2710  -15.6540 C.3    41  DT41        0.2140
    808  C4'        2.1900   12.2510  -14.7290 C.3    41  DT41        0.1776
    809  O4'        2.1410   10.9930  -13.9930 O.3    41  DT41       -0.3326
    810  C3'        2.1360   13.3320  -13.6490 C.3    41  DT41        0.1559
    811  O3'        1.6440   14.6120  -14.0770 O.3    41  DT41       -0.3138
    812  C2'        1.1910   12.6820  -12.6460 C.3    41  DT41        0.0866
    813  C1'        1.6520   11.2230  -12.6780 C.3    41  DT41        0.2106
    814  N1         2.6200   10.6380  -11.7410 N.ar   41  DT41       -0.2559
    815  C2         2.0510   10.3670  -10.5120 C.ar   41  DT41        0.3545
    816  O2         0.8490   10.3830  -10.3180 O.2    41  DT41       -0.2443
    817  N3         2.9450   10.0740   -9.5100 N.ar   41  DT41       -0.1533
    818  C4         4.3200   10.0270   -9.6130 C.ar   41  DT41        0.2804
    819  O4         4.9910    9.7480   -8.6220 O.2    41  DT41       -0.2654
    820  C5         4.8340   10.3210  -10.9210 C.ar   41  DT41        0.0534
    821  C6         3.9870   10.6090  -11.9130 C.ar   41  DT41        0.0824
    822  C7         6.3180   10.2960  -11.1350 C.3    41  DT41        0.0377
    823  P          2.0670   15.8490  -13.2720 P.3    42  DC42        0.2141
    824  OP1        1.7930   17.0510  -14.0960 O.2    42  DC42       -0.5172
    825  OP2        3.4550   15.5820  -12.8230 O.3    42  DC42       -0.4373
    826  O5'        1.1570   15.8630  -11.9570 O.3    42  DC42       -0.3114
    827  C5'       -0.2680   16.0700  -12.0240 C.3    42  DC42        0.1811
    828  C4'       -0.9250   15.7000  -10.7060 C.3    42  DC42        0.1746
    829  O4'       -0.6420   14.3050  -10.4050 O.3    42  DC42       -0.3327
    830  C3'       -0.4680   16.4420   -9.4550 C.3    42  DC42        0.1558
    831  O3'       -1.1150   17.7050   -9.3030 O.3    42  DC42       -0.3138
    832  C2'       -0.8750   15.4780   -8.3480 C.3    42  DC42        0.0866
    833  C1'       -0.5520   14.1300   -8.9960 C.3    42  DC42        0.2106
    834  N1         0.8430   13.6490   -8.6230 N.ar   42  DC42       -0.2556
    835  C2         0.9820   13.2470   -7.2890 C.ar   42  DC42        0.3531
    836  O2        -0.0380   13.1370   -6.5890 O.2    42  DC42       -0.2443
    837  N3         2.2200   12.9920   -6.8030 N.ar   42  DC42       -0.1739
    838  C4         3.2880   13.1250   -7.5910 C.ar   42  DC42        0.1759
    839  N4         4.4880   12.8630   -7.0680 N.pl3  42  DC42       -0.1070
    840  C5         3.1680   13.5310   -8.9450 C.ar   42  DC42        0.0566
    841  C6         1.9440   13.7820   -9.4220 C.ar   42  DC42        0.0849
    842  P         -0.4930   18.8450   -8.3540 P.3    43  DC43        0.2141
    843  OP1       -1.3190   20.0140   -8.7340 O.2    43  DC43       -0.5172
    844  OP2        0.9710   18.8740   -8.5700 O.3    43  DC43       -0.4373
    845  O5'       -0.7560   18.5280   -6.8200 O.3    43  DC43       -0.3114
    846  C5'       -2.0910   18.3580   -6.3290 C.3    43  DC43        0.1811
    847  C4'       -2.0570   17.8820   -4.9070 C.3    43  DC43        0.1746
    848  O4'       -1.4960   16.5460   -4.8630 O.3    43  DC43       -0.3327
    849  C3'       -1.1490   18.6680   -3.9780 C.3    43  DC43        0.1558
    850  O3'       -1.7410   19.8780   -3.5270 O.3    43  DC43       -0.3138
    851  C2'       -0.9300   17.6730   -2.8530 C.3    43  DC43        0.0866
    852  C1'       -0.7890   16.3720   -3.6430 C.3    43  DC43        0.2106
    853  N1         0.6300   16.0420   -3.9030 N.ar   43  DC43       -0.2556
    854  C2         1.3900   15.5210   -2.8490 C.ar   43  DC43        0.3531
    855  O2         0.8380   15.3270   -1.7530 O.2    43  DC43       -0.2443
    856  N3         2.7000   15.2450   -3.0540 N.ar   43  DC43       -0.1739
    857  C4         3.2510   15.4700   -4.2480 C.ar   43  DC43        0.1759
    858  N4         4.5450   15.1820   -4.4030 N.pl3  43  DC43       -0.1070
    859  C5         2.4980   15.9980   -5.3280 C.ar   43  DC43        0.0566
    860  C6         1.2050   16.2690   -5.1220 C.ar   43  DC43        0.0849
    861  P         -0.8270   21.1090   -3.2150 P.3    44  DG44        0.2141
    862  OP1       -1.4470   22.4190   -2.9480 O.3    44  DG44       -0.4373
    863  OP2        0.1820   20.9810   -4.2810 O.2    44  DG44       -0.5172
    864  O5'       -0.0730   20.6050   -1.9000 O.3    44  DG44       -0.3114
    865  C5'       -0.5440   21.0070   -0.6250 C.3    44  DG44        0.1811
    866  C4'        0.0050   20.1180    0.4590 C.3    44  DG44        0.1746
    867  O4'        0.2400   18.7990   -0.0900 O.3    44  DG44       -0.3327
    868  C3'        1.3700   20.4840    1.0130 C.3    44  DG44        0.1558
    869  O3'        1.3550   21.5650    1.9200 O.3    44  DG44       -0.3138
    870  C2'        1.8270   19.1680    1.6240 C.3    44  DG44        0.0865
    871  C1'        1.3710   18.2220    0.5270 C.3    44  DG44        0.2094
    872  N9         2.4450   18.0780   -0.5200 N.ar   44  DG44       -0.2713
    873  C8         2.2230   18.3530   -1.8480 C.ar   44  DG44        0.1816
    874  N7         3.1990   17.9670   -2.6240 N.ar   44  DG44       -0.2173
    875  C5         4.1200   17.4020   -1.7620 C.ar   44  DG44        0.1748
    876  C6         5.3840   16.8100   -2.0200 C.ar   44  DG44        0.3023
    877  O6         5.9540   16.6660   -3.1080 O.2    44  DG44       -0.2633
    878  N1         5.9960   16.3610   -0.8530 N.ar   44  DG44       -0.1709
    879  C2         5.4570   16.4680    0.4070 C.ar   44  DG44        0.2606
    880  N2         6.1970   15.9760    1.4100 N.pl3  44  DG44       -0.0859
    881  N3         4.2850   17.0160    0.6620 N.ar   44  DG44       -0.1918
    882  C4         3.6730   17.4600   -0.4560 C.ar   44  DG44        0.1722
    883  P          2.1800   22.4960    1.5520 P.3    45  DG45        0.2141
    884  OP1        1.7230   23.5720    2.4820 O.3    45  DG45       -0.4373
    885  OP2        2.5780   22.8460    0.1640 O.2    45  DG45       -0.5172
    886  O5'        3.4090   21.7250    2.2150 O.3    45  DG45       -0.3114
    887  C5'        3.2290   21.0140    3.4440 C.3    45  DG45        0.1811
    888  C4'        4.4640   20.2200    3.7910 C.3    45  DG45        0.1746
    889  O4'        4.6990   19.1930    2.7910 O.3    45  DG45       -0.3327
    890  C3'        5.7870   20.9590    3.8370 C.3    45  DG45        0.1558
    891  O3'        5.9480   21.7220    5.0250 O.3    45  DG45       -0.3138
    892  C2'        6.7690   19.7940    3.7710 C.3    45  DG45        0.0865
    893  C1'        6.0820   18.8880    2.7450 C.3    45  DG45        0.2094
    894  N9         6.7070   19.3690    1.3260 N.ar   45  DG45       -0.2713
    895  C8         6.0840   20.0140    0.2850 C.ar   45  DG45        0.1816
    896  N7         6.8110   20.0670   -0.7970 N.ar   45  DG45       -0.2173
    897  C5         7.9830   19.4190   -0.4550 C.ar   45  DG45        0.1748
    898  C6         9.1520   19.1620   -1.2160 C.ar   45  DG45        0.3023
    899  O6         9.3850   19.4730   -2.3910 O.2    45  DG45       -0.2633
    900  N1        10.1120   18.4720   -0.4810 N.ar   45  DG45       -0.1709
    901  C2         9.9630   18.0770    0.8270 C.ar   45  DG45        0.2606
    902  N2        10.9980   17.4200    1.3680 N.pl3  45  DG45       -0.0859
    903  N3         8.8830   18.3090    1.5480 N.ar   45  DG45       -0.1918
    904  C4         7.9380   18.9790    0.8540 C.ar   45  DG45        0.1722
    905  P          7.0220   23.0900    5.0480 P.3    46  DA46        0.2141
    906  OP1        6.6560   23.8940    6.2400 O.3    46  DA46       -0.4373
    907  OP2        7.0180   23.7090    3.7030 O.2    46  DA46       -0.5172
    908  O5'        8.5100   22.5080    5.1750 O.3    46  DA46       -0.3114
    909  C5'        8.8950   21.6120    6.2080 C.3    46  DA46        0.1811
    910  C4'       10.1580   20.8580    5.8630 C.3    46  DA46        0.1746
    911  O4'        9.9760   20.1370    4.6190 O.3    46  DA46       -0.3327
    912  C3'       11.4170   21.6810    5.6260 C.3    46  DA46        0.1558
    913  O3'       12.0470   22.1000    6.8290 O.3    46  DA46       -0.3138
    914  C2'       12.2700   20.7390    4.7790 C.3    46  DA46        0.0865
    915  C1'       11.2060   20.0540    3.9230 C.3    46  DA46        0.2094
    916  N9        11.0550   20.6330    2.6230 N.ar   46  DA46       -0.2714
    917  C8        10.0200   21.4310    2.2110 C.ar   46  DA46        0.1815
    918  N7        10.0690   21.7450    0.9380 N.ar   46  DA46       -0.2193
    919  C5        11.2140   21.1120    0.4840 C.ar   46  DA46        0.1518
    920  C6        11.8240   21.0530   -0.7820 C.ar   46  DA46        0.1919
    921  N6        11.3400   21.6660   -1.8650 N.pl3  46  DA46       -0.1054
    922  N1        12.9610   20.3340   -0.8970 N.ar   46  DA46       -0.2040
    923  C2        13.4440   19.7190    0.1890 C.ar   46  DA46        0.2016
    924  N3        12.9620   19.7000    1.4290 N.ar   46  DA46       -0.2048
    925  C4        11.8330   20.4240    1.5100 C.ar   46  DA46        0.1691
    926  P         13.3000   23.1780    6.8100 P.3    47  DA47        0.2141
    927  OP1       13.7740   23.6360    8.1390 O.3    47  DA47       -0.4373
    928  OP2       12.6550   24.1370    5.8930 O.2    47  DA47       -0.5172
    929  O5'       14.5220   22.5190    6.0260 O.3    47  DA47       -0.3114
    930  C5'       15.3050   21.4620    6.5940 C.3    47  DA47        0.1811
    931  C4'       16.3910   21.0440    5.6250 C.3    47  DA47        0.1746
    932  O4'       15.8010   20.3680    4.4820 O.3    47  DA47       -0.3327
    933  C3'       17.1390   22.2120    5.0120 C.3    47  DA47        0.1558
    934  O3'       18.1600   22.6910    5.8770 O.3    47  DA47       -0.3138
    935  C2'       17.6500   21.6340    3.6990 C.3    47  DA47        0.0865
    936  C1'       16.4810   20.7420    3.2920 C.3    47  DA47        0.2094
    937  N9        15.4170   21.3240    2.3870 N.ar   47  DA47       -0.2714
    938  C8        14.0930   21.6090    2.5980 C.ar   47  DA47        0.1815
    939  N7        13.4840   22.1030    1.5460 N.ar   47  DA47       -0.2193
    940  C5        14.4760   22.1460    0.5790 C.ar   47  DA47        0.1518
    941  C6        14.4710   22.5700   -0.7610 C.ar   47  DA47        0.1919
    942  N6        13.3910   23.0510   -1.3810 N.pl3  47  DA47       -0.1054
    943  N1        15.6290   22.4820   -1.4500 N.ar   47  DA47       -0.2040
    944  C2        16.7110   21.9990   -0.8280 C.ar   47  DA47        0.2016
    945  N3        16.8380   21.5690    0.4250 N.ar   47  DA47       -0.2048
    946  C4        15.6710   21.6700    1.0830 C.ar   47  DA47        0.1691
    947  P         18.4970   24.2920    5.8970 P.3    48  DA48        0.2141
    948  OP1       19.4550   24.8820    6.8560 O.3    48  DA48       -0.4373
    949  OP2       17.0890   24.7400    5.9670 O.2    48  DA48       -0.5172
    950  O5'       19.0080   24.4850    4.3890 O.3    48  DA48       -0.3114
    951  C5'       20.3810   24.3630    4.0240 C.3    48  DA48        0.1811
    952  C4'       20.6230   25.0690    2.7020 C.3    48  DA48        0.1746
    953  O4'       20.0180   24.2910    1.6280 O.3    48  DA48       -0.3327
    954  C3'       20.0160   26.4720    2.5690 C.3    48  DA48        0.1558
    955  O3'       20.8250   27.5100    3.1640 O.3    48  DA48       -0.3138
    956  C2'       19.9730   26.5820    1.0480 C.3    48  DA48        0.0865
    957  C1'       19.5160   25.1740    0.6420 C.3    48  DA48        0.2104
    958  N9        17.9990   25.1780    0.5780 N.ar   48  DA48       -0.2577
    959  C8        17.0920   24.9590    1.5830 C.ar   48  DA48        0.1824
    960  N7        15.8440   24.9690    1.1800 N.ar   48  DA48       -0.2188
    961  C5        15.9370   25.2120   -0.1820 C.ar   48  DA48        0.1788
    962  C6        14.9630   25.3400   -1.1880 C.3    48  DA48        0.3012
    963  N6        13.6510   25.2360   -0.9650 N.3    48  DA48       -0.0709
    964  N1        15.3910   25.5820   -2.4460 N.pl3  48  DA48       -0.1334
    965  C2        16.7060   25.6850   -2.6680 C.cat  48  DA48        0.4132
    966  N3        17.7150   25.5830   -1.8070 N.2    48  DA48       -0.0533
    967  C4        17.2570   25.3440   -0.5660 C.ar   48  DA48        0.2452
    968  P         20.2460   28.8990    3.8470 P.3    49  DT49        0.2141
    969  OP1       21.2240   29.1930    4.9170 O.3    49  DT49       -0.4373
    970  OP2       18.9470   28.2750    4.1900 O.2    49  DT49       -0.5172
    971  O5'       19.8400   30.2640    3.1170 O.3    49  DT49       -0.3114
    972  C5'       20.7240   30.9760    2.2610 C.3    49  DT49        0.1811
    973  C4'       20.0000   31.4670    1.0290 C.3    49  DT49        0.1746
    974  O4'       19.3080   30.3530    0.4130 O.3    49  DT49       -0.3327
    975  C3'       18.9330   32.5370    1.2500 C.3    49  DT49        0.1558
    976  O3'       19.4770   33.8510    1.1690 O.3    49  DT49       -0.3138
    977  C2'       17.8720   32.2590    0.1880 C.3    49  DT49        0.0866
    978  C1'       18.1200   30.8000   -0.2020 C.3    49  DT49        0.2106
    979  N1        17.2850   29.8130    0.0430 N.ar   49  DT49       -0.2559
    980  C2        16.1660   29.7730   -0.7660 C.ar   49  DT49        0.3545
    981  O2        16.1190   30.3060   -1.8610 O.2    49  DT49       -0.2443
    982  N3        15.0960   29.0860   -0.2450 N.ar   49  DT49       -0.1533
    983  C4        15.0360   28.4470    0.9760 C.ar   49  DT49        0.2804
    984  O4        14.0030   27.8690    1.3050 O.2    49  DT49       -0.2654
    985  C5        16.2370   28.5340    1.7580 C.ar   49  DT49        0.0534
    986  C6        17.2910   29.1970    1.2760 C.ar   49  DT49        0.0824
    987  C7        16.2710   27.8710    3.1030 C.3    49  DT49        0.0377
    988  P         18.6620   35.1850    1.0200 P.3    50  DA50        0.2141
    989  OP1       19.8050   36.0390    1.4090 O.2    50  DA50       -0.5172
    990  OP2       17.7720   34.6390    2.0660 O.3    50  DA50       -0.4373
    991  O5'       17.6830   35.9940    0.0520 O.3    50  DA50       -0.3114
    992  C5'       18.1270   36.1650   -1.2850 C.3    50  DA50        0.1811
    993  C4'       17.0060   36.1000   -2.2920 C.3    50  DA50        0.1746
    994  O4'       16.4180   34.7760   -2.3020 O.3    50  DA50       -0.3327
    995  C3'       15.8140   37.0070   -2.0460 C.3    50  DA50        0.1558
    996  O3'       16.0410   38.3580   -2.3980 O.3    50  DA50       -0.3138
    997  C2'       14.7330   36.3570   -2.8930 C.3    50  DA50        0.0865
    998  C1'       15.0720   34.8730   -2.7250 C.3    50  DA50        0.2094
    999  N9        14.2710   34.0920   -1.8010 N.ar   50  DA50       -0.2714
   1000  C8        14.7470   33.6000   -0.6140 C.ar   50  DA50        0.1815
   1001  N7        13.8720   32.8820    0.0500 N.ar   50  DA50       -0.2193
   1002  C5        12.7440   32.9050   -0.7560 C.ar   50  DA50        0.1518
   1003  C6        11.4690   32.3300   -0.6150 C.ar   50  DA50        0.1919
   1004  N6        11.1050   31.5880    0.4340 N.pl3  50  DA50       -0.1054
   1005  N1        10.5720   32.5460   -1.6000 N.ar   50  DA50       -0.2040
   1006  C2        10.9390   33.2880   -2.6510 C.ar   50  DA50        0.2016
   1007  N3        12.1050   33.8800   -2.8960 N.ar   50  DA50       -0.2048
   1008  C4        12.9740   33.6470   -1.8980 C.ar   50  DA50        0.1691
   1009  P         15.4120   39.4760   -1.4000 P.3    51  DA51        0.2141
   1010  OP1       16.3610   40.6090   -1.5550 O.2    51  DA51       -0.5172
   1011  OP2       14.6650   39.3240   -0.1020 O.3    51  DA51       -0.4373
   1012  O5'       14.3170   39.7760   -2.5060 O.3    51  DA51       -0.3114
   1013  C5'       13.1300   40.4460   -2.1520 C.3    51  DA51        0.1811
   1014  C4'       11.9440   39.7820   -2.8030 C.3    51  DA51        0.1746
   1015  O4'       12.1060   38.3420   -2.7990 O.3    51  DA51       -0.3327
   1016  C3'       10.6670   39.9870   -2.0250 C.3    51  DA51        0.1558
   1017  O3'       10.1360   41.2560   -2.2750 O.3    51  DA51       -0.3138
   1018  C2'        9.8040   38.8310   -2.4900 C.3    51  DA51        0.0865
   1019  C1'       10.8510   37.7180   -2.5470 C.3    51  DA51        0.2094
   1020  N9        10.9260   37.0110   -1.1710 N.ar   51  DA51       -0.2714
   1021  C8        12.0890   36.9570   -0.4470 C.ar   51  DA51        0.1815
   1022  N7        12.0740   36.0590    0.5100 N.ar   51  DA51       -0.2193
   1023  C5        10.8170   35.4860    0.4080 C.ar   51  DA51        0.1518
   1024  C6        10.1800   34.4670    1.1380 C.ar   51  DA51        0.1919
   1025  N6        10.7500   33.8210    2.1570 N.pl3  51  DA51       -0.1054
   1026  N1         8.9220   34.1320    0.7800 N.ar   51  DA51       -0.2040
   1027  C2         8.3510   34.7800   -0.2420 C.ar   51  DA51        0.2016
   1028  N3         8.8480   35.7520   -1.0040 N.ar   51  DA51       -0.2048
   1029  C4        10.0980   36.0620   -0.6220 C.ar   51  DA51        0.1691
   1030  P         10.0080   41.9070   -1.2440 P.3    52  DG52        0.2141
   1031  OP1        9.9080   43.2440   -1.8740 O.2    52  DG52       -0.5172
   1032  OP2       10.9480   41.6780   -0.1320 O.3    52  DG52       -0.4373
   1033  O5'        8.5470   41.4750   -0.7720 O.3    52  DG52       -0.3114
   1034  C5'        7.7260   40.7880   -1.6820 C.3    52  DG52        0.1811
   1035  C4'        6.8560   39.8090   -0.9320 C.3    52  DG52        0.1746
   1036  O4'        7.5570   38.5600   -0.7320 O.3    52  DG52       -0.3327
   1037  C3'        6.5270   40.2430    0.4750 C.3    52  DG52        0.1558
   1038  O3'        5.5010   41.2250    0.4590 O.3    52  DG52       -0.3138
   1039  C2'        6.0720   38.9150    1.0710 C.3    52  DG52        0.0865
   1040  C1'        7.0610   37.9370    0.4380 C.3    52  DG52        0.2094
   1041  N9         8.2450   37.6850    1.2700 N.ar   52  DG52       -0.2713
   1042  C8         9.4490   38.3460    1.2420 C.ar   52  DG52        0.1816
   1043  N7        10.2580   37.9840    2.2000 N.ar   52  DG52       -0.2173
   1044  C5         9.5510   37.0260    2.9030 C.ar   52  DG52        0.1749
   1045  C6         9.9080   36.2700    4.0490 C.ar   52  DG52        0.3034
   1046  O6        10.9660   36.3040    4.6890 O.2    52  DG52       -0.2633
   1047  N1         8.8900   35.4050    4.4400 N.ar   52  DG52       -0.1571
   1048  C2         7.6770   35.2840    3.8060 C.ar   52  DG52        0.3183
   1049  N2         6.8220   34.3950    4.3300 N.pl3  52  DG52        0.0079
   1050  N3         7.3300   35.9800    2.7410 N.ar   52  DG52       -0.1782
   1051  C4         8.3030   36.8270    2.3430 C.ar   52  DG52        0.1736
   1052  P          5.3850   42.3680    1.8000 P.3    53  DA53        0.2141
   1053  OP1        4.6080   43.6050    1.6050 O.2    53  DA53       -0.5172
   1054  OP2        6.8560   42.4330    1.8950 O.3    53  DA53       -0.4373
   1055  O5'        4.8450   41.6180    3.0910 O.3    53  DA53       -0.3114
   1056  C5'        3.4730   41.2860    3.2130 C.3    53  DA53        0.1811
   1057  C4'        3.2760   40.2090    4.2510 C.3    53  DA53        0.1746
   1058  O4'        4.2240   39.1400    4.0240 O.3    53  DA53       -0.3327
   1059  C3'        3.5240   40.5670    5.7020 C.3    53  DA53        0.1558
   1060  O3'        2.3820   41.2430    6.2310 O.3    53  DA53       -0.3138
   1061  C2'        3.6870   39.1870    6.3410 C.3    53  DA53        0.0865
   1062  C1'        4.3510   38.3860    5.2080 C.3    53  DA53        0.2094
   1063  N9         5.7290   38.0940    5.3370 N.ar   53  DA53       -0.2714
   1064  C8         6.7970   38.7870    4.8290 C.ar   53  DA53        0.1815
   1065  N7         7.9610   38.3310    5.2280 N.ar   53  DA53       -0.2193
   1066  C5         7.6350   37.2670    6.0540 C.ar   53  DA53        0.1518
   1067  C6         8.4240   36.3650    6.7900 C.ar   53  DA53        0.1919
   1068  N6         9.7580   36.3960    6.8100 N.pl3  53  DA53       -0.1054
   1069  N1         7.7850   35.4210    7.5140 N.ar   53  DA53       -0.2040
   1070  C2         6.4480   35.3900    7.4920 C.ar   53  DA53        0.2016
   1071  N3         5.5990   36.1820    6.8400 N.ar   53  DA53       -0.2048
   1072  C4         6.2650   37.1100    6.1320 C.ar   53  DA53        0.1691
   1073  P          2.4350   42.0450    7.4540 P.3    54  DG54        0.2141
   1074  OP1        1.3880   42.8440    8.1140 O.3    54  DG54       -0.4373
   1075  OP2        3.7030   42.7290    7.0880 O.2    54  DG54       -0.5172
   1076  O5'        2.8300   40.9310    8.5130 O.3    54  DG54       -0.3114
   1077  C5'        1.7310   40.3390    9.1600 C.3    54  DG54        0.1811
   1078  C4'        2.1650   39.0880    9.8880 C.3    54  DG54        0.1746
   1079  O4'        3.0770   38.3510    9.0650 O.3    54  DG54       -0.3327
   1080  C3'        3.0510   39.3570   11.0640 C.3    54  DG54        0.1558
   1081  O3'        2.3630   39.9590   12.1280 O.3    54  DG54       -0.3138
   1082  C2'        3.5810   37.9430   11.3030 C.3    54  DG54        0.0865
   1083  C1'        3.9340   37.6090    9.8670 C.3    54  DG54        0.2094
   1084  N9         5.2710   37.9150    9.5620 N.ar   54  DG54       -0.2713
   1085  C8         5.6100   38.8560    8.6200 C.ar   54  DG54        0.1816
   1086  N7         6.8920   38.9110    8.3850 N.ar   54  DG54       -0.2173
   1087  C5         7.4360   37.9510    9.2180 C.ar   54  DG54        0.1748
   1088  C6         8.7830   37.5510    9.4100 C.ar   54  DG54        0.3023
   1089  O6         9.7980   37.9870    8.8530 O.2    54  DG54       -0.2633
   1090  N1         8.8950   36.5370   10.3570 N.ar   54  DG54       -0.1709
   1091  C2         7.8390   35.9770   11.0360 C.ar   54  DG54        0.2606
   1092  N2         8.1440   35.0090   11.9100 N.pl3  54  DG54       -0.0859
   1093  N3         6.5820   36.3400   10.8690 N.ar   54  DG54       -0.1918
   1094  C4         6.4490   37.3240    9.9550 C.ar   54  DG54        0.1722
   1095  P          3.2710   40.9020   12.9560 P.3    55  DT55        0.2141
   1096  OP1        2.4350   41.5260   14.0140 O.3    55  DT55       -0.4373
   1097  OP2        4.0550   41.7630   12.0330 O.2    55  DT55       -0.5172
   1098  O5'        4.2670   39.8660   13.6480 O.3    55  DT55       -0.3114
   1099  C5'        3.7680   38.6960   14.2880 C.3    55  DT55        0.1811
   1100  C4'        4.8830   37.9570   14.9970 C.3    55  DT55        0.1767
   1101  O4'        5.8800   37.5600   14.0180 O.3    55  DT55       -0.3327
   1102  C3'        5.6310   38.8010   16.0190 C.3    55  DT55        0.2180
   1103  O3'        5.5950   38.3610   17.3790 O.3    55  DT55       -0.2106
   1104  C2'        6.9060   39.2990   15.3390 C.3    55  DT55        0.0586
   1105  C1'        7.0680   38.3120   14.1820 C.3    55  DT55        0.2082
   1106  N1         7.6630   38.8860   13.0020 N.ar   55  DT55       -0.2559
   1107  C2         8.9990   38.6080   12.7840 C.ar   55  DT55        0.3545
   1108  O2         9.6690   37.9280   13.5410 O.2    55  DT55       -0.2443
   1109  N3         9.5270   39.1580   11.6410 N.ar   55  DT55       -0.1533
   1110  C4         8.8690   39.9410   10.7160 C.ar   55  DT55        0.2804
   1111  O4         9.4790   40.3620    9.7360 O.2    55  DT55       -0.2654
   1112  C5         7.4860   40.1850   11.0140 C.ar   55  DT55        0.0534
   1113  C6         6.9460   39.6630   12.1180 C.ar   55  DT55        0.0824
   1114  C7         6.6830   41.0270   10.0670 C.3    55  DT55        0.0377
   1115  P          6.7640   38.9980   18.2610 P.3    56  DG56        0.3939
   1116  OP1        5.5030   39.0830   17.4930 O.3    56  DG56       -0.1495
   1117  OP2        6.7610   39.3030   19.7080 O.3    56  DG56       -0.1425
   1118  O5'        7.2620   37.4760   18.2010 O.3    56  DG56       -0.2926
   1119  C5'        7.7220   36.8710   19.4040 C.3    56  DG56        0.1828
   1120  C4'        7.6320   35.3630   19.4000 C.3    56  DG56        0.1747
   1121  O4'        6.2350   34.9570   19.4470 O.3    56  DG56       -0.3327
   1122  C3'        8.2560   34.6680   18.1900 C.3    56  DG56        0.1558
   1123  O3'        9.4100   33.8980   18.5100 O.3    56  DG56       -0.3138
   1124  C2'        7.1840   33.7250   17.6510 C.3    56  DG56        0.0865
   1125  C1'        5.9850   33.8730   18.5760 C.3    56  DG56        0.2094
   1126  N9         4.9900   34.3830   17.5770 N.ar   56  DG56       -0.2713
   1127  C8         4.7800   35.6790   17.1750 C.ar   56  DG56        0.1816
   1128  N7         3.9200   35.7840   16.1990 N.ar   56  DG56       -0.2173
   1129  C5         3.5360   34.4820   15.9400 C.ar   56  DG56        0.1748
   1130  C6         2.6240   33.9600   14.9860 C.ar   56  DG56        0.3023
   1131  O6         1.9530   34.5790   14.1510 O.2    56  DG56       -0.2633
   1132  N1         2.5290   32.5740   15.0600 N.ar   56  DG56       -0.1709
   1133  C2         3.2260   31.7860   15.9450 C.ar   56  DG56        0.2606
   1134  N2         3.0000   30.4670   15.8660 N.pl3  56  DG56       -0.0859
   1135  N3         4.0760   32.2550   16.8360 N.ar   56  DG56       -0.1918
   1136  C4         4.1850   33.6000   16.7820 C.ar   56  DG56        0.1722
   1137  P         10.3520   33.6340   17.5710 P.3    57  DG57        0.2141
   1138  OP1       11.8030   33.8290   17.7970 O.3    57  DG57       -0.4373
   1139  OP2        9.7700   33.7700   16.2150 O.2    57  DG57       -0.5172
   1140  O5'        9.9090   32.1760   18.0550 O.3    57  DG57       -0.3114
   1141  C5'       10.1120   31.0730   17.1910 C.3    57  DG57        0.1811
   1142  C4'        8.8330   30.3160   16.9470 C.3    57  DG57        0.1746
   1143  O4'        7.6930   31.2150   16.9600 O.3    57  DG57       -0.3327
   1144  C3'        8.7360   29.6470   15.5910 C.3    57  DG57        0.1558
   1145  O3'        9.4880   28.4540   15.5090 O.3    57  DG57       -0.3138
   1146  C2'        7.2340   29.4650   15.4340 C.3    57  DG57        0.0865
   1147  C1'        6.7420   30.7910   16.0070 C.3    57  DG57        0.2094
   1148  N9         6.6890   31.7600   14.9930 N.ar   57  DG57       -0.2726
   1149  C8         7.3100   32.9560   15.2630 C.ar   57  DG57        0.1816
   1150  N7         7.0010   33.8990   14.4150 N.ar   57  DG57       -0.2174
   1151  C5         6.1240   33.2950   13.5340 C.ar   57  DG57        0.1732
   1152  C6         5.4520   33.8150   12.3980 C.ar   57  DG57        0.3022
   1153  O6         5.5050   34.9610   11.9340 O.2    57  DG57       -0.2633
   1154  N1         4.6520   32.8560   11.7820 N.ar   57  DG57       -0.1723
   1155  C2         4.5160   31.5560   12.2080 C.ar   57  DG57        0.2446
   1156  N2         3.6980   30.7800   11.4850 N.pl3  57  DG57       -0.0875
   1157  N3         5.1350   31.0590   13.2610 N.ar   57  DG57       -0.2462
   1158  C4         5.9180   31.9720   13.8740 C.ar   57  DG57        0.1555
   1159  P         10.4310   28.4050   14.4670 P.3    58  DT58        0.2141
   1160  OP1       11.4560   27.4300   14.0190 O.3    58  DT58       -0.4373
   1161  OP2       10.3870   29.7300   13.8490 O.2    58  DT58       -0.5172
   1162  O5'        9.0060   27.7360   14.2590 O.3    58  DT58       -0.3114
   1163  C5'        8.5090   27.4610   12.9450 C.3    58  DT58        0.1811
   1164  C4'        7.1430   28.0630   12.7850 C.3    58  DT58        0.1764
   1165  O4'        7.2110   29.4490   13.1860 O.3    58  DT58       -0.3196
   1166  C3'        6.6460   28.0960   11.3540 C.3    58  DT58        0.1578
   1167  O3'        5.9920   26.8910   11.0010 O.3    58  DT58       -0.3138
   1168  C2'        5.7430   29.3240   11.3300 C.3    58  DT58        0.1063
   1169  C1'        6.4990   30.2600   12.2620 C.3    58  DT58        0.2502
   1170  N1         7.4850   31.0830   11.3140 N.ar   58  DT58       -0.2419
   1171  C2         7.0240   32.0950   10.4940 C.ar   58  DT58        0.3558
   1172  O2         5.8580   32.1940   10.1530 O.2    58  DT58       -0.2442
   1173  N3         7.9800   32.9910   10.0820 N.ar   58  DT58       -0.1533
   1174  C4         9.3220   32.9770   10.4020 C.ar   58  DT58        0.2804
   1175  O4        10.0590   33.8530    9.9560 O.2    58  DT58       -0.2654
   1176  C5         9.7230   31.8950   11.2570 C.ar   58  DT58        0.0535
   1177  C6         8.8140   31.0100   11.6710 C.ar   58  DT58        0.0841
   1178  C7        11.1640   31.7920   11.6620 C.3    58  DT58        0.0377
   1179  P          6.3340   26.1870    9.7250 P.3    59  DG59        0.2141
   1180  OP1        6.0700   24.7290    9.6710 O.3    59  DG59       -0.4373
   1181  OP2        7.4910   26.7480    8.9830 O.2    59  DG59       -0.5172
   1182  O5'        5.0210   26.9330    9.2360 O.3    59  DG59       -0.3114
   1183  C5'        4.8500   27.2560    7.8710 C.3    59  DG59        0.1811
   1184  C4'        3.9200   28.4310    7.7260 C.3    59  DG59        0.1746
   1185  O4'        4.4180   29.5660    8.4890 O.3    59  DG59       -0.3327
   1186  C3'        3.8610   28.9400    6.3040 C.3    59  DG59        0.1558
   1187  O3'        2.9890   28.1470    5.5310 O.3    59  DG59       -0.3138
   1188  C2'        3.4560   30.3880    6.5020 C.3    59  DG59        0.0865
   1189  C1'        4.3420   30.7430    7.6970 C.3    59  DG59        0.2103
   1190  N9         5.7310   31.0920    7.1200 N.ar   59  DG59       -0.2594
   1191  C8         6.8860   30.5130    7.5890 C.ar   59  DG59        0.1825
   1192  N7         7.9640   30.9850    7.0250 N.ar   59  DG59       -0.2161
   1193  C5         7.4980   31.9330    6.1330 C.ar   59  DG59        0.1894
   1194  C6         8.1990   32.7780    5.2340 C.2    59  DG59        0.3185
   1195  O6         9.4200   32.8530    5.0480 O.2    59  DG59       -0.2636
   1196  N1         7.3370   33.5940    4.5070 N.am   59  DG59       -0.0287
   1197  C2         5.9680   33.5950    4.6310 C.cat  59  DG59        0.4769
   1198  N2         5.3050   34.4540    3.8440 N.2    59  DG59        0.0768
   1199  N3         5.3030   32.8160    5.4610 N.pl3  59  DG59       -0.0153
   1200  C4         6.1200   32.0150    6.1770 C.ar   59  DG59        0.2374
   1201  P          3.7140   27.1060    4.6600 P.3    60  DT60        0.2141
   1202  OP1        2.7640   26.0160    4.3460 O.2    60  DT60       -0.5172
   1203  OP2        5.1540   26.8050    4.8200 O.3    60  DT60       -0.4373
   1204  O5'        3.5570   28.2310    3.5310 O.3    60  DT60       -0.3114
   1205  C5'        2.2540   28.6610    3.1460 C.3    60  DT60        0.1811
   1206  C4'        2.2760   29.5800    1.9320 C.3    60  DT60        0.1746
   1207  O4'        2.8100   30.8760    2.2850 O.3    60  DT60       -0.3327
   1208  C3'        3.1600   29.0330    0.8570 C.3    60  DT60        0.1558
   1209  O3'        2.4520   28.2320   -0.0980 O.3    60  DT60       -0.3138
   1210  C2'        3.7830   30.2000    0.2360 C.3    60  DT60        0.0866
   1211  C1'        3.8020   31.2550    1.2980 C.3    60  DT60        0.2106
   1212  N1         5.1630   31.2290    1.8770 N.ar   60  DT60       -0.2559
   1213  C2         6.0790   32.1070    1.3310 C.ar   60  DT60        0.3545
   1214  O2         5.7780   32.9580    0.5120 O.2    60  DT60       -0.2443
   1215  N3         7.3690   31.9530    1.7780 N.ar   60  DT60       -0.1533
   1216  C4         7.8240   31.0300    2.6960 C.ar   60  DT60        0.2804
   1217  O4         9.0150   31.0150    2.9990 O.2    60  DT60       -0.2654
   1218  C5         6.8130   30.1540    3.2160 C.ar   60  DT60        0.0534
   1219  C6         5.5510   30.2810    2.7990 C.ar   60  DT60        0.0824
   1220  C7         7.2090   29.1140    4.2210 C.3    60  DT60        0.0377
   1221  P          3.2770   27.0160   -0.9490 P.3    61  DT61        0.2141
   1222  OP1        2.5210   25.9790   -1.6850 O.2    61  DT61       -0.5172
   1223  OP2        4.5270   26.6860   -0.2280 O.3    61  DT61       -0.4373
   1224  O5'        3.7090   28.1440   -1.9920 O.3    61  DT61       -0.3114
   1225  C5'        2.8860   28.4500   -3.1070 C.3    61  DT61        0.1811
   1226  C4'        3.6450   29.3470   -4.0440 C.3    61  DT61        0.1746
   1227  O4'        4.0850   30.5030   -3.2880 O.3    61  DT61       -0.3327
   1228  C3'        4.9200   28.7410   -4.6140 C.3    61  DT61        0.1558
   1229  O3'        4.6990   28.0160   -5.8120 O.3    61  DT61       -0.3138
   1230  C2'        5.8320   29.9460   -4.8000 C.3    61  DT61        0.0866
   1231  C1'        5.4010   30.8530   -3.6490 C.3    61  DT61        0.2106
   1232  N1         6.3330   30.6890   -2.3860 N.ar   61  DT61       -0.2559
   1233  C2         7.5110   31.4090   -2.4440 C.ar   61  DT61        0.3545
   1234  O2         7.7380   32.2440   -3.3010 O.2    61  DT61       -0.2443
   1235  N3         8.4210   31.1150   -1.4570 N.ar   61  DT61       -0.1533
   1236  C4         8.2750   30.1940   -0.4400 C.ar   61  DT61        0.2804
   1237  O4         9.1820   30.0430    0.3740 O.2    61  DT61       -0.2654
   1238  C5         7.0250   29.4870   -0.4490 C.ar   61  DT61        0.0534
   1239  C6         6.1230   29.7520   -1.3970 C.ar   61  DT61        0.0824
   1240  C7         6.7700   28.4630    0.6170 C.3    61  DT61        0.0377
   1241  P          5.8980   27.0880   -6.4880 P.3    62  DG62        0.2141
   1242  OP1        5.3570   26.5290   -7.7530 O.2    62  DG62       -0.5172
   1243  OP2        6.4590   26.2150   -5.4260 O.3    62  DG62       -0.4373
   1244  O5'        6.9750   28.2220   -6.8260 O.3    62  DG62       -0.3114
   1245  C5'        6.9190   28.9140   -8.0610 C.3    62  DG62        0.1811
   1246  C4'        8.0690   29.8810   -8.1800 C.3    62  DG62        0.1746
   1247  O4'        8.2820   30.5590   -6.9340 O.3    62  DG62       -0.3327
   1248  C3'        9.4070   29.2350   -8.4450 C.3    62  DG62        0.1558
   1249  O3'        9.5150   28.8380   -9.7910 O.3    62  DG62       -0.3138
   1250  C2'       10.3260   30.3740   -8.0800 C.3    62  DG62        0.0865
   1251  C1'        9.6550   30.8420   -6.7990 C.3    62  DG62        0.2094
   1252  N9        10.1350   30.2030   -5.5290 N.ar   62  DG62       -0.2713
   1253  C8         9.5720   29.1400   -4.8650 C.ar   62  DG62        0.1816
   1254  N7        10.2690   28.7500   -3.8320 N.ar   62  DG62       -0.2173
   1255  C5        11.3560   29.6050   -3.8100 C.ar   62  DG62        0.1748
   1256  C6        12.4590   29.6720   -2.9210 C.ar   62  DG62        0.3023
   1257  O6        12.6970   28.9570   -1.9400 O.2    62  DG62       -0.2633
   1258  N1        13.3410   30.6940   -3.2610 N.ar   62  DG62       -0.1709
   1259  C2        13.1790   31.5480   -4.3260 C.ar   62  DG62        0.2606
   1260  N2        14.1340   32.4720   -4.4940 N.pl3  62  DG62       -0.0859
   1261  N3        12.1590   31.4970   -5.1610 N.ar   62  DG62       -0.1918
   1262  C4        11.2910   30.5110   -4.8510 C.ar   62  DG62        0.1722
   1263  P         10.0860   27.4760  -10.0050 P.3    63  DG63        0.2141
   1264  OP1       10.2020   27.0750  -11.4340 O.2    63  DG63       -0.5172
   1265  OP2        9.2910   26.6410   -9.0610 O.3    63  DG63       -0.4373
   1266  O5'       11.5160   27.6590   -9.3360 O.3    63  DG63       -0.3114
   1267  C5'       12.5530   28.3550  -10.0080 C.3    63  DG63        0.1811
   1268  C4'       13.8740   28.0630   -9.3430 C.3    63  DG63        0.1746
   1269  O4'       13.9020   28.7180   -8.0510 O.3    63  DG63       -0.3327
   1270  C3'       14.1440   26.5990   -9.0450 C.3    63  DG63        0.1558
   1271  O3'       14.6880   25.8930  -10.1600 O.3    63  DG63       -0.3138
   1272  C2'       15.1050   26.6730   -7.8660 C.3    63  DG63        0.0865
   1273  C1'       14.6020   27.9140   -7.1260 C.3    63  DG63        0.2093
   1274  N9        13.6580   27.4990   -6.0580 N.ar   63  DG63       -0.2735
   1275  C8        12.2980   27.3060   -6.1090 C.ar   63  DG63        0.1814
   1276  N7        11.8110   26.7810   -5.0180 N.ar   63  DG63       -0.2178
   1277  C5        12.9100   26.6180   -4.1950 C.ar   63  DG63        0.1691
   1278  C6        13.0100   26.0920   -2.8810 C.2    63  DG63        0.2877
   1279  O6        12.1050   25.6510   -2.1620 O.2    63  DG63       -0.2668
   1280  N1        14.3210   26.1070   -2.4130 N.am   63  DG63       -0.1292
   1281  C2        15.4030   26.5710   -3.1230 C.3    63  DG63        0.4094
   1282  N2        16.5890   26.5050   -2.5030 N.pl3  63  DG63        0.0020
   1283  N3        15.3260   27.0610   -4.3440 N.pl3  63  DG63       -0.1390
   1284  C4        14.0620   27.0560   -4.8200 C.ar   63  DG63        0.1611
   1285  P         14.6210   24.3160  -10.2030 P.3    64  DC64        0.2141
   1286  OP1       14.7610   23.9330  -11.6260 O.2    64  DC64       -0.5172
   1287  OP2       13.3400   24.1270   -9.4840 O.3    64  DC64       -0.4373
   1288  O5'       15.6720   23.4570   -9.3590 O.3    64  DC64       -0.3114
   1289  C5'       17.0530   23.5610   -9.6410 C.3    64  DC64        0.1811
   1290  C4'       17.8610   23.1120   -8.4550 C.3    64  DC64        0.1746
   1291  O4'       17.6600   24.0110   -7.3340 O.3    64  DC64       -0.3327
   1292  C3'       17.4720   21.7650   -7.8820 C.3    64  DC64        0.1558
   1293  O3'       17.9260   20.6770   -8.6610 O.3    64  DC64       -0.3138
   1294  C2'       18.0740   21.8320   -6.4850 C.3    64  DC64        0.0866
   1295  C1'       17.7810   23.2880   -6.1250 C.3    64  DC64        0.2106
   1296  N1        16.4650   23.2690   -5.4080 N.ar   64  DC64       -0.2556
   1297  C2        16.4160   22.9910   -4.0370 C.ar   64  DC64        0.3531
   1298  O2        17.4500   22.6000   -3.4690 O.2    64  DC64       -0.2443
   1299  N3        15.2480   23.1560   -3.3720 N.ar   64  DC64       -0.1739
   1300  C4        14.1630   23.5770   -4.0230 C.ar   64  DC64        0.1759
   1301  N4        13.0340   23.7250   -3.3260 N.pl3  64  DC64       -0.1070
   1302  C5        14.1920   23.8640   -5.4120 C.ar   64  DC64        0.0566
   1303  C6        15.3470   23.7000   -6.0650 C.ar   64  DC64        0.0849
   1304  P         16.8570   19.7680   -9.0150 P.3    65  DT65        0.2141
   1305  OP1       17.2790   18.7210   -9.9720 O.2    65  DT65       -0.5172
   1306  OP2       15.4340   20.1720   -8.9030 O.3    65  DT65       -0.4373
   1307  O5'       17.2530   19.3130   -7.5330 O.3    65  DT65       -0.3114
   1308  C5'       18.5760   18.8950   -7.2320 C.3    65  DT65        0.1811
   1309  C4'       18.7270   18.5770   -5.7640 C.3    65  DT65        0.1746
   1310  O4'       18.3030   19.7230   -4.9850 O.3    65  DT65       -0.3327
   1311  C3'       17.8870   17.4190   -5.2420 C.3    65  DT65        0.1558
   1312  O3'       18.5200   16.1610   -5.4330 O.3    65  DT65       -0.3138
   1313  C2'       17.6620   17.7790   -3.7770 C.3    65  DT65        0.0866
   1314  C1'       17.6270   19.3080   -3.8190 C.3    65  DT65        0.2106
   1315  N1        16.2110   19.8100   -3.8140 N.ar   65  DT65       -0.2559
   1316  C2        15.5440   19.9270   -2.6090 C.ar   65  DT65        0.3545
   1317  O2        16.0770   19.7250   -1.5330 O.2    65  DT65       -0.2443
   1318  N3        14.2220   20.2890   -2.7100 N.ar   65  DT65       -0.1533
   1319  C4        13.5170   20.5410   -3.8680 C.ar   65  DT65        0.2804
   1320  O4        12.3320   20.8590   -3.7980 O.2    65  DT65       -0.2654
   1321  C5        14.2790   20.3980   -5.0770 C.ar   65  DT65        0.0534
   1322  C6        15.5650   20.0460   -5.0080 C.ar   65  DT65        0.0824
   1323  C7        13.6000   20.6500   -6.3910 C.3    65  DT65        0.0377
   1324  P         17.7320   14.7500   -5.1330 P.3    66  DC66        0.2141
   1325  OP1       18.5970   13.6200   -5.5260 O.3    66  DC66       -0.4373
   1326  OP2       16.5750   15.1110   -5.9850 O.2    66  DC66       -0.5172
   1327  O5'       17.1660   14.5020   -3.6560 O.3    66  DC66       -0.3114
   1328  C5'       18.0390   14.5110   -2.5260 C.3    66  DC66        0.1811
   1329  C4'       17.3010   14.6880   -1.2080 C.3    66  DC66        0.1746
   1330  O4'       16.8300   16.0530   -1.0380 O.3    66  DC66       -0.3327
   1331  C3'       16.0390   13.8540   -1.0510 C.3    66  DC66        0.1558
   1332  O3'       16.3590   12.5050   -0.7610 O.3    66  DC66       -0.3138
   1333  C2'       15.3510   14.6050    0.0840 C.3    66  DC66        0.0866
   1334  C1'       15.5520   16.0340   -0.4170 C.3    66  DC66        0.2106
   1335  N1        14.4680   16.4340   -1.3940 N.ar   66  DC66       -0.2556
   1336  C2        13.2420   16.9160   -0.9210 C.ar   66  DC66        0.3531
   1337  O2        12.9770   16.7920    0.2870 O.2    66  DC66       -0.2443
   1338  N3        12.3830   17.5000   -1.7910 N.ar   66  DC66       -0.1739
   1339  C4        12.7100   17.6110   -3.0790 C.ar   66  DC66        0.1759
   1340  N4        11.8320   18.1940   -3.8980 N.pl3  66  DC66       -0.1070
   1341  C5        13.9470   17.1290   -3.5780 C.ar   66  DC66        0.0566
   1342  C6        14.7930   16.5530   -2.7160 C.ar   66  DC66        0.0849
   1343  P         15.4300   11.3790   -1.3380 P.3    67  DC67        0.2141
   1344  OP1       16.3880   10.2680   -1.0890 O.3    67  DC67       -0.4373
   1345  OP2       15.0300   11.6990   -2.7330 O.2    67  DC67       -0.5172
   1346  O5'       14.1170   11.1200   -0.4660 O.3    67  DC67       -0.3114
   1347  C5'       14.2160   10.5660    0.8660 C.3    67  DC67        0.1811
   1348  C4'       13.0120   10.9380    1.7120 C.3    67  DC67        0.1746
   1349  O4'       12.7720   12.3680    1.6270 O.3    67  DC67       -0.3327
   1350  C3'       11.6730   10.2930    1.3820 C.3    67  DC67        0.1558
   1351  O3'       11.5580    9.0330    2.0280 O.3    67  DC67       -0.3138
   1352  C2'       10.6810   11.2810    1.9800 C.3    67  DC67        0.0866
   1353  C1'       11.3840   12.6250    1.7600 C.3    67  DC67        0.2106
   1354  N1        10.8790   13.2140    0.4880 N.ar   67  DC67       -0.2556
   1355  C2         9.6730   13.9230    0.4860 C.ar   67  DC67        0.3531
   1356  O2         9.0040   13.9690    1.5330 O.2    67  DC67       -0.2443
   1357  N3         9.2700   14.5360   -0.6520 N.ar   67  DC67       -0.1739
   1358  C4        10.0200   14.4590   -1.7520 C.ar   67  DC67        0.1759
   1359  N4         9.5830   15.0790   -2.8510 N.pl3  67  DC67       -0.1070
   1360  C5        11.2450   13.7450   -1.7710 C.ar   67  DC67        0.0566
   1361  C6        11.6390   13.1410   -0.6440 C.ar   67  DC67        0.0849
   1362  P         10.5280    8.3990    1.7570 P.3    68  DC68        0.2141
   1363  OP1       10.7030    7.2150    2.6090 O.3    68  DC68       -0.4373
   1364  OP2       10.5930    8.1850    0.2860 O.2    68  DC68       -0.5172
   1365  O5'        9.1400    9.0830    2.1860 O.3    68  DC68       -0.3114
   1366  C5'        8.7170    9.1220    3.5630 C.3    68  DC68        0.1811
   1367  C4'        7.3970    9.8660    3.7080 C.3    68  DC68        0.1746
   1368  O4'        7.5040   11.1890    3.1420 O.3    68  DC68       -0.3327
   1369  C3'        6.2350    9.2860    2.9260 C.3    68  DC68        0.1558
   1370  O3'        5.6530    8.2910    3.6610 O.3    68  DC68       -0.3138
   1371  C2'        5.2630   10.4540    2.8530 C.3    68  DC68        0.0866
   1372  C1'        6.2620   11.5500    2.5440 C.3    68  DC68        0.2106
   1373  N1         6.3780   11.8410    1.1730 N.ar   68  DC68       -0.2556
   1374  C2         5.3490   12.5080    0.4970 C.ar   68  DC68        0.3531
   1375  O2         4.3370   12.8460    1.1340 O.2    68  DC68       -0.2443
   1376  N3         5.4860   12.7620   -0.8260 N.ar   68  DC68       -0.1739
   1377  C4         6.5900   12.3790   -1.4690 C.ar   68  DC68        0.1759
   1378  N4         6.6800   12.6510   -2.7730 N.pl3  68  DC68       -0.1070
   1379  C5         7.6440   11.7020   -0.8020 C.ar   68  DC68        0.0566
   1380  C6         7.5050   11.4530    0.5040 C.ar   68  DC68        0.0849
   1381  P          5.1240    7.1910    2.9800 P.3    69  DG69        0.2141
   1382  OP1        4.5240    5.9520    3.5290 O.3    69  DG69       -0.4373
   1383  OP2        5.8870    7.1790    1.7100 O.2    69  DG69       -0.5172
   1384  O5'        3.9750    8.2710    2.7300 O.3    69  DG69       -0.3114
   1385  C5'        3.1280    8.6400    3.8040 C.3    69  DG69        0.1811
   1386  C4'        2.0360    9.5390    3.3060 C.3    69  DG69        0.1746
   1387  O4'        2.6500   10.7440    2.7980 O.3    69  DG69       -0.3327
   1388  C3'        1.2690    9.0090    2.1080 C.3    69  DG69        0.1558
   1389  O3'        0.2600    8.0730    2.4310 O.3    69  DG69       -0.3138
   1390  C2'        0.7380   10.2880    1.4920 C.3    69  DG69        0.0865
   1391  C1'        1.9710   11.1710    1.6380 C.3    69  DG69        0.2094
   1392  N9         2.8830   11.0360    0.4360 N.ar   69  DG69       -0.2713
   1393  C8         4.1430   10.4890    0.4250 C.ar   69  DG69        0.1816
   1394  N7         4.6950   10.4900   -0.7580 N.ar   69  DG69       -0.2173
   1395  C5         3.7470   11.0730   -1.5780 C.ar   69  DG69        0.1748
   1396  C6         3.7720   11.3450   -2.9700 C.ar   69  DG69        0.3023
   1397  O6         4.6790   11.1120   -3.7800 O.2    69  DG69       -0.2633
   1398  N1         2.5950   11.9480   -3.4040 N.ar   69  DG69       -0.1709
   1399  C2         1.5250   12.2520   -2.5970 C.ar   69  DG69        0.2606
   1400  N2         0.4780   12.8330   -3.1970 N.pl3  69  DG69       -0.0859
   1401  N3         1.4870   12.0050   -1.3020 N.ar   69  DG69       -0.1918
   1402  C4         2.6190   11.4180   -0.8590 C.ar   69  DG69        0.1722
   1403  P          0.2280    7.0500    1.5760 P.3    70  DT70        0.2141
   1404  OP1       -0.6560    5.8720    1.7290 O.3    70  DT70       -0.4373
   1405  OP2        1.6450    6.8620    1.1970 O.2    70  DT70       -0.5172
   1406  O5'       -0.3460    8.0270    0.4420 O.3    70  DT70       -0.3114
   1407  C5'       -1.6050    8.6640    0.6080 C.3    70  DT70        0.1811
   1408  C4'       -2.2580    8.9780   -0.7170 C.3    70  DT70        0.1746
   1409  O4'       -1.4740    9.9750   -1.4200 O.3    70  DT70       -0.3327
   1410  C3'       -2.3860    7.8270   -1.7110 C.3    70  DT70        0.1558
   1411  O3'       -3.5030    6.9900   -1.4670 O.3    70  DT70       -0.3138
   1412  C2'       -2.4690    8.5490   -3.0500 C.3    70  DT70        0.0866
   1413  C1'       -1.5250    9.7300   -2.8130 C.3    70  DT70        0.2106
   1414  N1        -0.1340    9.3900   -3.2510 N.ar   70  DT70       -0.2559
   1415  C2         0.2140    9.7260   -4.5450 C.ar   70  DT70        0.3545
   1416  O2        -0.5200   10.3520   -5.2890 O.2    70  DT70       -0.2443
   1417  N3         1.4590    9.3010   -4.9420 N.ar   70  DT70       -0.1533
   1418  C4         2.3710    8.5890   -4.1900 C.ar   70  DT70        0.2804
   1419  O4         3.4510    8.2780   -4.6850 O.2    70  DT70       -0.2654
   1420  C5         1.9360    8.2770   -2.8580 C.ar   70  DT70        0.0534
   1421  C6         0.7300    8.6790   -2.4470 C.ar   70  DT70        0.0824
   1422  C7         2.8570    7.5040   -1.9620 C.3    70  DT70        0.0377
   1423  P         -3.5350    5.4040   -2.0170 P.3    71  DA71        0.2141
   1424  OP1       -4.5210    4.2860   -2.0720 O.2    71  DA71       -0.5172
   1425  OP2       -2.1740    5.1710   -1.4860 O.3    71  DA71       -0.4373
   1426  O5'       -3.3880    6.0600   -3.4730 O.3    71  DA71       -0.3114
   1427  C5'       -4.5560    6.3710   -4.2660 C.3    71  DA71        0.1812
   1428  C4'       -4.2210    6.4890   -5.7510 C.3    71  DA71        0.1775
   1429  O4'       -3.1760    7.4880   -5.9540 O.3    71  DA71       -0.3326
   1430  C3'       -3.6450    5.2530   -6.4210 C.3    71  DA71        0.1859
   1431  O3'       -4.6240    4.3290   -6.8230 O.3    71  DA71       -0.2203
   1432  C2'       -2.9250    5.8250   -7.6250 C.3    71  DA71        0.0894
   1433  C1'       -2.3680    7.1240   -7.0640 C.3    71  DA71        0.2095
   1434  N9        -0.9820    6.9140   -6.6600 N.ar   71  DA71       -0.2714
   1435  C8        -0.5070    6.7620   -5.3830 C.ar   71  DA71        0.1815
   1436  N7         0.8020    6.7070   -5.3090 N.ar   71  DA71       -0.2193
   1437  C5         1.2140    6.8300   -6.6260 C.ar   71  DA71        0.1518
   1438  C6         2.4880    6.8460   -7.2210 C.ar   71  DA71        0.1919
   1439  N6         3.6270    6.7350   -6.5330 N.pl3  71  DA71       -0.1054
   1440  N1         2.5510    6.9830   -8.5630 N.ar   71  DA71       -0.2040
   1441  C2         1.4100    7.0950   -9.2510 C.ar   71  DA71        0.2016
   1442  N3         0.1560    7.0950   -8.8060 N.ar   71  DA71       -0.2048
   1443  C4         0.1270    6.9570   -7.4700 C.ar   71  DA71        0.1691
   1444  P         -6.3400    2.5210   -7.3480 P.3    72  DT72        0.5411
   1445  OP1       -5.7310    1.3320   -6.6950 O.2    72  DT72       -0.2272
   1446  OP2       -6.5680    3.7610   -6.5560 O.2    72  DT72       -0.2272
   1447  O5'       -5.4820    2.9190   -8.6320 O.3    72  DT72       -0.2722
   1448  C5'       -4.0920    3.1720   -8.5090 C.3    72  DT72        0.1850
   1449  C4'       -3.4100    3.1030   -9.8540 C.3    72  DT72        0.1755
   1450  O4'       -3.6260    4.3480  -10.5770 O.3    72  DT72       -0.3510
   1451  C3'       -1.9000    3.0020   -9.7220 C.3    72  DT72        0.1839
   1452  O3'       -1.4910    1.6550   -9.5370 O.3    72  DT72       -0.2204
   1453  C2'       -1.3970    3.6470  -11.0050 C.3    72  DT72        0.0676
   1454  C1'       -2.4140    4.7760  -11.1840 C.3    72  DT72        0.1450
   1455  N1        -0.0500    3.4050   -9.3090 N.2    72  DT72       -0.1608
   1456  C2         1.1710    3.2620   -9.9390 C.1    72  DT72        0.2395
   1457  O2         1.2950    3.2290  -11.1500 O.2    72  DT72       -0.2041
   1458  N3         2.2510    3.1550   -9.0950 N.am   72  DT72       -0.0881
   1459  C4         2.2310    3.1780   -7.7160 C.2    72  DT72        0.2768
   1460  O4         3.2860    3.0720   -7.0940 O.2    72  DT72       -0.2676
   1461  C5         0.9260    3.3290   -7.1370 C.2    72  DT72        0.0541
   1462  C6        -0.1410    3.4340   -7.9340 C.2    72  DT72        0.1126
   1463  C7         0.8000    3.3640   -5.6430 C.3    72  DT72        0.0376
@<TRIPOS>BOND
     1   350   349    2
     2   351   349   ar
     3   351   352   ar
     4   787   788    1
     5   787   786    1
     6   784   783    2
     7   349   348   ar
     8   353   352    2
     9   772   783    1
    10   772   771    1
    11   788   789    1
    12   788   790    1
    13   352   354   ar
    14   804   803    1
    15   807   806    1
    16   807   808    1
    17   783   786    1
    18   783   785    1
    19   791   806    1
    20   791   790    1
    21   769   770    1
    22   769   771    1
    23   769   768    1
    24   348   347    1
    25   348   355   ar
    26   789   793    1
    27   770   774    1
    28   771   773    1
    29   790   792    1
    30   808   809    1
    31   808   810    1
    32   774   773    1
    33   774   775    1
    34   803   805    2
    35   347   346    1
    36   347   343    1
    37   354   355   ar
    38   354   356    1
    39   768   767    1
    40   777   776    2
    41   379   378    2
    42   792   793    1
    43   793   794    1
    44   824   823    2
    45   811   810    1
    46   811   823    1
    47   346   344    1
    48   809   813    1
    49   365   378    1
    50   365   364    1
    51   362   363    1
    52   362   361    1
    53   362   364    1
    54   343   342    1
    55   810   812    1
    56   775   776   ar
    57   775   782   ar
    58   363   367    1
    59   378   381    1
    60   378   380    1
    61   776   778   ar
    62   761   762   ar
    63   761   760   ar
    64   823   825    1
    65   823   826    1
    66   765   764    2
    67   361   360    1
    68   381   382    1
    69   767   764    1
    70   364   366    1
    71   382   383    1
    72   762   763   ar
    73   794   801   ar
    74   794   795   ar
    75   813   812    1
    76   813   814    1
    77   760   758   ar
    78   344   342    1
    79   344   345    1
    80   342   341    1
    81   367   366    1
    82   367   368    1
    83   801   800   ar
    84   383   384    1
    85   383   385    1
    86   752   753    1
    87   752   750    1
    88   796   795    2
    89   782   781   ar
    90   764   751    1
    91   764   766    1
    92   778   779   ar
    93   827   826    1
    94   827   828    1
    95   384   388    1
    96   795   797   ar
    97   821   814   ar
    98   821   820   ar
    99   345   357    1
   100   751   750    1
   101   360   357    1
   102   814   815   ar
   103   376   377   ar
   104   376   375   ar
   105  1286  1285    2
   106   763   754   ar
   107   763   757   ar
   108   368   377   ar
   109   368   369   ar
   110   753   754    1
   111   753   749    1
   112   358   357    2
   113  1264  1263    2
   114   386   385    1
   115   386   398    1
   116   758   757   ar
   117   758   759    1
   118   750   748    1
   119   341   340    1
   120  1454  1453    1
   121  1454  1450    1
   122   800   802    1
   123   800   798   ar
   124  1457  1456    2
   125   822   820    1
   126   357   359    1
   127   781   779   ar
   128   385   387    1
   129   340   337    1
   130   377   371   ar
   131   399   398    2
   132  1453  1451    1
   133   779   780    1
   134   820   818   ar
   135   754   755   ar
   136   375   374   ar
   137   757   756   ar
   138   388   387    1
   139   388   389    1
   140   338   337    2
   141   828   829    1
   142   828   830    1
   143   797   798   ar
   144   369   370   ar
   145  1450  1449    1
   146   815   816    2
   147   815   817   ar
   148   749   748    1
   149   829   833    1
   150   748   747    1
   151   398   400    1
   152   398   401    1
   153   798   799    2
   154  1285  1271    1
   155  1285  1287    1
   156  1285  1288    1
   157  1271  1270    1
   158   396   389   ar
   159   396   395   ar
   160   337   326    1
   161   337   339    1
   162  1267  1268    1
   163  1267  1266    1
   164  1263  1249    1
   165  1263  1266    1
   166  1263  1265    1
   167  1305  1304    2
   168  1456  1455    2
   169  1456  1458   am
   170  1449  1451    1
   171  1449  1448    1
   172  1249  1248    1
   173   371   370   ar
   174   371   372   ar
   175   389   390   ar
   176   397   395    1
   177  1451  1452    1
   178   755   756   ar
   179  1289  1288    1
   180  1289  1290    1
   181   818   817   ar
   182   818   819    2
   183   374   372   ar
   184   830   831    1
   185   830   832    1
   186   841   840   ar
   187   841   834   ar
   188  1268  1270    1
   189  1268  1269    1
   190   402   401    1
   191   402   403    1
   192  1455  1462    1
   193   831   842    1
   194   395   393   ar
   195   621   620    2
   196  1441  1442   ar
   197  1441  1440   ar
   198   326   325    1
   199  1458  1459   am
   200  1270  1272    1
   201  1304  1306    1
   202  1304  1293    1
   203  1304  1307    1
   204   833   834    1
   205   833   832    1
   206   747   746    1
   207   372   373    1
   208   840   838   ar
   209  1442  1443   ar
   210   843   842    2
   211  1293  1292    1
   212  1447  1448    1
   213  1447  1444    1
   214   834   835   ar
   215   746   743    1
   216   844   842    1
   217  1440  1438   ar
   218   327   325    1
   219   327   328    1
   220   390   391    2
   221   390   392   ar
   222  1290  1292    1
   223  1290  1291    1
   224   624   625    1
   225   624   623    1
   226  1248  1246    1
   227  1248  1250    1
   228   737   736    2
   229   642   641    2
   230   842   845    1
   231  1246  1245    1
   232  1246  1247    1
   233   403   404    1
   234   403   405    1
   235   607   620    1
   236   607   606    1
   237   738   736   ar
   238   738   739   ar
   239   325   323    1
   240  1250  1251    1
   241  1245  1244    1
   242  1269  1273    1
   243   393   392   ar
   244   393   394    2
   245  1462  1461    2
   246   331   330    2
   247   620   623    1
   248   620   622    1
   249  1292  1294    1
   250  1272  1273    1
   251   404   408    1
   252  1242  1241    2
   253   740   739    1
   254  1459  1461    1
   255  1459  1460    2
   256   625   627    1
   257   625   626    1
   258   736   735   ar
   259   628   641    1
   260   628   627    1
   261  1432  1433    1
   262  1432  1430    1
   263   838   839    1
   264   838   837   ar
   265  1307  1308    1
   266   323   324    1
   267   323   322    1
   268  1443  1434   ar
   269  1443  1437   ar
   270   328   324    1
   271   328   329    1
   272   603   604    1
   273   603   602    1
   274  1444  1445    2
   275  1444  1446    2
   276  1291  1295    1
   277   641   643    1
   278   641   644    1
   279   739   741   ar
   280   835   837   ar
   281   835   836    2
   282   745   743    2
   283   604   606    1
   284   604   605    1
   285  1308  1309    1
   286  1438  1437   ar
   287  1438  1439    1
   288  1461  1463    1
   289  1273  1274    1
   290   743   744    1
   291   743   732    1
   292   600   599    2
   293  1433  1434    1
   294  1433  1429    1
   295   606   608    1
   296  1247  1251    1
   297   627   629    1
   298   405   406    1
   299   405   407    1
   300   417   415    1
   301  1244  1241    1
   302  1431  1430    1
   303   845   846    1
   304  1251  1252    1
   305   330   329   ar
   306   330   332   ar
   307   733   734    1
   308   733   731    1
   309   626   630    1
   310  1434  1435   ar
   311  1437  1436   ar
   312   416   415   ar
   313   416   409   ar
   314   608   609    1
   315   406   418    1
   316   322   321    1
   317  1241  1229    1
   318  1241  1243    1
   319   329   336   ar
   320  1294  1295    1
   321   160   159    2
   322   735   734    1
   323   735   742   ar
   324  1430  1428    1
   325  1323  1321    1
   326   419   418    2
   327   408   409    1
   328   408   407    1
   329   644   645    1
   330   846   847    1
   331   146   159    1
   332   146   145    1
   333   602   599    1
   334   415   413   ar
   335   605   609    1
   336  1295  1296    1
   337  1275  1274   ar
   338  1275  1276   ar
   339   420   418    1
   340  1303  1302   ar
   341  1303  1296   ar
   342  1274  1284   ar
   343   741   742   ar
   344   418   421    1
   345   734   730    1
   346   409   410   ar
   347   162   159    1
   348   162   163    1
   349  1326  1324    2
   350  1429  1428    1
   351   599   585    1
   352   599   601    1
   353   732   731    1
   354   585   584    1
   355   332   333   ar
   356  1229  1228    1
   357   629   630    1
   358  1309  1311    1
   359  1309  1310    1
   360  1428  1427    1
   361   609   610    1
   362   731   729    1
   363   143   142    1
   364   143   145    1
   365   143   144    1
   366   159   161    1
   367  1252  1253   ar
   368  1252  1262   ar
   369  1325  1324    1
   370   142   141    1
   371   630   631    1
   372  1312  1311    1
   373  1312  1324    1
   374  1302  1300   ar
   375  1296  1297   ar
   376  1435  1436   ar
   377   721   720    1
   378   859   860   ar
   379   859   857   ar
   380   645   646    1
   381   145   147    1
   382   321   318    1
   383   163   164    1
   384  1416  1415    2
   385   336   335   ar
   386   147   148    1
   387  1311  1313    1
   388   311   310    2
   389  1261  1262   ar
   390  1261  1259   ar
   391  1324  1327    1
   392   860   853   ar
   393   586   584    1
   394   586   587    1
   395  1321  1322   ar
   396  1321  1319   ar
   397  1276  1277   ar
   398  1322  1315   ar
   399  1310  1314    1
   400   413   414    2
   401   413   412   ar
   402   664   663    2
   403  1417  1415   ar
   404  1417  1418   ar
   405   847   848    1
   406   847   849    1
   407  1253  1254   ar
   408   848   852    1
   409  1262  1255   ar
   410   410   412   ar
   411   410   411    2
   412   144   148    1
   413  1284  1283    1
   414  1284  1277   ar
   415   164   165    1
   416   164   166    1
   417  1230  1228    1
   418  1230  1231    1
   419   584   582    1
   420   139   138    2
   421  1419  1418    2
   422   582   583    1
   423   582   581    1
   424   333   335   ar
   425   333   334    1
   426   730   729    1
   427  1228  1226    1
   428  1415  1414   ar
   429   421   422    1
   430   148   149    1
   431  1260  1259    1
   432   632   631   ar
   433   632   633   ar
   434   719   720   ar
   435   719   717   ar
   436   858   857    1
   437   729   728    1
   438   631   640   ar
   439  1283  1281    1
   440   720   722   ar
   441  1259  1258   ar
   442   646   647    1
   443   646   648    1
   444   610   611   ar
   445   610   619   ar
   446   319   318    2
   447   665   663    1
   448   863   861    2
   449   179   178    2
   450  1427  1426    1
   451   857   856   ar
   452  1277  1278    1
   453   310   312   ar
   454   310   309   ar
   455  1418  1420   ar
   456   167   166    1
   457   167   178    1
   458   587   583    1
   459   587   588    1
   460   165   169    1
   461   141   138    1
   462   422   423    1
   463   127   138    1
   464   127   126    1
   465  1226  1227    1
   466  1226  1225    1
   467  1297  1298    2
   468  1297  1299   ar
   469  1300  1299   ar
   470  1300  1301    1
   471   312   313   ar
   472   318   320    1
   473   318   306    1
   474   849   850    1
   475   849   851    1
   476   663   649    1
   477   663   666    1
   478   128   126    1
   479   128   129    1
   480   853   852    1
   481   853   854   ar
   482  1340  1339    1
   483  1319  1320    2
   484  1319  1318   ar
   485   307   308    1
   486   307   305    1
   487  1254  1255   ar
   488  1314  1315    1
   489  1314  1313    1
   490  1315  1316   ar
   491   700   699    1
   492  1255  1256   ar
   493   138   140    1
   494   581   580    1
   495  1397  1396    2
   496   618   619   ar
   497   618   617   ar
   498   596   595    1
   499   647   651    1
   500   166   168    1
   501  1327  1328    1
   502  1231  1227    1
   503  1231  1232    1
   504   852   851    1
   505  1341  1339   ar
   506  1341  1342   ar
   507   611   612   ar
   508   718   717    2
   509   850   861    1
   510   649   648    1
   511   597   595   ar
   512   597   598   ar
   513   178   180    1
   514   178   181    1
   515  1426  1423    1
   516   717   716   ar
   517   619   613   ar
   518  1398  1396   ar
   519  1398  1399   ar
   520   633   634   ar
   521  1234  1233    2
   522   126   124    1
   523  1258  1256   ar
   524   308   309    1
   525   308   304    1
   526  1414  1413    1
   527  1414  1421   ar
   528   124   125    1
   529   124   123    1
   530   424   423    1
   531   424   428    1
   532   861   862    1
   533   861   864    1
   534  1400  1399    1
   535   727   728    1
   536   727   724    1
   537   722   723   ar
   538   132   131    2
   539   129   125    1
   540   129   130    1
   541   648   650    1
   542   309   316   ar
   543  1281  1282    1
   544  1281   964    1
   545  1281  1280    1
   546   149   150   ar
   547   149   158   ar
   548   877   876    2
   549  1225  1224    1
   550   169   168    1
   551   169   170    1
   552  1339  1338   ar
   553   856   854   ar
   554  1412  1413    1
   555  1412  1410    1
   556   640   639   ar
   557   640   634   ar
   558   423   425    1
   559   595   594   ar
   560   436   435   ar
   561   436   429   ar
   562  1396  1395   ar
   563   435   433   ar
   564   306   305    1
   565  1256  1257    2
   566  1007  1006   ar
   567  1007  1008   ar
   568   997   998    1
   569   997   995    1
   570  1278  1280    1
   571  1278  1279    2
   572   313   314    2
   573   313   315   ar
   574  1420  1421   ar
   575  1420  1422    1
   576  1359  1358    1
   577   854   855    2
   578  1413  1409    1
   579   588   598   ar
   580   588   589   ar
   581  1014  1015    1
   582  1014  1013    1
   583  1014  1016    1
   584  1015  1019    1
   585  1378  1377    1
   586  1345  1343    2
   587   998   994    1
   588   998   999    1
   589  1342  1335   ar
   590  1318  1316   ar
   591   617   616   ar
   592   965  1282    1
   593   965   964    1
   594   965   966    2
   595  1006  1005   ar
   596   874   873   ar
   597   874   875   ar
   598  1316  1317    2
   599   305   303    1
   600  1399  1401   ar
   601   699   701   ar
   602   699   698   ar
   603   666   667    1
   604   598   591   ar
   605   578   577    2
   606  1019  1018    1
   607  1019  1020    1
   608  1328  1329    1
   609  1012  1013    1
   610  1012  1009    1
   611  1018  1016    1
   612   157   158   ar
   613   157   156   ar
   614   580   577    1
   615   639   638   ar
   616   964  1280    1
   617   964   962    1
   618  1233  1232   ar
   619  1233  1235   ar
   620  1280   962    1
   621   634   635   ar
   622   996   995    1
   623   996  1009    1
   624   651   650    1
   625   651   652    1
   626   899   898    2
   627   150   151   ar
   628  1232  1239   ar
   629   123   122    1
   630   716   723   ar
   631   716   715    1
   632   994   993    1
   633   993   995    1
   634   993   992    1
   635  1017  1016    1
   636  1017  1030    1
   637   612   613   ar
   638   182   181    1
   639   182   183    1
   640   726   724    2
   641   158   152   ar
   642   613   614   ar
   643   653   652   ar
   644   653   654   ar
   645   701   702   ar
   646  1424  1423    2
   647   131   130   ar
   648   131   133   ar
   649   876   875   ar
   650   876   878   ar
   651  1423  1425    1
   652  1423  1411    1
   653   316   315   ar
   654  1224  1221    1
   655   428   429    1
   656   428   427    1
   657   304   303    1
   658   697   698   ar
   659   697   696   ar
   660   429   430   ar
   661   686   684    2
   662   130   137   ar
   663   864   865    1
   664  1008   999   ar
   665  1008  1002   ar
   666  1031  1030    2
   667   921   920    1
   668   981   980    2
   669   724   725    1
   670   724   713    1
   671   873   872   ar
   672   177   170   ar
   673   177   176   ar
   674   303   302    1
   675   315   317    1
   676   433   434    1
   677   433   432   ar
   678   966   967    1
   679   999  1000   ar
   680  1338  1336   ar
   681   698   704   ar
   682  1360  1358   ar
   683  1360  1361   ar
   684   875   882   ar
   685   170   171   ar
   686  1358  1357   ar
   687  1410  1411    1
   688  1410  1408    1
   689   667   668    1
   690   594   592   ar
   691  1222  1221    2
   692   652   662   ar
   693  1034  1035    1
   694  1034  1033    1
   695   714   715    1
   696   714   712    1
   697   425   426    1
   698   425   427    1
   699   589   590   ar
   700   577   565    1
   701   577   579    1
   702  1005  1003   ar
   703  1395  1402   ar
   704  1395  1394   ar
   705  1010  1009    2
   706  1377  1376   ar
   707  1377  1379   ar
   708  1235  1236   ar
   709   943   944   ar
   710   943   941   ar
   711   112   111    2
   712   616   614   ar
   713  1409  1408    1
   714  1009  1011    1
   715  1239  1238   ar
   716  1335  1336   ar
   717  1335  1334    1
   718   942   941    1
   719   156   155   ar
   720  1343  1344    1
   721  1343  1332    1
   722  1343  1346    1
   723   715   711    1
   724  1401  1402   ar
   725   654   655   ar
   726   992   991    1
   727   591   592   ar
   728   591   590   ar
   729  1030  1033    1
   730  1030  1032    1
   731   898   900   ar
   732   898   897   ar
   733  1329  1331    1
   734  1329  1330    1
   735   962   963    1
   736   962   961    1
   737  1020  1029   ar
   738  1020  1021   ar
   739   614   615    1
   740   638   637   ar
   741   122   119    1
   742   151   152   ar
   743   566   564    1
   744   566   567    1
   745  1331  1332    1
   746  1331  1333    1
   747   570   569    2
   748  1330  1334    1
   749   565   564    1
   750   635   637   ar
   751   635   636    1
   752  1028  1029   ar
   753  1028  1027   ar
   754   152   153   ar
   755   426   437    1
   756  1221  1223    1
   757  1221  1209    1
   758  1035  1036    1
   759  1035  1037    1
   760   133   134   ar
   761  1336  1337    2
   762   922   920   ar
   763   922   923   ar
   764   702   703   ar
   765   712   713    1
   766   712   710    1
   767   183   185    1
   768   183   184    1
   769   430   432   ar
   770   430   431    2
   771   200   199    2
   772   696   695   ar
   773  1402  1392   ar
   774   878   879   ar
   775   201   199    1
   776   944   945   ar
   777  1376  1374   ar
   778  1379  1380   ar
   779   896   897   ar
   780   896   895   ar
   781   920   919   ar
   782   980   982   ar
   783   980   979   ar
   784   941   940   ar
   785  1394  1393   ar
   786  1002  1003   ar
   787  1002  1001   ar
   788   176   174   ar
   789   137   136   ar
   790   592   593    2
   791  1036  1040    1
   792   707   705    2
   793   108   109    1
   794   108   106    1
   795  1408  1407    1
   796  1357  1355   ar
   797  1361  1354   ar
   798   865   866    1
   799  1029  1023   ar
   800  1003  1004    1
   801  1000  1001   ar
   802   295   294    1
   803   684   685    1
   804   684   671    1
   805   684   687    1
   806   967   961   ar
   807   967   958   ar
   808   704   703   ar
   809   704   695   ar
   810    96    95    1
   811   171   172    2
   812   171   173   ar
   813   872   882   ar
   814   872   871    1
   815   900   901   ar
   816  1346  1347    1
   817   882   881   ar
   818   897   904   ar
   819  1238  1236   ar
   820  1238  1240    1
   821  1021  1022   ar
   822  1236  1237    2
   823   676   675   ar
   824   676   677   ar
   825  1334  1333    1
   826   186   199    1
   827   186   185    1
   828   302   301    1
   829   662   655   ar
   830   662   661   ar
   831   293   294   ar
   832   293   291   ar
   833   675   674   ar
   834   109   105    1
   835   109   110    1
   836   668   670    1
   837   668   669    1
   838   111   110   ar
   839   111   113   ar
   840   982   983   ar
   841  1027  1026   ar
   842   120   119    2
   843   564   562    1
   844   978   979    1
   845   978   977    1
   846   978   974    1
   847   199   202    1
   848   961   960   ar
   849   655   656   ar
   850   185   187    1
   851   155   153   ar
   852   569   571   ar
   853   569   568   ar
   854  1209  1208    1
   855   292   291    2
   856   867   866    1
   857   867   871    1
   858   670   671    1
   859   670   672    1
   860   567   568    1
   861   567   563    1
   862   711   710    1
   863   184   188    1
   864   107   119    1
   865   107   106    1
   866   979   986   ar
   867   695   694    1
   868   991   988    1
   869   687   688    1
   870   708   705    1
   871   708   709    1
   872   153   154    1
   873   294   296   ar
   874   119   121    1
   875   885   883    2
   876   977   975    1
   877   923   924   ar
   878   439   437    2
   879   301   298    1
   880  1210  1208    1
   881  1210  1211    1
   882   134   136   ar
   883   134   135    1
   884   895   894   ar
   885  1364  1362    2
   886   669   673    1
   887   291   290   ar
   888   190   191   ar
   889   190   189   ar
   890   437   438    1
   891   437   440    1
   892   710   709    1
   893   879   881   ar
   894   879   880    1
   895  1023  1022   ar
   896  1023  1024   ar
   897   974   973    1
   898   106   104    1
   899  1393  1392   ar
   900   945   946   ar
   901   273   272    2
   902  1392  1391    1
   903  1040  1039    1
   904  1040  1041    1
   905   571   572   ar
   906  1406  1407    1
   907  1406  1403    1
   908   705   706    1
   909   705   692    1
   910  1038  1037    1
   911  1038  1052    1
   912   866   868    1
   913   105   104    1
   914   110   117   ar
   915   113   114   ar
   916  1037  1039    1
   917   919   918   ar
   918   919   925   ar
   919   174   173   ar
   920   174   175    1
   921  1355  1354   ar
   922  1355  1356    2
   923   568   575   ar
   924  1354  1353    1
   925  1374  1375    2
   926  1374  1373   ar
   927  1380  1373   ar
   928   661   659   ar
   929  1214  1213    2
   930   871   870    1
   931   958   957    1
   932   958   959   ar
   933   940   946   ar
   934   940   939   ar
   935   957   956    1
   936   957   953    1
   937   104   103    1
   938   562   563    1
   939   562   561    1
   940   679   678    1
   941  1026  1024   ar
   942    95    94   ar
   943    95    97   ar
   944   677   678   ar
   945   677   683   ar
   946   191   192   ar
   947   901   902    1
   948   901   903   ar
   949   300   298    2
   950   674   673    1
   951   674   683   ar
   952   904   894   ar
   953   904   903   ar
   954  1208  1206    1
   955  1347  1348    1
   956   918   917   ar
   957   983   984    2
   958   983   985   ar
   959   868   870    1
   960   868   869    1
   961   988   976    1
   962   988   989    2
   963   988   990    1
   964   973   975    1
   965   973   972    1
   966   956   954    1
   967   946   937   ar
   968   440   441    1
   969   656   657    2
   970   656   658   ar
   971  1024  1025    1
   972   550   549    2
   973   976   975    1
   974  1373  1372    1
   975   960   959   ar
   976  1405  1403    2
   977   672   673    1
   978    94    92   ar
   979  1042  1041   ar
   980  1042  1043   ar
   981   188   189    1
   982   188   187    1
   983  1041  1051   ar
   984   691   692    1
   985   691   693    1
   986   691   689    1
   987   986   985   ar
   988   189   198   ar
   989   202   203    1
   990  1211  1212    1
   991  1211  1207    1
   992   894   893    1
   993   296   297   ar
   994  1213  1215   ar
   995  1213  1212   ar
   996   678   680   ar
   997  1350  1348    1
   998  1350  1352    1
   999  1350  1351    1
  1000    14    13    1
  1001   272   274   ar
  1002   272   271   ar
  1003   924   925   ar
  1004   688   689    1
  1005   298   287    1
  1006   298   299    1
  1007  1390  1391    1
  1008  1390  1388    1
  1009   572   573    2
  1010   572   574   ar
  1011   274   275   ar
  1012   925   916   ar
  1013   290   297   ar
  1014   290   289    1
  1015   694   693    1
  1016   694   690    1
  1017   939   938   ar
  1018   575   574   ar
  1019   883   869    1
  1020   883   886    1
  1021   883   884    1
  1022   288   289    1
  1023   288   286    1
  1024    97    98   ar
  1025  1403  1404    1
  1026  1403  1389    1
  1027   683   682   ar
  1028  1053  1052    2
  1029  1349  1348    1
  1030  1349  1353    1
  1031   953   952    1
  1032  1391  1387    1
  1033   659   658   ar
  1034   659   660    1
  1035  1383  1381    2
  1036  1362  1351    1
  1037  1362  1365    1
  1038  1362  1363    1
  1039   985   987    1
  1040  1353  1352    1
  1041  1215  1216   ar
  1042  1052  1054    1
  1043  1052  1055    1
  1044   117   116   ar
  1045   114   115    2
  1046   114   116   ar
  1047   690   689    1
  1048  1212  1219   ar
  1049    11    12   ar
  1050    11    10   ar
  1051   454   455   ar
  1052   454   452   ar
  1053  1206  1207    1
  1054  1206  1205    1
  1055   561   560    1
  1056   103   102    1
  1057   441   442    1
  1058   574   576    1
  1059  1388  1389    1
  1060  1388  1386    1
  1061   203   204    1
  1062    13    12   ar
  1063    13    15   ar
  1064   192   198   ar
  1065   192   193   ar
  1066   453   452    1
  1067  1365  1366    1
  1068   289   285    1
  1069  1043  1044   ar
  1070   917   916   ar
  1071   886   887    1
  1072   549   551   ar
  1073   549   548   ar
  1074   972   971    1
  1075    12    18   ar
  1076  1051  1050   ar
  1077  1051  1044   ar
  1078   455   448   ar
  1079   287   286    1
  1080   937   938   ar
  1081   937   936    1
  1082    10     9   ar
  1083   220   218    2
  1084   551   552   ar
  1085   286   284    1
  1086   276   275    1
  1087   198   197   ar
  1088   116   118    1
  1089  1372  1371    1
  1090  1372  1368    1
  1091   275   277   ar
  1092   452   451   ar
  1093   954   952    1
  1094   954   955    1
  1095   271   270   ar
  1096   271   278   ar
  1097   680   681   ar
  1098    92    93    2
  1099    92    91   ar
  1100   916   915    1
  1101   216   217   ar
  1102   216   214   ar
  1103   546   547    1
  1104   546   544    1
  1105  1216  1217    2
  1106  1216  1218   ar
  1107   952   951    1
  1108  1384  1381    1
  1109  1384  1385    1
  1110  1050  1048   ar
  1111   893   889    1
  1112   893   892    1
  1113    15    16   ar
  1114   560   545    1
  1115   889   888    1
  1116  1387  1386    1
  1117  1219  1218   ar
  1118   682   681   ar
  1119  1371  1369    1
  1120   534   533    1
  1121    98    91   ar
  1122    98    88   ar
  1123   270   269   ar
  1124  1044  1045   ar
  1125  1369  1370    1
  1126  1369  1367    1
  1127   443   442    1
  1128   443   447    1
  1129  1381  1382    1
  1130  1381  1370    1
  1131   102    99    1
  1132  1055  1056    1
  1133   215   214    1
  1134   194   193    1
  1135   217   210   ar
  1136   971   968    1
  1137    35    34    2
  1138    18     9   ar
  1139    18    17   ar
  1140   547   548    1
  1141   547   543    1
  1142  1368  1367    1
  1143  1205  1204    1
  1144     9     8    1
  1145   955   968    1
  1146  1056  1057    1
  1147  1218  1220    1
  1148   253   252    2
  1149   193   195   ar
  1150   936   935    1
  1151   936   932    1
  1152   442   444    1
  1153  1386  1385    1
  1154   448   447    1
  1155   448   449   ar
  1156   548   555   ar
  1157    91    90   ar
  1158   887   888    1
  1159    16    17   ar
  1160    86    87    1
  1161    86    84    1
  1162  1204  1201    1
  1163   214   213   ar
  1164   451   449   ar
  1165   285   284    1
  1166  1366  1367    1
  1167   204   206    1
  1168   204   205    1
  1169   278   277   ar
  1170   278   268   ar
  1171   552   553    2
  1172   552   554   ar
  1173   197   196   ar
  1174   935   933    1
  1175   907   905    2
  1176   218   219    1
  1177   218   207    1
  1178   218   221    1
  1179   532   533   ar
  1180   532   530   ar
  1181   892   890    1
  1182   234   233    1
  1183   545   544    1
  1184   888   890    1
  1185  1048  1049    1
  1186  1048  1047   ar
  1187   284   283    1
  1188    87    88    1
  1189    87    83    1
  1190   890   891    1
  1191   447   446    1
  1192  1198  1049    1
  1193  1198  1197    2
  1194   968   970    2
  1195   968   969    1
  1196   206   207    1
  1197   206   208    1
  1198   915   911    1
  1199   915   914    1
  1200   533   535   ar
  1201    88    89   ar
  1202   544   542    1
  1203   449   450    2
  1204     4     8    1
  1205     4     3    1
  1206   205   209    1
  1207   951   950    1
  1208  1058  1057    1
  1209  1058  1062    1
  1210  1045  1047   ar
  1211  1045  1046    2
  1212   269   268   ar
  1213   558   557    1
  1214    34    33   ar
  1215    34    36   ar
  1216   256   254    1
  1217   557   559    2
  1218     8     7    1
  1219  1057  1059    1
  1220    33    31   ar
  1221  1049  1196    1
  1222  1049  1197    1
  1223  1202  1201    2
  1224   252   254   ar
  1225   252   251   ar
  1226   475   473    1
  1227   235   233   ar
  1228   235   236   ar
  1229   950   947    1
  1230   444   446    1
  1231   444   445    1
  1232   282   283    1
  1233   282   279    1
  1234   531   530    2
  1235   543   542    1
  1236   472   471    2
  1237   210   209    1
  1238   210   211   ar
  1239   195   196   ar
  1240   932   931    1
  1241    74    73    1
  1242  1196  1194   am
  1243   281   279    2
  1244   268   267    1
  1245    55    54    1
  1246     2     1    1
  1247     2     3    1
  1248   555   554   ar
  1249    99   100    2
  1250    99    85    1
  1251    99   101    1
  1252   911   910    1
  1253  1197  1199    1
  1254  1201  1203    1
  1255  1201  1187    1
  1256   530   529   ar
  1257   233   232   ar
  1258   542   541    1
  1259   554   556    1
  1260   458   456    2
  1261    72    73   ar
  1262    72    70   ar
  1263   914   912    1
  1264    90    89   ar
  1265  1064  1065   ar
  1266  1064  1063   ar
  1267   213   211   ar
  1268   221   222    1
  1269    85    84    1
  1270    84    82    1
  1271   254   255   ar
  1272   209   208    1
  1273   933   931    1
  1274   933   934    1
  1275   891   905    1
  1276  1195  1194    2
  1277   905   908    1
  1278   905   906    1
  1279    83    82    1
  1280    38    36    1
  1281    71    70    2
  1282     3     5    1
  1283   535   536   ar
  1284   251   249   ar
  1285    36    37   ar
  1286   908   909    1
  1287  1062  1063    1
  1288  1062  1061    1
  1289  1065  1066   ar
  1290  1194  1193    1
  1291   279   280    1
  1292   279   265    1
  1293    73    75   ar
  1294  1063  1072   ar
  1295    31    32    2
  1296    31    30   ar
  1297   211   212    2
  1298   236   229   ar
  1299   471   473   ar
  1300   471   470   ar
  1301    53    54   ar
  1302    53    51   ar
  1303  1199  1200    1
  1304   473   474   ar
  1305   445   456    1
  1306   239   226    1
  1307   239   237    1
  1308  1187  1186    1
  1309    54    56   ar
  1310    70    69   ar
  1311    82    81    1
  1312   931   930    1
  1313   912   910    1
  1314   912   913    1
  1315   266   264    1
  1316   266   267    1
  1317  1059  1060    1
  1318  1059  1061    1
  1319   264   265    1
  1320   264   262    1
  1321     7     5    1
  1322   267   263    1
  1323   492   491    1
  1324   910   909    1
  1325   934   947    1
  1326   456   457    1
  1327   456   459    1
  1328   928   926    2
  1329   947   949    2
  1330   947   948    1
  1331   232   230   ar
  1332   529   536   ar
  1333   529   528   ar
  1334   929   930    1
  1335   929   926    1
  1336  1066  1072   ar
  1337  1066  1067   ar
  1338     5     6    1
  1339   511   510    2
  1340   536   526   ar
  1341  1072  1071   ar
  1342  1193  1200   ar
  1343  1193  1192   ar
  1344   226   225    1
  1345  1200  1190   ar
  1346    37    30   ar
  1347   222   223    1
  1348   255   248   ar
  1349  1060  1073    1
  1350   541   540    1
  1351  1186  1188    1
  1352  1186  1184    1
  1353    30    29    1
  1354    52    51    2
  1355    51    50   ar
  1356   249   248   ar
  1357   249   250    2
  1358   470   468   ar
  1359   259   257    2
  1360  1188  1189    1
  1361   261   262    1
  1362   261   260    1
  1363   474   467   ar
  1364   263   262    1
  1365   225   223    1
  1366   225   227    1
  1367   229   230   ar
  1368   229   228    1
  1369    75    76   ar
  1370    56    57   ar
  1371   540   537    1
  1372  1067  1068    1
  1373  1067  1069   ar
  1374   926   913    1
  1375   926   927    1
  1376  1071  1070   ar
  1377    69    76   ar
  1378    69    68    1
  1379   248   247    1
  1380   230   231    2
  1381   237   240    1
  1382   237   238    1
  1383  1192  1191   ar
  1384   459   460    1
  1385  1075  1073    2
  1386    81    80    1
  1387   223   224    1
  1388  1190  1191   ar
  1389  1190  1189    1
  1390   491   493   ar
  1391   491   490   ar
  1392   528   527   ar
  1393   510   509   ar
  1394   510   512   ar
  1395   224   228    1
  1396     6    19    1
  1397   228   227    1
  1398   509   507   ar
  1399   526   525    1
  1400   526   527   ar
  1401  1073  1074    1
  1402  1073  1076    1
  1403    29    25    1
  1404    29    28    1
  1405   240   241    1
  1406  1070  1069   ar
  1407   468   467   ar
  1408   468   469    2
  1409    80    77    1
  1410    50    57   ar
  1411    50    49    1
  1412   467   466    1
  1413   257   260    1
  1414   257   258    1
  1415   257   245    1
  1416   493   494   ar
  1417  1189  1185    1
  1418  1184  1183    1
  1419  1184  1185    1
  1420   524   525    1
  1421   524   522    1
  1422  1183  1182    1
  1423    67    68    1
  1424    67    65    1
  1425   525   521    1
  1426   490   488   ar
  1427    68    64    1
  1428    25    24    1
  1429    21    19    2
  1430   246   244    1
  1431   246   247    1
  1432   244   245    1
  1433   244   242    1
  1434   460   461    1
  1435   247   243    1
  1436   537   539    2
  1437   537   538    1
  1438   537   523    1
  1439   514   512    1
  1440   462   466    1
  1441   462   461    1
  1442  1086  1085   ar
  1443  1086  1087   ar
  1444    22    19    1
  1445    22    23    1
  1446   512   513   ar
  1447  1076  1077    1
  1448   507   508    2
  1449   507   506   ar
  1450    28    26    1
  1451    49    48    1
  1452    49    45    1
  1453  1085  1084   ar
  1454    19    20    1
  1455   466   465    1
  1456   243   242    1
  1457  1089  1088    2
  1458   241   242    1
  1459  1181  1179    2
  1460    65    66    1
  1461    65    63    1
  1462   494   487   ar
  1463  1079  1083    1
  1464  1079  1078    1
  1465   461   463    1
  1466    77    79    2
  1467    77    66    1
  1468    77    78    1
  1469   478   476    2
  1470  1077  1078    1
  1471   522   523    1
  1472   522   520    1
  1473  1087  1088   ar
  1474  1087  1094   ar
  1475  1182  1179    1
  1476    64    63    1
  1477   488   487   ar
  1478   488   489    2
  1479   521   520    1
  1480    24    26    1
  1481    24    23    1
  1482    26    27    1
  1483  1088  1090   ar
  1484    48    46    1
  1485    45    44    1
  1486   463   465    1
  1487   463   464    1
  1488  1084  1083    1
  1489  1084  1094   ar
  1490   513   506   ar
  1491  1180  1179    1
  1492  1179  1167    1
  1493   506   505    1
  1494  1111  1110    2
  1495   487   486    1
  1496  1083  1082    1
  1497  1078  1080    1
  1498  1094  1093   ar
  1499  1175  1174    2
  1500   520   519    1
  1501    63    62    1
  1502  1114  1112    1
  1503  1173  1174   ar
  1504  1173  1171   ar
  1505    41    39    2
  1506  1172  1171    2
  1507  1090  1091   ar
  1508  1174  1176   ar
  1509    60    58    2
  1510  1171  1170   ar
  1511    46    44    1
  1512    46    47    1
  1513   476   464    1
  1514   476   479    1
  1515   476   477    1
  1516    42    39    1
  1517    42    43    1
  1518  1110  1112   ar
  1519  1110  1109   ar
  1520    27    39    1
  1521    44    43    1
  1522  1093  1091   ar
  1523    62    61    1
  1524  1167  1166    1
  1525  1112  1113   ar
  1526    39    40    1
  1527  1091  1092    1
  1528  1080  1082    1
  1529  1080  1081    1
  1530   505   504    1
  1531   505   501    1
  1532   479   480    1
  1533   486   482    1
  1534   486   485    1
  1535  1176  1178    1
  1536  1176  1177   ar
  1537  1170  1177   ar
  1538  1170  1169    1
  1539  1168  1166    1
  1540  1168  1169    1
  1541   518   519    1
  1542   518   515    1
  1543  1166  1164    1
  1544  1156  1155    1
  1545   504   502    1
  1546   497   495    2
  1547    61    58    1
  1548  1109  1107   ar
  1549    47    58    1
  1550   482   481    1
  1551   485   483    1
  1552    58    59    1
  1553  1154  1155   ar
  1554  1154  1152   ar
  1555  1153  1152    2
  1556  1097  1095    2
  1557   483   481    1
  1558   483   484    1
  1559   517   515    2
  1560   501   500    1
  1561  1113  1106   ar
  1562  1081  1095    1
  1563  1155  1157   ar
  1564  1169  1165    1
  1565  1169  1157    1
  1566   502   500    1
  1567   502   503    1
  1568   480   481    1
  1569  1152  1151   ar
  1570   498   495    1
  1571   498   499    1
  1572   515   503    1
  1573   515   516    1
  1574  1107  1106   ar
  1575  1107  1108    2
  1576  1164  1163    1
  1577  1164  1165    1
  1578   495   484    1
  1579   495   496    1
  1580  1163  1162    1
  1581  1095  1098    1
  1582  1095  1096    1
  1583  1106  1105    1
  1584   500   499    1
  1585  1157  1158   ar
  1586  1151  1158   ar
  1587  1151  1150   ar
  1588  1098  1099    1
  1589  1161  1159    2
  1590  1158  1148   ar
  1591  1101  1105    1
  1592  1101  1100    1
  1593  1160  1159    1
  1594  1131  1130    2
  1595  1105  1104    1
  1596  1162  1159    1
  1597  1099  1100    1
  1598  1150  1149   ar
  1599  1159  1145    1
  1600  1130  1132   ar
  1601  1130  1129   ar
  1602  1148  1149   ar
  1603  1148  1147    1
  1604  1132  1133   ar
  1605  1146  1144    1
  1606  1146  1147    1
  1607  1145  1144    1
  1608  1144  1142    1
  1609  1134  1133    1
  1610  1129  1128   ar
  1611  1129  1136   ar
  1612  1133  1135   ar
  1613  1147  1143    1
  1614  1102  1103    1
  1615  1128  1127   ar
  1616  1139  1137    2
  1617  1136  1135   ar
  1618  1136  1126   ar
  1619  1142  1143    1
  1620  1142  1141    1
  1621  1127  1126   ar
  1622  1141  1140    1
  1623  1103  1116    1
  1624  1116  1115    1
  1625  1137  1138    1
  1626  1137  1140    1
  1627  1137  1123    1
  1628  1126  1125    1
  1629  1124  1122    1
  1630  1124  1125    1
  1631  1122  1123    1
  1632  1122  1120    1
  1633  1118  1115    1
  1634  1118  1119    1
  1635  1115  1117    1
  1636  1125  1121    1
  1637  1120  1119    1
  1638  1120  1121    1
