FB1.pdb
  RxDock  10072016073D
librxdock.so/0.1.0
 59 58  0  0  0  0  0  0  0  0999 V2000
    3.5416    7.5547  -16.9230 C   0  0  0  0  0  0
    2.4682    8.0707  -15.9674 C   0  0  0  0  0  0
    2.5204    7.3502  -14.6101 C   0  0  0  0  0  0
    1.2219    7.5035  -13.7793 C   0  0  0  0  0  0
    1.1320    6.5787  -12.5155 C   0  0  0  0  0  0
    2.3361    6.8923  -11.5977 C   0  0  0  0  0  0
   -0.2363    6.7189  -11.7243 C   0  0  0  0  0  0
   -1.5126    5.9755  -12.3445 C   0  0  0  0  0  0
   -2.8028    6.7021  -12.9238 C   0  0  0  0  0  0
   -3.9057    7.1765  -11.7925 C   0  0  0  0  0  0
   -5.0654    7.8692  -12.5062 C   0  0  0  0  0  0
   -4.4725    6.0300  -10.8391 C   0  0  0  0  0  0
   -5.8403    6.1549   -9.9834 C   0  0  0  0  0  0
   -7.2542    6.1825  -10.6587 C   0  0  0  0  0  0
   -7.6703    4.9581  -11.5951 C   0  0  0  0  0  0
   -9.1019    4.7769  -12.2372 C   0  0  0  0  0  0
   -9.4782    3.4240  -12.8972 C   0  0  0  0  0  0
   -9.5248    2.1647  -11.9480 C   0  0  0  0  0  0
   -8.2055    1.7766  -11.2688 C   0  0  0  0  0  0
   -6.9751    1.4698  -12.1691 C   0  0  0  0  0  0
   -5.6629    0.9040  -11.5499 C   0  0  0  0  0  0
   -5.8261   -0.1383  -10.4525 C   0  0  0  0  0  0
   -4.7499    0.4218  -12.6037 N   0  0  0  0  0  0
   -7.4346    0.4397  -13.0810 O   0  0  0  0  0  0
  -10.5031    2.4129  -10.9326 O   0  0  0  0  0  0
   -5.8524    4.9948   -9.1346 O   0  0  0  0  0  0
   -1.0189    5.1790  -13.4554 O   0  0  0  0  0  0
   -0.3138    4.0597  -13.1466 C   0  0  0  0  0  0
    0.8897    3.9892  -12.9852 O   0  0  0  0  0  0
   -1.2833    2.9298  -12.9349 C   0  0  0  0  0  0
   -0.5837    1.6149  -12.5552 C   0  0  0  0  0  0
   -0.0728    1.6163  -11.1087 C   0  0  0  0  0  0
   -0.7768    2.6680  -10.2830 C   0  0  0  0  0  0
   -1.9738    2.6340  -10.0189 O   0  0  0  0  0  0
    0.0356    3.6483   -9.8613 O   0  0  0  0  0  0
   -1.6328    0.5100  -12.7408 C   0  0  0  0  0  0
   -1.7215   -0.1615  -13.7574 O   0  0  0  0  0  0
   -2.4801    0.3734  -11.7115 O   0  0  0  0  0  0
   -0.0573    6.4059  -10.2856 O   0  0  0  0  0  0
   -1.1765    6.3921   -9.4699 C   0  0  0  0  0  0
   -1.7349    5.3785   -9.0709 O   0  0  0  0  0  0
   -1.6540    7.8051   -9.1099 C   0  0  0  0  0  0
   -1.0227    8.9655   -9.9403 C   0  0  0  0  0  0
   -1.7033   10.3456   -9.8883 C   0  0  0  0  0  0
   -2.9024   10.4425  -10.7867 C   0  0  0  0  0  0
   -2.8786   10.6933  -11.9839 O   0  0  0  0  0  0
   -4.0513   10.2010  -10.1370 O   0  0  0  0  0  0
    0.4737    9.1888   -9.6889 C   0  0  0  0  0  0
    1.1039    8.5647   -8.8582 O   0  0  0  0  0  0
    1.0794   10.0548  -10.5282 O   0  0  0  0  0  0
   -4.6764    1.1307  -13.3320 H   0  0  0  0  0  0
   -5.1786   -0.3847  -13.0633 H   0  0  0  0  0  0
   -7.9873    0.9176  -13.7347 H   0  0  0  0  0  0
  -10.4425    1.6995  -10.2708 H   0  0  0  0  0  0
   -6.5981    5.0816   -8.5174 H   0  0  0  0  0  0
    0.9906    3.4571   -9.9314 H   0  0  0  0  0  0
   -2.4876    1.1369  -11.0824 H   0  0  0  0  0  0
   -3.8079    9.8173   -9.2682 H   0  0  0  0  0  0
    2.0467    9.9221  -10.6418 H   0  0  0  0  0  0
  1  2  1  0  0  0
  2  3  1  0  0  0
  3  4  1  0  0  0
  4  5  1  0  0  0
  5  6  1  0  0  0
  5  7  1  0  0  0
  7  8  1  0  0  0
  7 39  1  0  0  0
  8  9  1  0  0  0
  8 27  1  0  0  0
  9 10  1  0  0  0
 10 11  1  0  0  0
 10 12  1  0  0  0
 12 13  1  0  0  0
 13 14  1  0  0  0
 13 26  1  0  0  0
 14 15  1  0  0  0
 15 16  1  0  0  0
 16 17  1  0  0  0
 17 18  1  0  0  0
 18 19  1  0  0  0
 18 25  1  0  0  0
 19 20  1  0  0  0
 20 21  1  0  0  0
 20 24  1  0  0  0
 21 22  1  0  0  0
 21 23  1  0  0  0
 23 51  1  0  0  0
 23 52  1  0  0  0
 24 53  1  0  0  0
 25 54  1  0  0  0
 26 55  1  0  0  0
 27 28  1  0  0  0
 28 29  2  0  0  0
 28 30  1  0  0  0
 30 31  1  0  0  0
 31 32  1  0  0  0
 31 36  1  0  0  0
 32 33  1  0  0  0
 33 34  2  0  0  0
 33 35  1  0  0  0
 35 56  1  0  0  0
 36 37  2  0  0  0
 36 38  1  0  0  0
 38 57  1  0  0  0
 39 40  1  0  0  0
 40 41  2  0  0  0
 40 42  1  0  0  0
 42 43  1  0  0  0
 43 44  1  0  0  0
 43 48  1  0  0  0
 44 45  1  0  0  0
 45 46  2  0  0  0
 45 47  1  0  0  0
 47 58  1  0  0  0
 48 49  2  0  0  0
 48 50  1  0  0  0
 50 59  1  0  0  0
M  END
>  <AUTHOR>
    GENERATED BY OPEN BABEL 2.4.1

>  <CHROM.1>
-162.10336842,169.41936398,58.73517287,77.75252794,-114.09559141,-175.64323843
-81.43901728,73.27806709,179.22955727,-161.02267647,69.02031606,57.12313989
172.79432705,174.19887577,-168.17143231,63.55858699,-62.16838348,-57.48885197
-171.73611211,-172.49718278,39.72511199,76.41256851,47.81179712,-89.82930021
-179.03931112,74.35537258,19.69374810,95.81065530,65.55633452,-15.04445050
15.63059965,103.20211241,12.62078100,164.68571622,-80.06385720,-3.87927809
-83.41789796,-12.69291119,-154.68257401,-2.70474348,5.13244758,-11.63279775
-0.60175370,-0.21021573,-2.90836763

>  <COMPND>
    UNNAMED

>  <MASTER>
        0    0    0    0    0    0    0    0  109    0  109    0

>  <Name>
FB1.pdb

>  <RI>
0

>  <Rbt.Current_Directory>
/home/fc/tossine/FB1_39/p3/3_clust03

>  <Rbt.Executable>
rbdock/0.1.0

>  <Rbt.Library>
librxdock.so/0.1.0

>  <Rbt.Parameter_File>
/cluster/rxdock/data/scripts/dock.prm

>  <Rbt.Receptor>
rx_1.prm

>  <SCORE>
39.6053

>  <SCORE.INTER>
12.3692

>  <SCORE.INTER.CONST>
1

>  <SCORE.INTER.POLAR>
-1.94945

>  <SCORE.INTER.REPUL>
1.60637

>  <SCORE.INTER.ROT>
32

>  <SCORE.INTER.VDW>
-26.4345

>  <SCORE.INTER.norm>
0.247384

>  <SCORE.INTRA>
26.7309

>  <SCORE.INTRA.DIHEDRAL>
42.1573

>  <SCORE.INTRA.DIHEDRAL.0>
47.3121

>  <SCORE.INTRA.POLAR>
1.47808

>  <SCORE.INTRA.POLAR.0>
-1.47808

>  <SCORE.INTRA.REPUL>
2.31734e-05

>  <SCORE.INTRA.REPUL.0>
0

>  <SCORE.INTRA.VDW>
0.62668

>  <SCORE.INTRA.VDW.0>
-2.78316

>  <SCORE.INTRA.norm>
0.534618

>  <SCORE.RESTR>
0.505155

>  <SCORE.RESTR.CAVITY>
0.505155

>  <SCORE.RESTR.norm>
0.0101031

>  <SCORE.SYSTEM>
0

>  <SCORE.SYSTEM.CONST>
0

>  <SCORE.SYSTEM.DIHEDRAL>
0

>  <SCORE.SYSTEM.norm>
0

>  <SCORE.heavy>
50

>  <SCORE.norm>
0.792106

$$$$
