FB1.pdb
  RxDock  10072017063D
librxdock.so/0.1.0
 59 58  0  0  0  0  0  0  0  0999 V2000
   -8.2968    3.7587  -10.4919 C   0  0  0  0  0  0
   -9.0286    5.0933  -10.3703 C   0  0  0  0  0  0
   -8.4655    5.9490   -9.2236 C   0  0  0  0  0  0
   -6.9920    6.3763   -9.4380 C   0  0  0  0  0  0
   -6.7001    7.0800  -10.8092 C   0  0  0  0  0  0
   -6.7310    8.6097  -10.5862 C   0  0  0  0  0  0
   -5.3303    6.6308  -11.4724 C   0  0  0  0  0  0
   -3.9830    7.1008  -10.7444 C   0  0  0  0  0  0
   -2.7821    6.1426  -10.3348 C   0  0  0  0  0  0
   -1.3732    6.9110   -9.9526 C   0  0  0  0  0  0
   -1.3660    7.1921   -8.4509 C   0  0  0  0  0  0
   -0.0280    6.1577  -10.3622 C   0  0  0  0  0  0
    0.2993    4.6174   -9.9895 C   0  0  0  0  0  0
   -0.8088    3.6122   -9.5228 C   0  0  0  0  0  0
   -0.5269    2.0484   -9.6786 C   0  0  0  0  0  0
   -0.4691    1.2894  -11.0625 C   0  0  0  0  0  0
   -1.6481    1.4296  -12.0613 C   0  0  0  0  0  0
   -1.5897    0.5257  -13.3531 C   0  0  0  0  0  0
   -1.9021   -0.9629  -13.1555 C   0  0  0  0  0  0
   -1.0861   -1.7528  -12.0931 C   0  0  0  0  0  0
   -1.3804   -1.5723  -10.5745 C   0  0  0  0  0  0
   -2.7197   -2.0976  -10.0768 C   0  0  0  0  0  0
   -0.2707   -2.0998   -9.7579 N   0  0  0  0  0  0
   -1.3764   -3.1469  -12.3687 O   0  0  0  0  0  0
   -2.5117    1.0609  -14.3088 O   0  0  0  0  0  0
    0.8354    4.0509  -11.1971 O   0  0  0  0  0  0
   -3.3727    8.0893  -11.6179 O   0  0  0  0  0  0
   -3.2014    9.3381  -11.1115 C   0  0  0  0  0  0
   -3.7658    9.8041  -10.1400 O   0  0  0  0  0  0
   -2.1154   10.0240  -11.8935 C   0  0  0  0  0  0
   -0.7835    9.2581  -11.8509 C   0  0  0  0  0  0
   -0.0141    9.3412  -13.1755 C   0  0  0  0  0  0
    0.8337    8.1092  -13.3917 C   0  0  0  0  0  0
    0.7901    7.4257  -14.4088 O   0  0  0  0  0  0
    1.6456    7.8317  -12.3608 O   0  0  0  0  0  0
    0.0375    9.9019  -10.7252 C   0  0  0  0  0  0
    0.5309    9.2614   -9.8093 O   0  0  0  0  0  0
    0.1289   11.2367  -10.8011 O   0  0  0  0  0  0
   -5.3264    5.1757  -11.7599 O   0  0  0  0  0  0
   -4.3665    4.6774  -12.6249 C   0  0  0  0  0  0
   -3.5555    5.3624  -13.2345 O   0  0  0  0  0  0
   -4.4240    3.1486  -12.7428 C   0  0  0  0  0  0
   -5.4782    2.4387  -11.8377 C   0  0  0  0  0  0
   -6.1088    1.1312  -12.3509 C   0  0  0  0  0  0
   -5.1293   -0.0046  -12.4206 C   0  0  0  0  0  0
   -4.1861   -0.1811  -11.6617 O   0  0  0  0  0  0
   -5.4019   -0.8567  -13.4205 O   0  0  0  0  0  0
   -5.0141    2.1832  -10.3984 C   0  0  0  0  0  0
   -3.8925    2.4439  -10.0102 O   0  0  0  0  0  0
   -5.9687    1.7453   -9.5509 O   0  0  0  0  0  0
    0.6146   -1.8555  -10.1996 H   0  0  0  0  0  0
   -0.3042   -3.1214   -9.7822 H   0  0  0  0  0  0
   -2.3508   -3.1803  -12.4721 H   0  0  0  0  0  0
   -3.4153    0.9248  -13.9689 H   0  0  0  0  0  0
    1.4169    3.3123  -10.9504 H   0  0  0  0  0  0
    2.1781    7.0189  -12.4570 H   0  0  0  0  0  0
    0.7010   11.6487  -10.1071 H   0  0  0  0  0  0
   -4.6937   -1.5347  -13.4133 H   0  0  0  0  0  0
   -6.8369    1.5429   -9.9652 H   0  0  0  0  0  0
  1  2  1  0  0  0
  2  3  1  0  0  0
  3  4  1  0  0  0
  4  5  1  0  0  0
  5  6  1  0  0  0
  5  7  1  0  0  0
  7  8  1  0  0  0
  7 39  1  0  0  0
  8  9  1  0  0  0
  8 27  1  0  0  0
  9 10  1  0  0  0
 10 11  1  0  0  0
 10 12  1  0  0  0
 12 13  1  0  0  0
 13 14  1  0  0  0
 13 26  1  0  0  0
 14 15  1  0  0  0
 15 16  1  0  0  0
 16 17  1  0  0  0
 17 18  1  0  0  0
 18 19  1  0  0  0
 18 25  1  0  0  0
 19 20  1  0  0  0
 20 21  1  0  0  0
 20 24  1  0  0  0
 21 22  1  0  0  0
 21 23  1  0  0  0
 23 51  1  0  0  0
 23 52  1  0  0  0
 24 53  1  0  0  0
 25 54  1  0  0  0
 26 55  1  0  0  0
 27 28  1  0  0  0
 28 29  2  0  0  0
 28 30  1  0  0  0
 30 31  1  0  0  0
 31 32  1  0  0  0
 31 36  1  0  0  0
 32 33  1  0  0  0
 33 34  2  0  0  0
 33 35  1  0  0  0
 35 56  1  0  0  0
 36 37  2  0  0  0
 36 38  1  0  0  0
 38 57  1  0  0  0
 39 40  1  0  0  0
 40 41  2  0  0  0
 40 42  1  0  0  0
 42 43  1  0  0  0
 43 44  1  0  0  0
 43 48  1  0  0  0
 44 45  1  0  0  0
 45 46  2  0  0  0
 45 47  1  0  0  0
 47 58  1  0  0  0
 48 49  2  0  0  0
 48 50  1  0  0  0
 50 59  1  0  0  0
M  END
>  <AUTHOR>
    GENERATED BY OPEN BABEL 2.4.1

>  <CHROM.1>
64.00787340,52.84156853,96.77062505,-69.23002267,128.53179595,164.26093278
165.24539537,119.27230123,90.75257993,-51.32217993,16.37968780,158.45648985
153.62663390,-70.28803814,-52.58530287,-173.78305614,74.52755914,-54.45212102
-68.17402955,75.54789467,67.98161685,-46.87592301,40.04448330,-18.10058205
-58.31077260,143.86188522,-150.56670917,126.74655422,127.09174133,177.51467478
-176.60747195,-4.17609109,-2.86018725,149.20322835,67.80478331,-3.86230525
32.88114756,177.47072908,6.34204600,-2.86131786,4.37367081,-11.30132859,1.71332384
-0.11772899,-3.06980340

>  <COMPND>
    UNNAMED

>  <MASTER>
        0    0    0    0    0    0    0    0  109    0  109    0

>  <Name>
FB1.pdb

>  <RI>
0

>  <Rbt.Current_Directory>
/home/fc/tossine/FB1_39/p3/3_clust03

>  <Rbt.Executable>
rbdock/0.1.0

>  <Rbt.Library>
librxdock.so/0.1.0

>  <Rbt.Parameter_File>
/cluster/rxdock/data/scripts/dock.prm

>  <Rbt.Receptor>
rx_2.prm

>  <SCORE>
7.35924

>  <SCORE.INTER>
2.72104

>  <SCORE.INTER.CONST>
1

>  <SCORE.INTER.POLAR>
-3.08254

>  <SCORE.INTER.REPUL>
0.568331

>  <SCORE.INTER.ROT>
32

>  <SCORE.INTER.VDW>
-27.04

>  <SCORE.INTER.norm>
0.0544207

>  <SCORE.INTRA>
3.91126

>  <SCORE.INTRA.DIHEDRAL>
10.4199

>  <SCORE.INTRA.DIHEDRAL.0>
47.3121

>  <SCORE.INTRA.POLAR>
1.47808

>  <SCORE.INTRA.POLAR.0>
-1.47808

>  <SCORE.INTRA.REPUL>
0

>  <SCORE.INTRA.REPUL.0>
0

>  <SCORE.INTRA.VDW>
-6.32414

>  <SCORE.INTRA.VDW.0>
-2.78316

>  <SCORE.INTRA.norm>
0.0782252

>  <SCORE.RESTR>
0.72695

>  <SCORE.RESTR.CAVITY>
0.72695

>  <SCORE.RESTR.norm>
0.014539

>  <SCORE.SYSTEM>
0

>  <SCORE.SYSTEM.CONST>
0

>  <SCORE.SYSTEM.DIHEDRAL>
0

>  <SCORE.SYSTEM.norm>
0

>  <SCORE.heavy>
50

>  <SCORE.norm>
0.147185

$$$$
