FB1.pdb
  RxDock  10072017033D
librxdock.so/0.1.0
 59 58  0  0  0  0  0  0  0  0999 V2000
   -2.8553   11.7105   -7.9841 C   0  0  0  0  0  0
   -3.2944   10.5760   -8.9069 C   0  0  0  0  0  0
   -2.1322    9.6223   -9.2295 C   0  0  0  0  0  0
   -1.1430   10.1872  -10.2792 C   0  0  0  0  0  0
   -1.7506   10.4103  -11.7080 C   0  0  0  0  0  0
   -0.6904   11.1208  -12.5809 C   0  0  0  0  0  0
   -2.2510    9.0726  -12.3993 C   0  0  0  0  0  0
   -1.7243    7.6934  -11.7774 C   0  0  0  0  0  0
   -2.5458    6.3325  -11.7429 C   0  0  0  0  0  0
   -1.9468    5.1795  -10.7265 C   0  0  0  0  0  0
   -1.3750    5.8720   -9.4906 C   0  0  0  0  0  0
   -2.9680    4.0396  -10.2765 C   0  0  0  0  0  0
   -2.9760    2.5382  -10.8802 C   0  0  0  0  0  0
   -1.6705    1.6831  -11.0227 C   0  0  0  0  0  0
   -0.6253    1.6897   -9.8157 C   0  0  0  0  0  0
   -0.4295    0.4935   -8.8032 C   0  0  0  0  0  0
   -1.6739   -0.1900   -8.1773 C   0  0  0  0  0  0
   -2.2339   -1.4596   -8.9282 C   0  0  0  0  0  0
   -1.2081   -2.5390   -9.2957 C   0  0  0  0  0  0
   -0.7363   -2.6348  -10.7744 C   0  0  0  0  0  0
   -1.7574   -2.9269  -11.9135 C   0  0  0  0  0  0
   -2.5067   -4.2493  -11.8290 C   0  0  0  0  0  0
   -2.6943   -1.7997  -12.0812 N   0  0  0  0  0  0
   -0.2032   -1.3201  -11.0761 O   0  0  0  0  0  0
   -3.2418   -2.0525   -8.1021 O   0  0  0  0  0  0
   -3.8213    1.7874   -9.9923 O   0  0  0  0  0  0
   -0.5072    7.3609  -12.4990 O   0  0  0  0  0  0
    0.6636    7.8016  -11.9697 C   0  0  0  0  0  0
    0.8351    8.1979  -10.8326 O   0  0  0  0  0  0
    1.7472    7.6237  -12.9971 C   0  0  0  0  0  0
    2.2701    6.1797  -13.0597 C   0  0  0  0  0  0
    1.1426    5.1517  -13.2182 C   0  0  0  0  0  0
    0.9592    4.3445  -11.9540 C   0  0  0  0  0  0
    0.5345    3.1942  -11.9393 O   0  0  0  0  0  0
    1.3082    5.0073  -10.8414 O   0  0  0  0  0  0
    3.2074    6.1227  -14.2738 C   0  0  0  0  0  0
    4.0827    6.9496  -14.4801 O   0  0  0  0  0  0
    2.9551    5.1149  -15.1204 O   0  0  0  0  0  0
   -3.7243    9.0768  -12.5701 O   0  0  0  0  0  0
   -4.5153    9.3371  -11.4634 C   0  0  0  0  0  0
   -4.9114   10.4483  -11.1365 O   0  0  0  0  0  0
   -4.8515    8.0652  -10.6739 C   0  0  0  0  0  0
   -6.1248    7.2943  -11.1416 C   0  0  0  0  0  0
   -6.3897    7.1857  -12.6544 C   0  0  0  0  0  0
   -6.9458    8.4493  -13.2447 C   0  0  0  0  0  0
   -7.2087    8.6297  -14.4258 O   0  0  0  0  0  0
   -7.1558    9.3987  -12.3201 O   0  0  0  0  0  0
   -6.2686    5.8848  -10.5543 C   0  0  0  0  0  0
   -6.0118    4.8778  -11.1841 O   0  0  0  0  0  0
   -6.5996    5.8328   -9.2470 O   0  0  0  0  0  0
   -2.3106   -1.1448  -12.7612 H   0  0  0  0  0  0
   -2.7348   -1.2754  -11.2043 H   0  0  0  0  0  0
    0.7345   -1.3631  -10.7927 H   0  0  0  0  0  0
   -3.9918   -1.4322   -8.0447 H   0  0  0  0  0  0
   -4.7061    2.1892  -10.0081 H   0  0  0  0  0  0
    1.4197    4.4540  -10.0446 H   0  0  0  0  0  0
    3.5190    5.1113  -15.9333 H   0  0  0  0  0  0
   -7.5687   10.1571  -12.7844 H   0  0  0  0  0  0
   -6.6575    4.9293   -8.8644 H   0  0  0  0  0  0
  1  2  1  0  0  0
  2  3  1  0  0  0
  3  4  1  0  0  0
  4  5  1  0  0  0
  5  6  1  0  0  0
  5  7  1  0  0  0
  7  8  1  0  0  0
  7 39  1  0  0  0
  8  9  1  0  0  0
  8 27  1  0  0  0
  9 10  1  0  0  0
 10 11  1  0  0  0
 10 12  1  0  0  0
 12 13  1  0  0  0
 13 14  1  0  0  0
 13 26  1  0  0  0
 14 15  1  0  0  0
 15 16  1  0  0  0
 16 17  1  0  0  0
 17 18  1  0  0  0
 18 19  1  0  0  0
 18 25  1  0  0  0
 19 20  1  0  0  0
 20 21  1  0  0  0
 20 24  1  0  0  0
 21 22  1  0  0  0
 21 23  1  0  0  0
 23 51  1  0  0  0
 23 52  1  0  0  0
 24 53  1  0  0  0
 25 54  1  0  0  0
 26 55  1  0  0  0
 27 28  1  0  0  0
 28 29  2  0  0  0
 28 30  1  0  0  0
 30 31  1  0  0  0
 31 32  1  0  0  0
 31 36  1  0  0  0
 32 33  1  0  0  0
 33 34  2  0  0  0
 33 35  1  0  0  0
 35 56  1  0  0  0
 36 37  2  0  0  0
 36 38  1  0  0  0
 38 57  1  0  0  0
 39 40  1  0  0  0
 40 41  2  0  0  0
 40 42  1  0  0  0
 42 43  1  0  0  0
 43 44  1  0  0  0
 43 48  1  0  0  0
 44 45  1  0  0  0
 45 46  2  0  0  0
 45 47  1  0  0  0
 47 58  1  0  0  0
 48 49  2  0  0  0
 48 50  1  0  0  0
 50 59  1  0  0  0
M  END
>  <AUTHOR>
    GENERATED BY OPEN BABEL 2.4.1

>  <CHROM.1>
-76.92750653,-64.49500662,173.65027326,-16.38959490,147.41909095,-52.58918653
-165.26373894,91.89956815,35.58542877,103.19325965,47.76952021,43.01353005
60.50097608,105.24670679,-46.05346380,92.94403858,49.46641356,-103.51041467
66.30879225,-60.60839595,-60.93182067,87.19712343,90.25524496,16.39598722
-80.20632167,51.81090031,-109.54310403,48.35376193,-151.42867471,-165.07480620
176.16805732,91.79021557,-87.83196295,39.52739902,-77.26214722,-102.59169046
178.08245429,-176.46250664,-177.75946731,-2.05192777,5.13557834,-11.26717181
1.73709046,0.25278287,-0.14616988

>  <COMPND>
    UNNAMED

>  <MASTER>
        0    0    0    0    0    0    0    0  109    0  109    0

>  <Name>
FB1.pdb

>  <RI>
0

>  <Rbt.Current_Directory>
/home/fc/tossine/FB1_39/p3/3_clust03

>  <Rbt.Executable>
rbdock/0.1.0

>  <Rbt.Library>
librxdock.so/0.1.0

>  <Rbt.Parameter_File>
/cluster/rxdock/data/scripts/dock.prm

>  <Rbt.Receptor>
rx_2.prm

>  <SCORE>
31.5607

>  <SCORE.INTER>
6.47914

>  <SCORE.INTER.CONST>
1

>  <SCORE.INTER.POLAR>
-3.20223

>  <SCORE.INTER.REPUL>
1.93209

>  <SCORE.INTER.ROT>
32

>  <SCORE.INTER.VDW>
-29.6938

>  <SCORE.INTER.norm>
0.129583

>  <SCORE.INTRA>
22.9851

>  <SCORE.INTRA.DIHEDRAL>
43.4826

>  <SCORE.INTRA.DIHEDRAL.0>
47.3121

>  <SCORE.INTRA.POLAR>
1.47808

>  <SCORE.INTRA.POLAR.0>
-1.47808

>  <SCORE.INTRA.REPUL>
0

>  <SCORE.INTRA.REPUL.0>
0

>  <SCORE.INTRA.VDW>
-3.78165

>  <SCORE.INTRA.VDW.0>
-2.78316

>  <SCORE.INTRA.norm>
0.459702

>  <SCORE.RESTR>
2.09648

>  <SCORE.RESTR.CAVITY>
2.09648

>  <SCORE.RESTR.norm>
0.0419296

>  <SCORE.SYSTEM>
0

>  <SCORE.SYSTEM.CONST>
0

>  <SCORE.SYSTEM.DIHEDRAL>
0

>  <SCORE.SYSTEM.norm>
0

>  <SCORE.heavy>
50

>  <SCORE.norm>
0.631214

$$$$
