FB1.pdb
  RxDock  10072016073D
librxdock.so/0.1.0
 59 58  0  0  0  0  0  0  0  0999 V2000
   -6.6568   -2.5328  -13.8206 C   0  0  0  0  0  0
   -5.6851   -1.3748  -13.6058 C   0  0  0  0  0  0
   -6.1064   -0.4903  -12.4208 C   0  0  0  0  0  0
   -5.1945    0.7454  -12.2175 C   0  0  0  0  0  0
   -5.6536    1.7271  -11.0836 C   0  0  0  0  0  0
   -5.2601    1.1124   -9.7205 C   0  0  0  0  0  0
   -5.0635    3.1921  -11.2370 C   0  0  0  0  0  0
   -3.5202    3.3133  -11.6493 C   0  0  0  0  0  0
   -2.6386    4.6299  -11.5172 C   0  0  0  0  0  0
   -2.9922    5.8203  -12.6031 C   0  0  0  0  0  0
   -4.2551    6.5427  -12.1368 C   0  0  0  0  0  0
   -1.8375    6.8859  -12.8791 C   0  0  0  0  0  0
   -0.2572    6.5702  -12.7325 C   0  0  0  0  0  0
    0.4331    6.3657  -11.3405 C   0  0  0  0  0  0
    2.0131    6.5730  -11.2409 C   0  0  0  0  0  0
    2.7260    7.9824  -11.2374 C   0  0  0  0  0  0
    2.5963    8.9017   -9.9942 C   0  0  0  0  0  0
    1.2330    9.6787   -9.8303 C   0  0  0  0  0  0
   -0.0173    8.8179   -9.6102 C   0  0  0  0  0  0
   -1.4093    9.4582   -9.8759 C   0  0  0  0  0  0
   -1.8977   10.6701   -9.0286 C   0  0  0  0  0  0
   -1.1899   11.9958   -9.2715 C   0  0  0  0  0  0
   -3.3610   10.8272   -9.1308 N   0  0  0  0  0  0
   -1.3307    9.9578  -11.2353 O   0  0  0  0  0  0
    1.3670   10.5773   -8.7238 O   0  0  0  0  0  0
   -0.0613    5.3308  -13.4341 O   0  0  0  0  0  0
   -2.8092    2.3232  -10.8577 O   0  0  0  0  0  0
   -1.6343    1.8609  -11.3588 C   0  0  0  0  0  0
   -1.2029    2.0574  -12.4789 O   0  0  0  0  0  0
   -0.8980    1.1437  -10.2610 C   0  0  0  0  0  0
   -1.3596   -0.3129  -10.0943 C   0  0  0  0  0  0
   -1.0784   -1.1655  -11.3382 C   0  0  0  0  0  0
   -2.2424   -1.1257  -12.3010 C   0  0  0  0  0  0
   -3.3495   -1.5873  -12.0461 O   0  0  0  0  0  0
   -1.9505   -0.5327  -13.4680 O   0  0  0  0  0  0
   -0.5832   -0.8664   -8.8915 C   0  0  0  0  0  0
    0.6255   -1.0435   -8.9022 O   0  0  0  0  0  0
   -1.3487   -1.1880   -7.8396 O   0  0  0  0  0  0
   -5.9340    4.0329  -12.0944 O   0  0  0  0  0  0
   -7.2784    4.1284  -11.7759 C   0  0  0  0  0  0
   -7.7374    4.0031  -10.6481 O   0  0  0  0  0  0
   -8.1508    4.4136  -13.0054 C   0  0  0  0  0  0
   -7.9112    3.4850  -14.2362 C   0  0  0  0  0  0
   -7.7672    1.9729  -13.9842 C   0  0  0  0  0  0
   -8.8671    1.4134  -13.1289 C   0  0  0  0  0  0
   -9.6262    2.0659  -12.4257 O   0  0  0  0  0  0
   -8.9605    0.0781  -13.2217 O   0  0  0  0  0  0
   -8.9247    3.6600  -15.3739 C   0  0  0  0  0  0
   -8.6638    3.4118  -16.5346 O   0  0  0  0  0  0
  -10.1709    4.0090  -14.9912 O   0  0  0  0  0  0
   -3.6742   11.5011   -8.4334 H   0  0  0  0  0  0
   -3.8037    9.9454   -8.8624 H   0  0  0  0  0  0
   -1.3385    9.1527  -11.7949 H   0  0  0  0  0  0
    1.6081   10.0560   -7.9360 H   0  0  0  0  0  0
   -0.1486    5.5070  -14.3858 H   0  0  0  0  0  0
   -1.0158   -0.2739  -13.5815 H   0  0  0  0  0  0
   -0.8446   -1.4009   -7.0154 H   0  0  0  0  0  0
   -9.7205   -0.1902  -12.6634 H   0  0  0  0  0  0
  -10.8475    3.9975  -15.7041 H   0  0  0  0  0  0
  1  2  1  0  0  0
  2  3  1  0  0  0
  3  4  1  0  0  0
  4  5  1  0  0  0
  5  6  1  0  0  0
  5  7  1  0  0  0
  7  8  1  0  0  0
  7 39  1  0  0  0
  8  9  1  0  0  0
  8 27  1  0  0  0
  9 10  1  0  0  0
 10 11  1  0  0  0
 10 12  1  0  0  0
 12 13  1  0  0  0
 13 14  1  0  0  0
 13 26  1  0  0  0
 14 15  1  0  0  0
 15 16  1  0  0  0
 16 17  1  0  0  0
 17 18  1  0  0  0
 18 19  1  0  0  0
 18 25  1  0  0  0
 19 20  1  0  0  0
 20 21  1  0  0  0
 20 24  1  0  0  0
 21 22  1  0  0  0
 21 23  1  0  0  0
 23 51  1  0  0  0
 23 52  1  0  0  0
 24 53  1  0  0  0
 25 54  1  0  0  0
 26 55  1  0  0  0
 27 28  1  0  0  0
 28 29  2  0  0  0
 28 30  1  0  0  0
 30 31  1  0  0  0
 31 32  1  0  0  0
 31 36  1  0  0  0
 32 33  1  0  0  0
 33 34  2  0  0  0
 33 35  1  0  0  0
 35 56  1  0  0  0
 36 37  2  0  0  0
 36 38  1  0  0  0
 38 57  1  0  0  0
 39 40  1  0  0  0
 40 41  2  0  0  0
 40 42  1  0  0  0
 42 43  1  0  0  0
 43 44  1  0  0  0
 43 48  1  0  0  0
 44 45  1  0  0  0
 45 46  2  0  0  0
 45 47  1  0  0  0
 47 58  1  0  0  0
 48 49  2  0  0  0
 48 50  1  0  0  0
 50 59  1  0  0  0
M  END
>  <AUTHOR>
    GENERATED BY OPEN BABEL 2.4.1

>  <CHROM.1>
-176.61905231,175.75846446,77.65217429,-42.62768101,-164.31695406,53.19386753
-72.19304516,155.02903793,78.16223038,27.86774941,-71.42310738,-158.71038121
71.51622989,75.47620419,71.09809030,-77.32859056,64.31811200,-161.48306747
-57.21664082,-63.02473986,70.56897067,71.49222274,168.99484933,-10.35550177
83.52167507,63.19917322,-89.92305970,-67.30866187,-65.32876578,5.09383660
-170.31821643,27.55945419,49.89329438,44.12502502,49.88639229,153.28327894
-16.83654139,-177.77286950,-171.76197443,-3.44939381,3.79239458,-11.65695261
-2.28509507,-0.36815509,0.01290473

>  <COMPND>
    UNNAMED

>  <MASTER>
        0    0    0    0    0    0    0    0  109    0  109    0

>  <Name>
FB1.pdb

>  <RI>
0

>  <Rbt.Current_Directory>
/home/fc/tossine/FB1_39/p3/3_clust03

>  <Rbt.Executable>
rbdock/0.1.0

>  <Rbt.Library>
librxdock.so/0.1.0

>  <Rbt.Parameter_File>
/cluster/rxdock/data/scripts/dock.prm

>  <Rbt.Receptor>
rx_1.prm

>  <SCORE>
8.58805

>  <SCORE.INTER>
7.64096

>  <SCORE.INTER.CONST>
1

>  <SCORE.INTER.POLAR>
-2.4201

>  <SCORE.INTER.REPUL>
0.211924

>  <SCORE.INTER.ROT>
32

>  <SCORE.INTER.VDW>
-22.5903

>  <SCORE.INTER.norm>
0.152819

>  <SCORE.INTRA>
-1.3809

>  <SCORE.INTRA.DIHEDRAL>
-0.781977

>  <SCORE.INTRA.DIHEDRAL.0>
47.3121

>  <SCORE.INTRA.POLAR>
1.47808

>  <SCORE.INTRA.POLAR.0>
-1.47808

>  <SCORE.INTRA.REPUL>
0.0089378

>  <SCORE.INTRA.REPUL.0>
0

>  <SCORE.INTRA.VDW>
-6.06006

>  <SCORE.INTRA.VDW.0>
-2.78316

>  <SCORE.INTRA.norm>
-0.0276181

>  <SCORE.RESTR>
2.32799

>  <SCORE.RESTR.CAVITY>
2.32799

>  <SCORE.RESTR.norm>
0.0465599

>  <SCORE.SYSTEM>
0

>  <SCORE.SYSTEM.CONST>
0

>  <SCORE.SYSTEM.DIHEDRAL>
0

>  <SCORE.SYSTEM.norm>
0

>  <SCORE.heavy>
50

>  <SCORE.norm>
0.171761

$$$$
