FB1.pdb
  RxDock  10072018223D
librxdock.so/0.1.0
 59 58  0  0  0  0  0  0  0  0999 V2000
   -7.0128    3.4861  -13.8764 C   0  0  0  0  0  0
   -7.6120    3.9541  -12.5522 C   0  0  0  0  0  0
   -7.3976    2.9210  -11.4337 C   0  0  0  0  0  0
   -5.9389    2.8659  -10.9152 C   0  0  0  0  0  0
   -5.4325    4.1796  -10.2236 C   0  0  0  0  0  0
   -6.4053    4.5289   -9.0737 C   0  0  0  0  0  0
   -3.9399    4.0816   -9.6941 C   0  0  0  0  0  0
   -3.2587    2.6318   -9.7081 C   0  0  0  0  0  0
   -3.9105    1.3088   -9.1139 C   0  0  0  0  0  0
   -2.8357    0.1438   -8.6569 C   0  0  0  0  0  0
   -1.8738    0.7457   -7.6339 C   0  0  0  0  0  0
   -3.4631   -1.2021   -8.0740 C   0  0  0  0  0  0
   -2.6320   -2.2938   -7.2161 C   0  0  0  0  0  0
   -1.9815   -1.9555   -5.8310 C   0  0  0  0  0  0
   -1.6085   -3.1623   -4.8545 C   0  0  0  0  0  0
   -0.6575   -3.0294   -3.6005 C   0  0  0  0  0  0
   -0.6335   -4.1580   -2.5360 C   0  0  0  0  0  0
   -1.7369   -4.0897   -1.4104 C   0  0  0  0  0  0
   -1.2541   -3.6961   -0.0088 C   0  0  0  0  0  0
    0.2595   -3.8405    0.3172 C   0  0  0  0  0  0
    0.7909   -3.5521    1.7525 C   0  0  0  0  0  0
    0.2877   -2.2789    2.4181 C   0  0  0  0  0  0
    0.5922   -4.7205    2.6310 N   0  0  0  0  0  0
    0.5543   -5.2410    0.0821 O   0  0  0  0  0  0
   -2.7357   -3.1525   -1.8272 O   0  0  0  0  0  0
   -3.5749   -3.3436   -6.9415 O   0  0  0  0  0  0
   -3.0082    2.3139  -11.1040 O   0  0  0  0  0  0
   -1.7099    2.2464  -11.4979 C   0  0  0  0  0  0
   -1.0065    3.1845  -11.8211 O   0  0  0  0  0  0
   -1.2477    0.8209  -11.3718 C   0  0  0  0  0  0
   -2.0837   -0.1482  -12.2229 C   0  0  0  0  0  0
   -3.5272   -0.2783  -11.7200 C   0  0  0  0  0  0
   -4.3056   -1.2734  -12.5490 C   0  0  0  0  0  0
   -4.8509   -0.9923  -13.6107 O   0  0  0  0  0  0
   -4.3435   -2.5020  -12.0125 O   0  0  0  0  0  0
   -2.0732    0.4243  -13.6470 C   0  0  0  0  0  0
   -1.4545   -0.0882  -14.5673 O   0  0  0  0  0  0
   -2.7611    1.5656  -13.7893 O   0  0  0  0  0  0
   -3.0771    5.1055  -10.3321 O   0  0  0  0  0  0
   -1.8230    5.3394   -9.7931 C   0  0  0  0  0  0
   -1.1039    4.4783   -9.3036 O   0  0  0  0  0  0
   -1.4190    6.8174   -9.8744 C   0  0  0  0  0  0
   -2.4081    7.7488  -10.6417 C   0  0  0  0  0  0
   -2.2251    9.2710  -10.5008 C   0  0  0  0  0  0
   -3.3568    9.9325   -9.7686 C   0  0  0  0  0  0
   -4.5052   10.0391  -10.1766 O   0  0  0  0  0  0
   -2.9866   10.4007   -8.5669 O   0  0  0  0  0  0
   -2.5381    7.4450  -12.1394 C   0  0  0  0  0  0
   -2.2445    6.3695  -12.6229 O   0  0  0  0  0  0
   -3.1048    8.4196  -12.8812 O   0  0  0  0  0  0
   -0.3942   -4.7888    2.8779 H   0  0  0  0  0  0
    1.0741   -4.5491    3.5164 H   0  0  0  0  0  0
    0.2473   -5.6974    0.8938 H   0  0  0  0  0  0
   -3.4272   -3.1195   -1.1408 H   0  0  0  0  0  0
   -4.2739   -2.9789   -6.3733 H   0  0  0  0  0  0
   -4.6524   -3.2088  -12.6114 H   0  0  0  0  0  0
   -3.2687    1.8413  -12.9861 H   0  0  0  0  0  0
   -2.0991   10.0277   -8.3809 H   0  0  0  0  0  0
   -3.1035    8.2629  -13.8516 H   0  0  0  0  0  0
  1  2  1  0  0  0
  2  3  1  0  0  0
  3  4  1  0  0  0
  4  5  1  0  0  0
  5  6  1  0  0  0
  5  7  1  0  0  0
  7  8  1  0  0  0
  7 39  1  0  0  0
  8  9  1  0  0  0
  8 27  1  0  0  0
  9 10  1  0  0  0
 10 11  1  0  0  0
 10 12  1  0  0  0
 12 13  1  0  0  0
 13 14  1  0  0  0
 13 26  1  0  0  0
 14 15  1  0  0  0
 15 16  1  0  0  0
 16 17  1  0  0  0
 17 18  1  0  0  0
 18 19  1  0  0  0
 18 25  1  0  0  0
 19 20  1  0  0  0
 20 21  1  0  0  0
 20 24  1  0  0  0
 21 22  1  0  0  0
 21 23  1  0  0  0
 23 51  1  0  0  0
 23 52  1  0  0  0
 24 53  1  0  0  0
 25 54  1  0  0  0
 26 55  1  0  0  0
 27 28  1  0  0  0
 28 29  2  0  0  0
 28 30  1  0  0  0
 30 31  1  0  0  0
 31 32  1  0  0  0
 31 36  1  0  0  0
 32 33  1  0  0  0
 33 34  2  0  0  0
 33 35  1  0  0  0
 35 56  1  0  0  0
 36 37  2  0  0  0
 36 38  1  0  0  0
 38 57  1  0  0  0
 39 40  1  0  0  0
 40 41  2  0  0  0
 40 42  1  0  0  0
 42 43  1  0  0  0
 43 44  1  0  0  0
 43 48  1  0  0  0
 44 45  1  0  0  0
 45 46  2  0  0  0
 45 47  1  0  0  0
 47 58  1  0  0  0
 48 49  2  0  0  0
 48 50  1  0  0  0
 50 59  1  0  0  0
M  END
>  <AUTHOR>
    GENERATED BY OPEN BABEL 2.4.1

>  <CHROM.1>
73.79316512,63.95937642,55.78920263,-9.89131846,-49.83691834,167.08354846
-154.73177152,112.47094741,56.79448271,-163.02006527,62.46874229,160.35654527
-64.73309365,164.97650872,165.28207753,-84.73824942,-107.94490420,-19.25827131
179.02594748,-175.66343346,-46.19759275,-80.67191670,-74.48440509,-83.41331683
59.12270076,-67.32419878,-178.02417750,108.54472235,-83.76797527,-166.32708653
-6.36402118,35.80405417,-5.09096308,166.99255570,-112.99337129,21.23136739
-67.69356947,-11.59010165,173.97401892,-2.73590351,1.54033203,-8.47548909
2.37523561,-1.28280126,-0.07541831

>  <COMPND>
    UNNAMED

>  <MASTER>
        0    0    0    0    0    0    0    0  109    0  109    0

>  <Name>
FB1.pdb

>  <RI>
0

>  <Rbt.Current_Directory>
/home/fc/tossine/FB1_39/p3/3_clust03

>  <Rbt.Executable>
rbdock/0.1.0

>  <Rbt.Library>
librxdock.so/0.1.0

>  <Rbt.Parameter_File>
/cluster/rxdock/data/scripts/dock.prm

>  <Rbt.Receptor>
rx_4.prm

>  <SCORE>
37.0559

>  <SCORE.INTER>
7.56726

>  <SCORE.INTER.CONST>
1

>  <SCORE.INTER.POLAR>
-2.54357

>  <SCORE.INTER.REPUL>
0.610005

>  <SCORE.INTER.ROT>
32

>  <SCORE.INTER.VDW>
-24.2346

>  <SCORE.INTER.norm>
0.151345

>  <SCORE.INTRA>
28.5809

>  <SCORE.INTRA.DIHEDRAL>
40.3342

>  <SCORE.INTRA.DIHEDRAL.0>
47.3121

>  <SCORE.INTRA.POLAR>
0.340915

>  <SCORE.INTRA.POLAR.0>
-1.47808

>  <SCORE.INTRA.REPUL>
0.0971878

>  <SCORE.INTRA.REPUL.0>
0

>  <SCORE.INTRA.VDW>
6.7687

>  <SCORE.INTRA.VDW.0>
-2.78316

>  <SCORE.INTRA.norm>
0.571617

>  <SCORE.RESTR>
0.907785

>  <SCORE.RESTR.CAVITY>
0.907785

>  <SCORE.RESTR.norm>
0.0181557

>  <SCORE.SYSTEM>
0

>  <SCORE.SYSTEM.CONST>
0

>  <SCORE.SYSTEM.DIHEDRAL>
0

>  <SCORE.SYSTEM.norm>
0

>  <SCORE.heavy>
50

>  <SCORE.norm>
0.741118

$$$$
