FB1.pdb
  RxDock  10072017503D
librxdock.so/0.1.0
 59 58  0  0  0  0  0  0  0  0999 V2000
   -8.0801    8.9661   -9.5566 C   0  0  0  0  0  0
   -7.5956    8.9952  -11.0042 C   0  0  0  0  0  0
   -6.1050    9.3607  -11.0986 C   0  0  0  0  0  0
   -5.1605    8.2315  -10.6164 C   0  0  0  0  0  0
   -5.5142    6.7999  -11.1511 C   0  0  0  0  0  0
   -5.4141    6.8193  -12.6939 C   0  0  0  0  0  0
   -4.6056    5.6526  -10.5379 C   0  0  0  0  0  0
   -3.0233    5.9028  -10.5364 C   0  0  0  0  0  0
   -1.9250    4.8178  -10.9168 C   0  0  0  0  0  0
   -0.4032    5.1408  -10.3680 C   0  0  0  0  0  0
   -0.2318    4.4846   -8.9990 C   0  0  0  0  0  0
    0.7966    4.7041  -11.3244 C   0  0  0  0  0  0
    0.7768    4.8613  -12.9349 C   0  0  0  0  0  0
   -0.4043    4.3285  -13.8165 C   0  0  0  0  0  0
   -1.2134    3.0501  -13.3065 C   0  0  0  0  0  0
   -0.5832    1.6131  -13.1268 C   0  0  0  0  0  0
   -0.8715    0.8081  -11.8321 C   0  0  0  0  0  0
   -2.3869    0.5113  -11.5086 C   0  0  0  0  0  0
   -3.1461   -0.3405  -12.5335 C   0  0  0  0  0  0
   -4.7002   -0.3489  -12.4786 C   0  0  0  0  0  0
   -5.4938   -1.6654  -12.7285 C   0  0  0  0  0  0
   -6.8430   -1.7855  -12.0337 C   0  0  0  0  0  0
   -5.6185   -1.9377  -14.1731 N   0  0  0  0  0  0
   -5.0220    0.0305  -11.1161 O   0  0  0  0  0  0
   -2.4468   -0.1454  -10.2378 O   0  0  0  0  0  0
    0.8092    6.2794  -13.1682 O   0  0  0  0  0  0
   -2.7841    6.9969  -11.4628 O   0  0  0  0  0  0
   -1.7184    7.7996  -11.2073 C   0  0  0  0  0  0
   -0.8681    7.6176  -10.3568 O   0  0  0  0  0  0
   -1.7032    8.9083  -12.2232 C   0  0  0  0  0  0
   -1.6942   10.3023  -11.5756 C   0  0  0  0  0  0
   -3.0683   10.9827  -11.6241 C   0  0  0  0  0  0
   -2.9386   12.4827  -11.4948 C   0  0  0  0  0  0
   -2.5809   13.0464  -10.4663 O   0  0  0  0  0  0
   -3.2518   13.1449  -12.6184 O   0  0  0  0  0  0
   -1.2658   10.0872  -10.1175 C   0  0  0  0  0  0
   -0.1161   10.2347   -9.7315 O   0  0  0  0  0  0
   -2.2500    9.6746   -9.3069 O   0  0  0  0  0  0
   -5.1014    5.2318   -9.2048 O   0  0  0  0  0  0
   -6.3957    4.7491   -9.1053 C   0  0  0  0  0  0
   -7.2863    5.2743   -8.4501 O   0  0  0  0  0  0
   -6.6034    3.4636   -9.9169 C   0  0  0  0  0  0
   -7.7600    3.5027  -10.9634 C   0  0  0  0  0  0
   -7.6258    4.4695  -12.1540 C   0  0  0  0  0  0
   -8.3407    5.7718  -11.9356 C   0  0  0  0  0  0
   -8.7884    6.1698  -10.8690 O   0  0  0  0  0  0
   -8.4331    6.5010  -13.0581 O   0  0  0  0  0  0
   -8.1506    2.1335  -11.5335 C   0  0  0  0  0  0
   -9.2767    1.6833  -11.4571 O   0  0  0  0  0  0
   -7.1832    1.4973  -12.2268 O   0  0  0  0  0  0
   -6.3278   -1.3223  -14.5690 H   0  0  0  0  0  0
   -5.9905   -2.8821  -14.2966 H   0  0  0  0  0  0
   -5.7584    0.6716  -11.2060 H   0  0  0  0  0  0
   -3.3843   -0.2989  -10.0186 H   0  0  0  0  0  0
    1.0177    6.4252  -14.1061 H   0  0  0  0  0  0
   -3.5617   12.5875  -13.3578 H   0  0  0  0  0  0
   -1.9673    9.4986   -8.3753 H   0  0  0  0  0  0
   -8.0411    5.9617  -13.7770 H   0  0  0  0  0  0
   -7.4383    0.6235  -12.5979 H   0  0  0  0  0  0
  1  2  1  0  0  0
  2  3  1  0  0  0
  3  4  1  0  0  0
  4  5  1  0  0  0
  5  6  1  0  0  0
  5  7  1  0  0  0
  7  8  1  0  0  0
  7 39  1  0  0  0
  8  9  1  0  0  0
  8 27  1  0  0  0
  9 10  1  0  0  0
 10 11  1  0  0  0
 10 12  1  0  0  0
 12 13  1  0  0  0
 13 14  1  0  0  0
 13 26  1  0  0  0
 14 15  1  0  0  0
 15 16  1  0  0  0
 16 17  1  0  0  0
 17 18  1  0  0  0
 18 19  1  0  0  0
 18 25  1  0  0  0
 19 20  1  0  0  0
 20 21  1  0  0  0
 20 24  1  0  0  0
 21 22  1  0  0  0
 21 23  1  0  0  0
 23 51  1  0  0  0
 23 52  1  0  0  0
 24 53  1  0  0  0
 25 54  1  0  0  0
 26 55  1  0  0  0
 27 28  1  0  0  0
 28 29  2  0  0  0
 28 30  1  0  0  0
 30 31  1  0  0  0
 31 32  1  0  0  0
 31 36  1  0  0  0
 32 33  1  0  0  0
 33 34  2  0  0  0
 33 35  1  0  0  0
 35 56  1  0  0  0
 36 37  2  0  0  0
 36 38  1  0  0  0
 38 57  1  0  0  0
 39 40  1  0  0  0
 40 41  2  0  0  0
 40 42  1  0  0  0
 42 43  1  0  0  0
 43 44  1  0  0  0
 43 48  1  0  0  0
 44 45  1  0  0  0
 45 46  2  0  0  0
 45 47  1  0  0  0
 47 58  1  0  0  0
 48 49  2  0  0  0
 48 50  1  0  0  0
 50 59  1  0  0  0
M  END
>  <AUTHOR>
    GENERATED BY OPEN BABEL 2.4.1

>  <CHROM.1>
72.00782271,45.50765577,61.35354479,-48.06117315,-137.29370161,58.61547043
-160.46576101,149.94407210,91.43786592,39.84961977,-51.28480889,-29.96511886
166.32300178,-63.71334828,133.91063542,58.28581251,62.07355214,-163.82488206
177.81421145,-140.84588026,151.23123711,136.58416592,-76.22196877,7.73837061
124.66270721,-103.01326076,-157.96142375,96.98975708,-68.60477351,2.77055403
177.53397482,-117.31113041,-124.39969016,65.26123066,-96.60929422,122.44243103
12.61475501,3.16220144,-179.48817274,-4.01232533,5.33303427,-11.33662074
1.30994398,0.07550208,0.12101381

>  <COMPND>
    UNNAMED

>  <MASTER>
        0    0    0    0    0    0    0    0  109    0  109    0

>  <Name>
FB1.pdb

>  <RI>
0

>  <Rbt.Current_Directory>
/home/fc/tossine/FB1_39/p3/3_clust03

>  <Rbt.Executable>
rbdock/0.1.0

>  <Rbt.Library>
librxdock.so/0.1.0

>  <Rbt.Parameter_File>
/cluster/rxdock/data/scripts/dock.prm

>  <Rbt.Receptor>
rx_3.prm

>  <SCORE>
25.4779

>  <SCORE.INTER>
4.53709

>  <SCORE.INTER.CONST>
1

>  <SCORE.INTER.POLAR>
-2.80101

>  <SCORE.INTER.REPUL>
0.113428

>  <SCORE.INTER.ROT>
32

>  <SCORE.INTER.VDW>
-23.9066

>  <SCORE.INTER.norm>
0.0907417

>  <SCORE.INTRA>
19.7755

>  <SCORE.INTRA.DIHEDRAL>
32.9822

>  <SCORE.INTRA.DIHEDRAL.0>
47.3121

>  <SCORE.INTRA.POLAR>
-0.0961722

>  <SCORE.INTRA.POLAR.0>
-1.47808

>  <SCORE.INTRA.REPUL>
0

>  <SCORE.INTRA.REPUL.0>
0

>  <SCORE.INTRA.VDW>
3.61141

>  <SCORE.INTRA.VDW.0>
-2.78316

>  <SCORE.INTRA.norm>
0.39551

>  <SCORE.RESTR>
1.16532

>  <SCORE.RESTR.CAVITY>
1.16532

>  <SCORE.RESTR.norm>
0.0233065

>  <SCORE.SYSTEM>
0

>  <SCORE.SYSTEM.CONST>
0

>  <SCORE.SYSTEM.DIHEDRAL>
0

>  <SCORE.SYSTEM.norm>
0

>  <SCORE.heavy>
50

>  <SCORE.norm>
0.509559

$$$$
