FB1.pdb
  RxDock  10072017073D
librxdock.so/0.1.0
 59 58  0  0  0  0  0  0  0  0999 V2000
   -8.5504    3.4738  -14.5134 C   0  0  0  0  0  0
   -8.5039    3.9709  -13.0704 C   0  0  0  0  0  0
   -7.1720    4.6699  -12.7516 C   0  0  0  0  0  0
   -5.9422    3.7341  -12.8595 C   0  0  0  0  0  0
   -4.5903    4.3589  -12.3671 C   0  0  0  0  0  0
   -4.6856    4.5807  -10.8399 C   0  0  0  0  0  0
   -3.3178    3.4854  -12.7354 C   0  0  0  0  0  0
   -1.9455    3.8544  -11.9958 C   0  0  0  0  0  0
   -0.6174    2.9814  -12.0425 C   0  0  0  0  0  0
   -0.3273    2.0766  -10.6940 C   0  0  0  0  0  0
   -0.6612    2.9187   -9.4638 C   0  0  0  0  0  0
   -1.0901    0.6782  -10.6081 C   0  0  0  0  0  0
   -1.0666   -0.2903   -9.3120 C   0  0  0  0  0  0
   -1.7749   -1.6882   -9.2948 C   0  0  0  0  0  0
   -3.0182   -1.8953   -8.3148 C   0  0  0  0  0  0
   -3.0343   -2.9054   -7.1008 C   0  0  0  0  0  0
   -4.3915   -3.4163   -6.5491 C   0  0  0  0  0  0
   -5.3834   -2.3228   -5.9925 C   0  0  0  0  0  0
   -6.8109   -2.7932   -5.6866 C   0  0  0  0  0  0
   -7.0286   -3.7547   -4.4840 C   0  0  0  0  0  0
   -8.4662   -4.1739   -4.0562 C   0  0  0  0  0  0
   -9.3048   -4.8878   -5.1071 C   0  0  0  0  0  0
   -8.4371   -4.9396   -2.7955 N   0  0  0  0  0  0
   -6.3792   -4.9901   -4.8788 O   0  0  0  0  0  0
   -4.8166   -1.7811   -4.7946 O   0  0  0  0  0  0
    0.3250   -0.5720   -9.0863 O   0  0  0  0  0  0
   -1.5418    5.1517  -12.5122 O   0  0  0  0  0  0
   -1.1548    6.0841  -11.6033 C   0  0  0  0  0  0
   -0.8153    5.8718  -10.4548 O   0  0  0  0  0  0
   -1.1165    7.4247  -12.2836 C   0  0  0  0  0  0
   -0.1297    8.3968  -11.6173 C   0  0  0  0  0  0
   -0.5280    8.7448  -10.1773 C   0  0  0  0  0  0
   -1.8940    9.3890  -10.1301 C   0  0  0  0  0  0
   -2.2606   10.2598  -10.9118 O   0  0  0  0  0  0
   -2.6746    8.9152   -9.1477 O   0  0  0  0  0  0
    1.2324    7.6893  -11.6292 C   0  0  0  0  0  0
    1.8747    7.4619  -10.6152 O   0  0  0  0  0  0
    1.6859    7.3832  -12.8526 O   0  0  0  0  0  0
   -3.6206    2.0359  -12.6507 O   0  0  0  0  0  0
   -2.8230    1.1534  -13.3600 C   0  0  0  0  0  0
   -1.8074    1.4667  -13.9674 O   0  0  0  0  0  0
   -3.3525   -0.2856  -13.3050 C   0  0  0  0  0  0
   -4.6119   -0.5103  -12.4118 C   0  0  0  0  0  0
   -5.8248    0.4135  -12.6260 C   0  0  0  0  0  0
   -6.5725    0.7037  -11.3566 C   0  0  0  0  0  0
   -6.1062    0.6545  -10.2267 O   0  0  0  0  0  0
   -7.8477    1.0553  -11.5812 O   0  0  0  0  0  0
   -5.1367   -1.9514  -12.4004 C   0  0  0  0  0  0
   -5.9991   -2.3461  -13.1601 O   0  0  0  0  0  0
   -4.5012   -2.7928  -11.5580 O   0  0  0  0  0  0
   -7.8565   -4.4464   -2.1185 H   0  0  0  0  0  0
   -7.9533   -5.8248   -2.9621 H   0  0  0  0  0  0
   -6.3678   -5.5343   -4.0633 H   0  0  0  0  0  0
   -3.9881   -1.3241   -5.0297 H   0  0  0  0  0  0
    0.6872   -0.9667   -9.8971 H   0  0  0  0  0  0
   -2.2977    8.1727   -8.6376 H   0  0  0  0  0  0
    2.6233    7.0675  -12.8752 H   0  0  0  0  0  0
   -8.2048    1.3792  -10.7274 H   0  0  0  0  0  0
   -3.8692   -2.3670  -10.9371 H   0  0  0  0  0  0
  1  2  1  0  0  0
  2  3  1  0  0  0
  3  4  1  0  0  0
  4  5  1  0  0  0
  5  6  1  0  0  0
  5  7  1  0  0  0
  7  8  1  0  0  0
  7 39  1  0  0  0
  8  9  1  0  0  0
  8 27  1  0  0  0
  9 10  1  0  0  0
 10 11  1  0  0  0
 10 12  1  0  0  0
 12 13  1  0  0  0
 13 14  1  0  0  0
 13 26  1  0  0  0
 14 15  1  0  0  0
 15 16  1  0  0  0
 16 17  1  0  0  0
 17 18  1  0  0  0
 18 19  1  0  0  0
 18 25  1  0  0  0
 19 20  1  0  0  0
 20 21  1  0  0  0
 20 24  1  0  0  0
 21 22  1  0  0  0
 21 23  1  0  0  0
 23 51  1  0  0  0
 23 52  1  0  0  0
 24 53  1  0  0  0
 25 54  1  0  0  0
 26 55  1  0  0  0
 27 28  1  0  0  0
 28 29  2  0  0  0
 28 30  1  0  0  0
 30 31  1  0  0  0
 31 32  1  0  0  0
 31 36  1  0  0  0
 32 33  1  0  0  0
 33 34  2  0  0  0
 33 35  1  0  0  0
 35 56  1  0  0  0
 36 37  2  0  0  0
 36 38  1  0  0  0
 38 57  1  0  0  0
 39 40  1  0  0  0
 40 41  2  0  0  0
 40 42  1  0  0  0
 42 43  1  0  0  0
 43 44  1  0  0  0
 43 48  1  0  0  0
 44 45  1  0  0  0
 45 46  2  0  0  0
 45 47  1  0  0  0
 47 58  1  0  0  0
 48 49  2  0  0  0
 48 50  1  0  0  0
 50 59  1  0  0  0
M  END
>  <AUTHOR>
    GENERATED BY OPEN BABEL 2.4.1

>  <CHROM.1>
-63.05873162,-172.59171765,66.96496023,-166.30005447,170.08893441,157.85412701
-102.29072745,133.06405862,-41.47415323,-173.51404003,-177.02339676,-114.11554204
-57.09062401,-115.78660989,-157.56049375,-60.26128068,169.27629393,69.40223626
64.38695739,175.06921237,59.37281372,169.66071756,48.02513697,18.23401854
-153.74211649,-63.80551923,-59.61630943,-122.22595857,-43.97623744,-4.73414006
170.24820269,6.60663439,-3.54228064,51.05468152,-146.10856191,-92.68676706
24.43773489,-169.96758627,9.45360239,-3.65525235,1.82870780,-10.23881653
1.04194037,-0.61255272,-0.79264732

>  <COMPND>
    UNNAMED

>  <MASTER>
        0    0    0    0    0    0    0    0  109    0  109    0

>  <Name>
FB1.pdb

>  <RI>
0

>  <Rbt.Current_Directory>
/home/fc/tossine/FB1_39/p3/3_clust03

>  <Rbt.Executable>
rbdock/0.1.0

>  <Rbt.Library>
librxdock.so/0.1.0

>  <Rbt.Parameter_File>
/cluster/rxdock/data/scripts/dock.prm

>  <Rbt.Receptor>
rx_2.prm

>  <SCORE>
21.3896

>  <SCORE.INTER>
11.0352

>  <SCORE.INTER.CONST>
1

>  <SCORE.INTER.POLAR>
-2.13877

>  <SCORE.INTER.REPUL>
0.599393

>  <SCORE.INTER.ROT>
32

>  <SCORE.INTER.VDW>
-22.09

>  <SCORE.INTER.norm>
0.220703

>  <SCORE.INTRA>
7.25081

>  <SCORE.INTRA.DIHEDRAL>
4.461

>  <SCORE.INTRA.DIHEDRAL.0>
47.3121

>  <SCORE.INTRA.POLAR>
1.47808

>  <SCORE.INTRA.POLAR.0>
-1.47808

>  <SCORE.INTRA.REPUL>
0

>  <SCORE.INTRA.REPUL.0>
0

>  <SCORE.INTRA.VDW>
-0.00515133

>  <SCORE.INTRA.VDW.0>
-2.78316

>  <SCORE.INTRA.norm>
0.145016

>  <SCORE.RESTR>
3.10364

>  <SCORE.RESTR.CAVITY>
3.10364

>  <SCORE.RESTR.norm>
0.0620728

>  <SCORE.SYSTEM>
0

>  <SCORE.SYSTEM.CONST>
0

>  <SCORE.SYSTEM.DIHEDRAL>
0

>  <SCORE.SYSTEM.norm>
0

>  <SCORE.heavy>
50

>  <SCORE.norm>
0.427792

$$$$
