FB1.pdb
  RxDock  10072017443D
librxdock.so/0.1.0
 59 58  0  0  0  0  0  0  0  0999 V2000
  -10.5556    4.4256  -11.5244 C   0  0  0  0  0  0
   -9.9923    3.4177  -12.5235 C   0  0  0  0  0  0
   -8.8859    2.5528  -11.8974 C   0  0  0  0  0  0
   -8.4280    1.3838  -12.8047 C   0  0  0  0  0  0
   -7.2896    0.4871  -12.2044 C   0  0  0  0  0  0
   -7.3325   -0.8885  -12.9091 C   0  0  0  0  0  0
   -5.8463    1.1370  -12.3160 C   0  0  0  0  0  0
   -5.7063    2.6725  -11.8814 C   0  0  0  0  0  0
   -4.3421    3.3949  -11.5004 C   0  0  0  0  0  0
   -3.0944    3.1298  -12.5465 C   0  0  0  0  0  0
   -3.3403    3.9492  -13.8124 C   0  0  0  0  0  0
   -1.6316    3.4346  -11.9878 C   0  0  0  0  0  0
   -0.3013    3.4866  -12.9077 C   0  0  0  0  0  0
    1.0244    4.1723  -12.4297 C   0  0  0  0  0  0
    0.9587    5.6920  -11.9445 C   0  0  0  0  0  0
    0.8847    6.9333  -12.9183 C   0  0  0  0  0  0
    1.6278    8.2432  -12.5451 C   0  0  0  0  0  0
    0.9772    9.1245  -11.4097 C   0  0  0  0  0  0
    0.6399    8.4030  -10.0989 C   0  0  0  0  0  0
   -0.8185    8.4859   -9.5658 C   0  0  0  0  0  0
   -2.0187    8.1028  -10.4813 C   0  0  0  0  0  0
   -2.2131    6.6185  -10.7579 C   0  0  0  0  0  0
   -3.2686    8.7163   -9.9935 N   0  0  0  0  0  0
   -0.8640    7.5364   -8.4702 O   0  0  0  0  0  0
    1.8740   10.2017  -11.1182 O   0  0  0  0  0  0
    0.0477    2.1100  -13.1309 O   0  0  0  0  0  0
   -6.2327    3.4570  -12.9859 O   0  0  0  0  0  0
   -6.2966    4.8027  -12.8113 C   0  0  0  0  0  0
   -5.9310    5.6492  -13.6045 O   0  0  0  0  0  0
   -6.9925    5.0810  -11.5076 C   0  0  0  0  0  0
   -6.0780    5.7771  -10.4871 C   0  0  0  0  0  0
   -5.6989    7.2016  -10.9120 C   0  0  0  0  0  0
   -6.8909    7.9366  -11.4796 C   0  0  0  0  0  0
   -7.7059    8.5411  -10.7910 O   0  0  0  0  0  0
   -6.9744    7.8675  -12.8164 O   0  0  0  0  0  0
   -6.8663    5.8140   -9.1706 C   0  0  0  0  0  0
   -6.5036    5.2320   -8.1595 O   0  0  0  0  0  0
   -8.0162    6.4993   -9.2335 O   0  0  0  0  0  0
   -4.8224    0.2819  -11.6677 O   0  0  0  0  0  0
   -4.9922   -0.0541  -10.3349 C   0  0  0  0  0  0
   -5.9907   -0.5917   -9.8740 O   0  0  0  0  0  0
   -3.7764    0.3232   -9.4783 C   0  0  0  0  0  0
   -2.4756   -0.4940   -9.7514 C   0  0  0  0  0  0
   -1.6267   -0.1137  -10.9783 C   0  0  0  0  0  0
   -2.3314   -0.3655  -12.2800 C   0  0  0  0  0  0
   -2.2874    0.3566  -13.2665 O   0  0  0  0  0  0
   -3.0291   -1.5116  -12.2725 O   0  0  0  0  0  0
   -1.5221   -0.5937   -8.5542 C   0  0  0  0  0  0
   -1.0900   -1.6515   -8.1406 O   0  0  0  0  0  0
   -1.1025    0.5848   -8.0479 O   0  0  0  0  0  0
   -3.4849    9.5325  -10.5641 H   0  0  0  0  0  0
   -3.1057    9.0870   -9.0546 H   0  0  0  0  0  0
   -0.5436    6.6954   -8.8592 H   0  0  0  0  0  0
    1.4731   10.7507  -10.4193 H   0  0  0  0  0  0
   -0.7367    1.6534  -13.4784 H   0  0  0  0  0  0
   -6.2390    7.3991  -13.2561 H   0  0  0  0  0  0
   -8.5097    6.5517   -8.3776 H   0  0  0  0  0  0
   -3.8834   -1.3237  -12.7156 H   0  0  0  0  0  0
   -0.4433    0.5187   -7.3218 H   0  0  0  0  0  0
  1  2  1  0  0  0
  2  3  1  0  0  0
  3  4  1  0  0  0
  4  5  1  0  0  0
  5  6  1  0  0  0
  5  7  1  0  0  0
  7  8  1  0  0  0
  7 39  1  0  0  0
  8  9  1  0  0  0
  8 27  1  0  0  0
  9 10  1  0  0  0
 10 11  1  0  0  0
 10 12  1  0  0  0
 12 13  1  0  0  0
 13 14  1  0  0  0
 13 26  1  0  0  0
 14 15  1  0  0  0
 15 16  1  0  0  0
 16 17  1  0  0  0
 17 18  1  0  0  0
 18 19  1  0  0  0
 18 25  1  0  0  0
 19 20  1  0  0  0
 20 21  1  0  0  0
 20 24  1  0  0  0
 21 22  1  0  0  0
 21 23  1  0  0  0
 23 51  1  0  0  0
 23 52  1  0  0  0
 24 53  1  0  0  0
 25 54  1  0  0  0
 26 55  1  0  0  0
 27 28  1  0  0  0
 28 29  2  0  0  0
 28 30  1  0  0  0
 30 31  1  0  0  0
 31 32  1  0  0  0
 31 36  1  0  0  0
 32 33  1  0  0  0
 33 34  2  0  0  0
 33 35  1  0  0  0
 35 56  1  0  0  0
 36 37  2  0  0  0
 36 38  1  0  0  0
 38 57  1  0  0  0
 39 40  1  0  0  0
 40 41  2  0  0  0
 40 42  1  0  0  0
 42 43  1  0  0  0
 43 44  1  0  0  0
 43 48  1  0  0  0
 44 45  1  0  0  0
 45 46  2  0  0  0
 45 47  1  0  0  0
 47 58  1  0  0  0
 48 49  2  0  0  0
 48 50  1  0  0  0
 50 59  1  0  0  0
M  END
>  <AUTHOR>
    GENERATED BY OPEN BABEL 2.4.1

>  <CHROM.1>
171.64389530,179.43425637,157.92160063,46.61827133,160.89898543,-56.69878236
47.12470733,175.95866570,74.63466243,-169.16256702,162.18927655,-54.61977813
52.85499302,-78.04853522,-143.69416731,-74.67347924,51.88369142,-125.04046343
179.75675026,52.82940686,73.37452077,-53.87485077,101.69955863,133.42108280
116.03526095,67.22741536,42.31719948,116.57052813,85.44903735,-3.15745578
-177.90602254,54.88682110,-68.24389633,79.03743334,-65.63674127,127.69291179
140.90752249,138.10163207,-175.91685646,-3.85499922,3.95927135,-11.27266433
2.25664741,0.05423166,-3.12929087

>  <COMPND>
    UNNAMED

>  <MASTER>
        0    0    0    0    0    0    0    0  109    0  109    0

>  <Name>
FB1.pdb

>  <RI>
0

>  <Rbt.Current_Directory>
/home/fc/tossine/FB1_39/p3/3_clust03

>  <Rbt.Executable>
rbdock/0.1.0

>  <Rbt.Library>
librxdock.so/0.1.0

>  <Rbt.Parameter_File>
/cluster/rxdock/data/scripts/dock.prm

>  <Rbt.Receptor>
rx_3.prm

>  <SCORE>
25.7811

>  <SCORE.INTER>
13.1621

>  <SCORE.INTER.CONST>
1

>  <SCORE.INTER.POLAR>
-0.845675

>  <SCORE.INTER.REPUL>
0.770318

>  <SCORE.INTER.ROT>
32

>  <SCORE.INTER.VDW>
-25.2142

>  <SCORE.INTER.norm>
0.263242

>  <SCORE.INTRA>
11.8316

>  <SCORE.INTRA.DIHEDRAL>
28.9947

>  <SCORE.INTRA.DIHEDRAL.0>
47.3121

>  <SCORE.INTRA.POLAR>
-0.325698

>  <SCORE.INTRA.POLAR.0>
-1.47808

>  <SCORE.INTRA.REPUL>
0

>  <SCORE.INTRA.REPUL.0>
0

>  <SCORE.INTRA.VDW>
-1.55835

>  <SCORE.INTRA.VDW.0>
-2.78316

>  <SCORE.INTRA.norm>
0.236633

>  <SCORE.RESTR>
0.787337

>  <SCORE.RESTR.CAVITY>
0.787337

>  <SCORE.RESTR.norm>
0.0157467

>  <SCORE.SYSTEM>
0

>  <SCORE.SYSTEM.CONST>
0

>  <SCORE.SYSTEM.DIHEDRAL>
0

>  <SCORE.SYSTEM.norm>
0

>  <SCORE.heavy>
50

>  <SCORE.norm>
0.515622

$$$$
