FB1.pdb
  RxDock  10072015133D
librxdock.so/0.1.0
 59 58  0  0  0  0  0  0  0  0999 V2000
   -4.1285   -2.6345   -5.3233 C   0  0  0  0  0  0
   -5.0148   -3.0574   -6.4925 C   0  0  0  0  0  0
   -4.2583   -3.0009   -7.8299 C   0  0  0  0  0  0
   -4.0334   -1.5599   -8.3519 C   0  0  0  0  0  0
   -4.8889   -1.1700   -9.6075 C   0  0  0  0  0  0
   -6.3298   -0.8642   -9.1374 C   0  0  0  0  0  0
   -4.2894    0.0482  -10.4288 C   0  0  0  0  0  0
   -3.8449   -0.2440  -11.9398 C   0  0  0  0  0  0
   -2.5548    0.3591  -12.6470 C   0  0  0  0  0  0
   -1.5813    1.2653  -11.6710 C   0  0  0  0  0  0
   -0.7353    0.3213  -10.8183 C   0  0  0  0  0  0
   -0.6333    2.3175  -12.4051 C   0  0  0  0  0  0
   -0.3022    3.7945  -11.8328 C   0  0  0  0  0  0
   -1.3839    4.9255  -11.7505 C   0  0  0  0  0  0
   -1.1522    6.2583  -12.5985 C   0  0  0  0  0  0
   -2.1835    7.4519  -12.6775 C   0  0  0  0  0  0
   -3.0465    7.8001  -11.4360 C   0  0  0  0  0  0
   -2.2775    8.3573  -10.1760 C   0  0  0  0  0  0
   -1.1250    7.4945   -9.6471 C   0  0  0  0  0  0
    0.2680    7.6288  -10.3252 C   0  0  0  0  0  0
    1.3726    8.5262   -9.6929 C   0  0  0  0  0  0
    2.6909    8.6122  -10.4494 C   0  0  0  0  0  0
    0.8482    9.8720   -9.3926 N   0  0  0  0  0  0
    0.8175    6.2866  -10.3051 O   0  0  0  0  0  0
   -1.7615    9.6504  -10.5097 O   0  0  0  0  0  0
    0.1194    3.5790  -10.4755 O   0  0  0  0  0  0
   -3.6709   -1.6834  -12.0411 O   0  0  0  0  0  0
   -4.7929   -2.4298  -12.2129 C   0  0  0  0  0  0
   -5.8494   -2.0443  -12.6762 O   0  0  0  0  0  0
   -4.4834   -3.8500  -11.8276 C   0  0  0  0  0  0
   -2.9739   -4.1131  -11.7058 C   0  0  0  0  0  0
   -2.3532   -3.4248  -10.4834 C   0  0  0  0  0  0
   -0.8608   -3.2576  -10.6513 C   0  0  0  0  0  0
   -0.0359   -3.6887   -9.8530 O   0  0  0  0  0  0
   -0.5197   -2.5905  -11.7637 O   0  0  0  0  0  0
   -2.8194   -5.6356  -11.5862 C   0  0  0  0  0  0
   -2.7109   -6.2128  -10.5150 O   0  0  0  0  0  0
   -2.7632   -6.2796  -12.7601 O   0  0  0  0  0  0
   -5.1629    1.2427  -10.3291 O   0  0  0  0  0  0
   -6.2621    1.3272  -11.1674 C   0  0  0  0  0  0
   -6.6218    0.4443  -11.9352 O   0  0  0  0  0  0
   -6.9979    2.6668  -11.0322 C   0  0  0  0  0  0
   -8.1329    2.9241  -12.0714 C   0  0  0  0  0  0
   -9.5370    3.2650  -11.5395 C   0  0  0  0  0  0
  -10.6170    3.0626  -12.5628 C   0  0  0  0  0  0
  -11.4508    2.1675  -12.5528 O   0  0  0  0  0  0
  -10.5983    4.0015  -13.5212 O   0  0  0  0  0  0
   -7.7906    3.9644  -13.1452 C   0  0  0  0  0  0
   -8.0322    5.1485  -13.0182 O   0  0  0  0  0  0
   -7.1009    3.4961  -14.2065 O   0  0  0  0  0  0
    0.6981   10.3747  -10.2663 H   0  0  0  0  0  0
    1.5726   10.4034   -8.9042 H   0  0  0  0  0  0
    1.5839    6.3247  -10.9155 H   0  0  0  0  0  0
   -1.1623    9.5513  -11.2723 H   0  0  0  0  0  0
    0.7684    4.2661  -10.2495 H   0  0  0  0  0  0
    0.4323   -2.3938  -11.8561 H   0  0  0  0  0  0
   -2.6093   -7.2541  -12.6862 H   0  0  0  0  0  0
  -11.3431    3.8005  -14.1264 H   0  0  0  0  0  0
   -6.9008    4.1601  -14.9031 H   0  0  0  0  0  0
  1  2  1  0  0  0
  2  3  1  0  0  0
  3  4  1  0  0  0
  4  5  1  0  0  0
  5  6  1  0  0  0
  5  7  1  0  0  0
  7  8  1  0  0  0
  7 39  1  0  0  0
  8  9  1  0  0  0
  8 27  1  0  0  0
  9 10  1  0  0  0
 10 11  1  0  0  0
 10 12  1  0  0  0
 12 13  1  0  0  0
 13 14  1  0  0  0
 13 26  1  0  0  0
 14 15  1  0  0  0
 15 16  1  0  0  0
 16 17  1  0  0  0
 17 18  1  0  0  0
 18 19  1  0  0  0
 18 25  1  0  0  0
 19 20  1  0  0  0
 20 21  1  0  0  0
 20 24  1  0  0  0
 21 22  1  0  0  0
 21 23  1  0  0  0
 23 51  1  0  0  0
 23 52  1  0  0  0
 24 53  1  0  0  0
 25 54  1  0  0  0
 26 55  1  0  0  0
 27 28  1  0  0  0
 28 29  2  0  0  0
 28 30  1  0  0  0
 30 31  1  0  0  0
 31 32  1  0  0  0
 31 36  1  0  0  0
 32 33  1  0  0  0
 33 34  2  0  0  0
 33 35  1  0  0  0
 35 56  1  0  0  0
 36 37  2  0  0  0
 36 38  1  0  0  0
 38 57  1  0  0  0
 39 40  1  0  0  0
 40 41  2  0  0  0
 40 42  1  0  0  0
 42 43  1  0  0  0
 43 44  1  0  0  0
 43 48  1  0  0  0
 44 45  1  0  0  0
 45 46  2  0  0  0
 45 47  1  0  0  0
 47 58  1  0  0  0
 48 49  2  0  0  0
 48 50  1  0  0  0
 50 59  1  0  0  0
M  END
>  <AUTHOR>
    GENERATED BY OPEN BABEL 2.4.1

>  <CHROM.1>
-74.23017921,-108.86747444,77.50750602,117.51098212,-141.07690985,-82.18610265
4.34927588,80.81008939,78.72489726,141.81894467,-68.24369392,-118.05023222
148.63840597,176.71500098,34.10207459,66.39368762,-54.44177351,83.36979469
-59.59947555,98.17735620,-178.80363246,166.71430561,-71.15641793,23.29145874
-14.31698343,70.56711706,-158.93800523,-96.23806950,-123.93093896,174.47250348
176.51620035,4.89167665,172.19997456,125.08222087,-161.67392672,-90.73968256
108.27928813,-178.79371919,178.63254998,-3.61219338,1.63422826,-11.07417215
-1.83614919,-0.22110665,-0.08385431

>  <COMPND>
    UNNAMED

>  <MASTER>
        0    0    0    0    0    0    0    0  109    0  109    0

>  <Name>
FB1.pdb

>  <RI>
0

>  <Rbt.Current_Directory>
/home/fc/tossine/FB1_39/p3/3_clust03

>  <Rbt.Executable>
rbdock/0.1.0

>  <Rbt.Library>
librxdock.so/0.1.0

>  <Rbt.Parameter_File>
/cluster/rxdock/data/scripts/dock.prm

>  <Rbt.Receptor>
rx_0.prm

>  <SCORE>
26.1691

>  <SCORE.INTER>
7.36056

>  <SCORE.INTER.CONST>
1

>  <SCORE.INTER.POLAR>
-1.99701

>  <SCORE.INTER.REPUL>
0.319746

>  <SCORE.INTER.ROT>
32

>  <SCORE.INTER.VDW>
-24.8483

>  <SCORE.INTER.norm>
0.147211

>  <SCORE.INTRA>
17.914

>  <SCORE.INTRA.DIHEDRAL>
28.4971

>  <SCORE.INTRA.DIHEDRAL.0>
47.3121

>  <SCORE.INTRA.POLAR>
0.762869

>  <SCORE.INTRA.POLAR.0>
-1.47808

>  <SCORE.INTRA.REPUL>
0.29214

>  <SCORE.INTRA.REPUL.0>
0

>  <SCORE.INTRA.VDW>
-0.388943

>  <SCORE.INTRA.VDW.0>
-2.78316

>  <SCORE.INTRA.norm>
0.358281

>  <SCORE.RESTR>
0.894504

>  <SCORE.RESTR.CAVITY>
0.894504

>  <SCORE.RESTR.norm>
0.0178901

>  <SCORE.SYSTEM>
0

>  <SCORE.SYSTEM.CONST>
0

>  <SCORE.SYSTEM.DIHEDRAL>
0

>  <SCORE.SYSTEM.norm>
0

>  <SCORE.heavy>
50

>  <SCORE.norm>
0.523382

$$$$
