FB1.pdb
  RxDock  10072018243D
librxdock.so/0.1.0
 59 58  0  0  0  0  0  0  0  0999 V2000
    5.5138   -3.5368    7.0911 C   0  0  0  0  0  0
    4.0844   -3.9475    6.7455 C   0  0  0  0  0  0
    3.2126   -2.7316    6.3907 C   0  0  0  0  0  0
    1.7227   -3.0865    6.1589 C   0  0  0  0  0  0
    1.2728   -3.1041    4.6563 C   0  0  0  0  0  0
    1.6372   -1.7409    4.0243 C   0  0  0  0  0  0
    1.8971   -4.3011    3.8224 C   0  0  0  0  0  0
    1.4397   -4.4364    2.2931 C   0  0  0  0  0  0
    1.4610   -3.2595    1.2242 C   0  0  0  0  0  0
    0.2965   -3.3513    0.0594 C   0  0  0  0  0  0
    0.8485   -4.1559   -1.1162 C   0  0  0  0  0  0
   -1.1057   -3.9615    0.5137 C   0  0  0  0  0  0
   -2.4938   -3.7419   -0.2886 C   0  0  0  0  0  0
   -2.7730   -4.4041   -1.6814 C   0  0  0  0  0  0
   -1.8399   -4.0006   -2.9125 C   0  0  0  0  0  0
   -2.1938   -2.8774   -3.9650 C   0  0  0  0  0  0
   -3.3304   -3.1229   -4.9923 C   0  0  0  0  0  0
   -3.2011   -2.3806   -6.3784 C   0  0  0  0  0  0
   -2.4582   -3.1364   -7.4872 C   0  0  0  0  0  0
   -3.0039   -4.5248   -7.9264 C   0  0  0  0  0  0
   -2.4776   -5.2078   -9.2232 C   0  0  0  0  0  0
   -2.4982   -4.3635  -10.4898 C   0  0  0  0  0  0
   -1.1426   -5.7956   -9.0029 N   0  0  0  0  0  0
   -2.6308   -5.4235   -6.8508 O   0  0  0  0  0  0
   -4.5213   -2.0763   -6.8413 O   0  0  0  0  0  0
   -3.5113   -4.2609    0.5843 O   0  0  0  0  0  0
    2.2784   -5.4692    1.7080 O   0  0  0  0  0  0
    1.6476   -6.4781    1.0526 C   0  0  0  0  0  0
    0.5498   -6.9311    1.3153 O   0  0  0  0  0  0
    2.4911   -6.8811   -0.1254 C   0  0  0  0  0  0
    3.8559   -7.4508    0.2932 C   0  0  0  0  0  0
    3.7272   -8.6608    1.2275 C   0  0  0  0  0  0
    2.6878   -9.6331    0.7201 C   0  0  0  0  0  0
    1.6766   -9.9327    1.3458 O   0  0  0  0  0  0
    2.9751  -10.1405   -0.4877 O   0  0  0  0  0  0
    4.5575   -7.8642   -1.0079 C   0  0  0  0  0  0
    3.9568   -8.0840   -2.0487 O   0  0  0  0  0  0
    5.8847   -8.0133   -0.8974 O   0  0  0  0  0  0
    3.3729   -4.3406    3.9651 O   0  0  0  0  0  0
    3.9985   -5.5756    4.0041 C   0  0  0  0  0  0
    3.4181   -6.6521    3.9523 O   0  0  0  0  0  0
    5.5236   -5.4541    4.1205 C   0  0  0  0  0  0
    6.2927   -6.7892    4.3666 C   0  0  0  0  0  0
    7.5074   -7.0996    3.4729 C   0  0  0  0  0  0
    7.1321   -7.3599    2.0426 C   0  0  0  0  0  0
    7.3399   -8.3969    1.4278 O   0  0  0  0  0  0
    6.5047   -6.3165    1.4786 O   0  0  0  0  0  0
    6.7297   -7.0149    5.8193 C   0  0  0  0  0  0
    6.4470   -8.0171    6.4457 O   0  0  0  0  0  0
    7.5464   -6.0707    6.3320 O   0  0  0  0  0  0
   -0.7735   -5.4624   -8.1134 H   0  0  0  0  0  0
   -0.5022   -5.4256   -9.7089 H   0  0  0  0  0  0
   -3.0168   -6.2878   -7.1063 H   0  0  0  0  0  0
   -4.4440   -1.5910   -7.6833 H   0  0  0  0  0  0
   -4.3635   -3.8817    0.3116 H   0  0  0  0  0  0
    2.3504  -10.8157   -0.8153 H   0  0  0  0  0  0
    6.3432   -8.2447   -1.7429 H   0  0  0  0  0  0
    6.3063   -6.5741    0.5536 H   0  0  0  0  0  0
    7.8769   -6.2499    7.2402 H   0  0  0  0  0  0
  1  2  1  0  0  0
  2  3  1  0  0  0
  3  4  1  0  0  0
  4  5  1  0  0  0
  5  6  1  0  0  0
  5  7  1  0  0  0
  7  8  1  0  0  0
  7 39  1  0  0  0
  8  9  1  0  0  0
  8 27  1  0  0  0
  9 10  1  0  0  0
 10 11  1  0  0  0
 10 12  1  0  0  0
 12 13  1  0  0  0
 13 14  1  0  0  0
 13 26  1  0  0  0
 14 15  1  0  0  0
 15 16  1  0  0  0
 16 17  1  0  0  0
 17 18  1  0  0  0
 18 19  1  0  0  0
 18 25  1  0  0  0
 19 20  1  0  0  0
 20 21  1  0  0  0
 20 24  1  0  0  0
 21 22  1  0  0  0
 21 23  1  0  0  0
 23 51  1  0  0  0
 23 52  1  0  0  0
 24 53  1  0  0  0
 25 54  1  0  0  0
 26 55  1  0  0  0
 27 28  1  0  0  0
 28 29  2  0  0  0
 28 30  1  0  0  0
 30 31  1  0  0  0
 31 32  1  0  0  0
 31 36  1  0  0  0
 32 33  1  0  0  0
 33 34  2  0  0  0
 33 35  1  0  0  0
 35 56  1  0  0  0
 36 37  2  0  0  0
 36 38  1  0  0  0
 38 57  1  0  0  0
 39 40  1  0  0  0
 40 41  2  0  0  0
 40 42  1  0  0  0
 42 43  1  0  0  0
 43 44  1  0  0  0
 43 48  1  0  0  0
 44 45  1  0  0  0
 45 46  2  0  0  0
 45 47  1  0  0  0
 47 58  1  0  0  0
 48 49  2  0  0  0
 48 50  1  0  0  0
 50 59  1  0  0  0
M  END
>  <AUTHOR>
    GENERATED BY OPEN BABEL 2.4.1

>  <CHROM.1>
-174.73588444,-104.38538400,-54.49575862,177.30334272,50.83418141,144.02780032
-149.21731600,128.19317902,-89.84844780,160.57644063,70.30679777,-62.86268375
160.22203277,-95.10327698,-70.94650808,-151.09645652,90.26407135,58.64705323
178.13352124,167.68274342,-51.36357596,177.08130477,-11.62178428,-31.62487874
63.56151945,57.34106480,45.64211285,-21.02628397,-118.69372632,176.19323525
-177.70079039,-1.33476792,171.97198805,130.86105481,-67.67953618,125.77933476
-119.54857709,179.62146312,-175.79096874,1.84776672,-5.45985156,0.25949358
0.74065615,-0.67839714,1.14531930

>  <COMPND>
    UNNAMED

>  <MASTER>
        0    0    0    0    0    0    0    0  109    0  109    0

>  <Name>
FB1.pdb

>  <RI>
0

>  <Rbt.Current_Directory>
/home/fc/tossine/FB1_39/p3/3_clust03

>  <Rbt.Executable>
rbdock/0.1.0

>  <Rbt.Library>
librxdock.so/0.1.0

>  <Rbt.Parameter_File>
/cluster/rxdock/data/scripts/dock.prm

>  <Rbt.Receptor>
rx_4.prm

>  <SCORE>
6.32584

>  <SCORE.INTER>
0.338331

>  <SCORE.INTER.CONST>
1

>  <SCORE.INTER.POLAR>
-1.99426

>  <SCORE.INTER.REPUL>
0.399343

>  <SCORE.INTER.ROT>
32

>  <SCORE.INTER.VDW>
-32.2779

>  <SCORE.INTER.norm>
0.00676661

>  <SCORE.INTRA>
5.0943

>  <SCORE.INTRA.DIHEDRAL>
13.308

>  <SCORE.INTRA.DIHEDRAL.0>
47.3121

>  <SCORE.INTRA.POLAR>
0.475363

>  <SCORE.INTRA.POLAR.0>
-1.47808

>  <SCORE.INTRA.REPUL>
0

>  <SCORE.INTRA.REPUL.0>
0

>  <SCORE.INTRA.VDW>
-3.17594

>  <SCORE.INTRA.VDW.0>
-2.78316

>  <SCORE.INTRA.norm>
0.101886

>  <SCORE.RESTR>
0.893212

>  <SCORE.RESTR.CAVITY>
0.893212

>  <SCORE.RESTR.norm>
0.0178642

>  <SCORE.SYSTEM>
0

>  <SCORE.SYSTEM.CONST>
0

>  <SCORE.SYSTEM.DIHEDRAL>
0

>  <SCORE.SYSTEM.norm>
0

>  <SCORE.heavy>
50

>  <SCORE.norm>
0.126517

$$$$
