FB1.pdb
  RxDock  10072015043D
librxdock.so/0.1.0
 59 58  0  0  0  0  0  0  0  0999 V2000
    0.5019    5.2744  -12.2902 C   0  0  0  0  0  0
    0.6264    5.1328  -10.7750 C   0  0  0  0  0  0
   -0.7431    4.9220  -10.1085 C   0  0  0  0  0  0
   -1.2450    3.4581  -10.1782 C   0  0  0  0  0  0
   -1.4308    2.8908  -11.6287 C   0  0  0  0  0  0
   -0.3530    1.8085  -11.8686 C   0  0  0  0  0  0
   -2.8839    2.3149  -11.9021 C   0  0  0  0  0  0
   -4.1169    3.3051  -11.6464 C   0  0  0  0  0  0
   -4.0608    4.8888  -11.7761 C   0  0  0  0  0  0
   -3.0904    5.4578  -12.9827 C   0  0  0  0  0  0
   -3.3924    4.6735  -14.2586 C   0  0  0  0  0  0
   -3.1839    7.0220  -13.2816 C   0  0  0  0  0  0
   -3.0837    8.1706  -12.1461 C   0  0  0  0  0  0
   -4.3240    8.6328  -11.3068 C   0  0  0  0  0  0
   -4.3493   10.1307  -10.7550 C   0  0  0  0  0  0
   -3.4538   10.6542   -9.5639 C   0  0  0  0  0  0
   -3.0418   12.1494   -9.5168 C   0  0  0  0  0  0
   -1.7428   12.5489  -10.3182 C   0  0  0  0  0  0
   -0.4757   11.7442  -10.0028 C   0  0  0  0  0  0
   -0.3724   10.2897  -10.5431 C   0  0  0  0  0  0
    1.0132    9.5911  -10.6753 C   0  0  0  0  0  0
    1.8576    9.5162   -9.4109 C   0  0  0  0  0  0
    0.8736    8.2600  -11.2959 N   0  0  0  0  0  0
   -1.1070    9.4879   -9.5832 O   0  0  0  0  0  0
   -2.0281   12.4189  -11.7151 O   0  0  0  0  0  0
   -2.1489    7.6568  -11.1823 O   0  0  0  0  0  0
   -5.1594    2.9046  -12.5766 O   0  0  0  0  0  0
   -6.4136    3.3665  -12.3338 C   0  0  0  0  0  0
   -6.8800    3.6435  -11.2451 O   0  0  0  0  0  0
   -7.1063    3.5784  -13.6516 C   0  0  0  0  0  0
   -7.9831    2.3827  -14.0566 C   0  0  0  0  0  0
   -9.0040    2.0082  -12.9745 C   0  0  0  0  0  0
   -8.3866    1.1057  -11.9316 C   0  0  0  0  0  0
   -8.4199    1.3381  -10.7280 O   0  0  0  0  0  0
   -7.7959    0.0181  -12.4483 O   0  0  0  0  0  0
   -8.7100    2.8082  -15.3398 C   0  0  0  0  0  0
   -9.9259    2.8961  -15.4197 O   0  0  0  0  0  0
   -7.9019    3.0291  -16.3858 O   0  0  0  0  0  0
   -2.9610    1.6661  -13.2337 O   0  0  0  0  0  0
   -3.0800    0.2874  -13.2892 C   0  0  0  0  0  0
   -3.7213   -0.3227  -14.1347 O   0  0  0  0  0  0
   -2.3100   -0.4110  -12.1606 C   0  0  0  0  0  0
   -3.1449   -0.7706  -10.8925 C   0  0  0  0  0  0
   -4.4108   -1.6268  -11.0788 C   0  0  0  0  0  0
   -5.4223   -1.4235   -9.9880 C   0  0  0  0  0  0
   -6.4694   -0.7996  -10.0930 O   0  0  0  0  0  0
   -5.0708   -2.0282   -8.8429 O   0  0  0  0  0  0
   -2.3348   -1.4018   -9.7534 C   0  0  0  0  0  0
   -2.6220   -2.4712   -9.2528 O   0  0  0  0  0  0
   -1.2093   -0.7420   -9.4081 O   0  0  0  0  0  0
    0.7840    8.3697  -12.3051 H   0  0  0  0  0  0
   -0.0141    7.8511  -10.9955 H   0  0  0  0  0  0
   -0.6547    9.6504   -8.7286 H   0  0  0  0  0  0
   -1.3209   12.8687  -12.2131 H   0  0  0  0  0  0
   -2.0363    8.3258  -10.4864 H   0  0  0  0  0  0
   -7.3344   -0.5514  -11.8032 H   0  0  0  0  0  0
   -8.3727    3.2346  -17.2314 H   0  0  0  0  0  0
   -4.2866   -2.5806   -9.0458 H   0  0  0  0  0  0
   -1.0461    0.0943   -9.8981 H   0  0  0  0  0  0
  1  2  1  0  0  0
  2  3  1  0  0  0
  3  4  1  0  0  0
  4  5  1  0  0  0
  5  6  1  0  0  0
  5  7  1  0  0  0
  7  8  1  0  0  0
  7 39  1  0  0  0
  8  9  1  0  0  0
  8 27  1  0  0  0
  9 10  1  0  0  0
 10 11  1  0  0  0
 10 12  1  0  0  0
 12 13  1  0  0  0
 13 14  1  0  0  0
 13 26  1  0  0  0
 14 15  1  0  0  0
 15 16  1  0  0  0
 16 17  1  0  0  0
 17 18  1  0  0  0
 18 19  1  0  0  0
 18 25  1  0  0  0
 19 20  1  0  0  0
 20 21  1  0  0  0
 20 24  1  0  0  0
 21 22  1  0  0  0
 21 23  1  0  0  0
 23 51  1  0  0  0
 23 52  1  0  0  0
 24 53  1  0  0  0
 25 54  1  0  0  0
 26 55  1  0  0  0
 27 28  1  0  0  0
 28 29  2  0  0  0
 28 30  1  0  0  0
 30 31  1  0  0  0
 31 32  1  0  0  0
 31 36  1  0  0  0
 32 33  1  0  0  0
 33 34  2  0  0  0
 33 35  1  0  0  0
 35 56  1  0  0  0
 36 37  2  0  0  0
 36 38  1  0  0  0
 38 57  1  0  0  0
 39 40  1  0  0  0
 40 41  2  0  0  0
 40 42  1  0  0  0
 42 43  1  0  0  0
 43 44  1  0  0  0
 43 48  1  0  0  0
 44 45  1  0  0  0
 45 46  2  0  0  0
 45 47  1  0  0  0
 47 58  1  0  0  0
 48 49  2  0  0  0
 48 50  1  0  0  0
 50 59  1  0  0  0
M  END
>  <AUTHOR>
    GENERATED BY OPEN BABEL 2.4.1

>  <CHROM.1>
81.14901797,-60.15024606,111.11813142,55.68868480,28.54473514,109.59717864
35.85088127,164.03040759,47.08616279,49.84599300,-84.62972436,-151.51745459
178.54696903,-72.89955831,151.65591864,-86.12157265,-53.40543943,74.14370674
166.10306880,159.86276161,55.95066487,-58.37140851,79.61233548,-28.86677929
96.12947454,54.64229567,-84.08265223,-118.06368804,126.72435590,175.92133891
175.46896351,145.29107589,95.34971561,55.32166064,-154.95637685,-125.02700567
105.72242308,-8.60014290,2.40792965,-3.64360770,4.21813780,-11.63373400,-1.10699348
0.42008353,3.07013518

>  <COMPND>
    UNNAMED

>  <MASTER>
        0    0    0    0    0    0    0    0  109    0  109    0

>  <Name>
FB1.pdb

>  <RI>
0

>  <Rbt.Current_Directory>
/home/fc/tossine/FB1_39/p3/3_clust03

>  <Rbt.Executable>
rbdock/0.1.0

>  <Rbt.Library>
librxdock.so/0.1.0

>  <Rbt.Parameter_File>
/cluster/rxdock/data/scripts/dock.prm

>  <Rbt.Receptor>
rx_0.prm

>  <SCORE>
16.2522

>  <SCORE.INTER>
11.4766

>  <SCORE.INTER.CONST>
1

>  <SCORE.INTER.POLAR>
-1.12042

>  <SCORE.INTER.REPUL>
0.846749

>  <SCORE.INTER.ROT>
32

>  <SCORE.INTER.VDW>
-26.3477

>  <SCORE.INTER.norm>
0.229532

>  <SCORE.INTRA>
4.77559

>  <SCORE.INTRA.DIHEDRAL>
17.0937

>  <SCORE.INTRA.DIHEDRAL.0>
47.3121

>  <SCORE.INTRA.POLAR>
-1.83523

>  <SCORE.INTRA.POLAR.0>
-1.47808

>  <SCORE.INTRA.REPUL>
0

>  <SCORE.INTRA.REPUL.0>
0

>  <SCORE.INTRA.VDW>
2.46849

>  <SCORE.INTRA.VDW.0>
-2.78316

>  <SCORE.INTRA.norm>
0.0955118

>  <SCORE.RESTR>
0

>  <SCORE.RESTR.CAVITY>
0

>  <SCORE.RESTR.norm>
0

>  <SCORE.SYSTEM>
0

>  <SCORE.SYSTEM.CONST>
0

>  <SCORE.SYSTEM.DIHEDRAL>
0

>  <SCORE.SYSTEM.norm>
0

>  <SCORE.heavy>
50

>  <SCORE.norm>
0.325044

$$$$
