FB1.pdb
  RxDock  10072015103D
librxdock.so/0.1.0
 59 58  0  0  0  0  0  0  0  0999 V2000
   -1.4580    0.2094   -7.9725 C   0  0  0  0  0  0
   -2.9546    0.1407   -8.2672 C   0  0  0  0  0  0
   -3.4914   -1.2960   -8.1564 C   0  0  0  0  0  0
   -4.9841   -1.4294   -8.5484 C   0  0  0  0  0  0
   -5.2670   -1.4127  -10.0912 C   0  0  0  0  0  0
   -6.7700   -1.1204  -10.3061 C   0  0  0  0  0  0
   -4.3678   -0.3766  -10.8886 C   0  0  0  0  0  0
   -3.4421   -0.9666  -12.0554 C   0  0  0  0  0  0
   -2.4341   -0.1151  -12.9425 C   0  0  0  0  0  0
   -1.6500    1.0960  -12.1428 C   0  0  0  0  0  0
   -0.4865    0.4876  -11.3615 C   0  0  0  0  0  0
   -1.1184    2.3026  -13.0408 C   0  0  0  0  0  0
   -1.6550    3.8249  -12.9253 C   0  0  0  0  0  0
   -1.8120    4.5582  -11.5493 C   0  0  0  0  0  0
   -2.8470    5.7699  -11.4506 C   0  0  0  0  0  0
   -2.7087    7.1242  -12.2513 C   0  0  0  0  0  0
   -1.7827    8.2436  -11.7064 C   0  0  0  0  0  0
   -1.6374    9.5361  -12.5993 C   0  0  0  0  0  0
   -0.6901   10.6219  -12.0739 C   0  0  0  0  0  0
   -1.2281   11.6162  -11.0060 C   0  0  0  0  0  0
   -1.2045   11.2429   -9.4942 C   0  0  0  0  0  0
   -1.7567   12.2841   -8.5306 C   0  0  0  0  0  0
   -1.8344    9.9282   -9.2676 N   0  0  0  0  0  0
   -0.3677   12.7783  -11.1193 O   0  0  0  0  0  0
   -1.1877    9.1289  -13.8961 O   0  0  0  0  0  0
   -0.7020    4.6095  -13.6621 O   0  0  0  0  0  0
   -2.6071   -1.9828  -11.4370 O   0  0  0  0  0  0
   -3.1802   -3.1912  -11.1991 C   0  0  0  0  0  0
   -4.2528   -3.5751  -11.6252 O   0  0  0  0  0  0
   -2.2183   -4.0248  -10.3983 C   0  0  0  0  0  0
   -2.9276   -5.0881   -9.5445 C   0  0  0  0  0  0
   -2.2162   -6.4465   -9.5855 C   0  0  0  0  0  0
   -0.8323   -6.3554   -8.9855 C   0  0  0  0  0  0
   -0.0969   -5.3835   -9.1210 O   0  0  0  0  0  0
   -0.4811   -7.4435   -8.2844 O   0  0  0  0  0  0
   -2.9344   -4.5416   -8.1102 C   0  0  0  0  0  0
   -1.9760   -4.6312   -7.3578 O   0  0  0  0  0  0
   -4.0995   -3.9990   -7.7305 O   0  0  0  0  0  0
   -5.1685    0.7837  -11.3496 O   0  0  0  0  0  0
   -4.7099    2.0579  -11.0595 C   0  0  0  0  0  0
   -3.6410    2.3066  -10.5173 O   0  0  0  0  0  0
   -5.6977    3.1475  -11.4967 C   0  0  0  0  0  0
   -6.8896    3.4107  -10.5247 C   0  0  0  0  0  0
   -7.8952    2.2692  -10.2875 C   0  0  0  0  0  0
   -8.7043    1.9372  -11.5080 C   0  0  0  0  0  0
   -9.8298    2.3500  -11.7519 O   0  0  0  0  0  0
   -8.0489    1.1275  -12.3536 O   0  0  0  0  0  0
   -6.4824    3.9490   -9.1475 C   0  0  0  0  0  0
   -5.5671    3.4807   -8.4998 O   0  0  0  0  0  0
   -7.1402    5.0547   -8.7400 O   0  0  0  0  0  0
   -2.8127   10.0652   -9.0175 H   0  0  0  0  0  0
   -1.4089    9.5001   -8.4423 H   0  0  0  0  0  0
   -0.5485   13.1328  -12.0154 H   0  0  0  0  0  0
   -1.9546    8.7843  -14.3896 H   0  0  0  0  0  0
   -1.0592    5.5087  -13.7533 H   0  0  0  0  0  0
    0.3773   -7.3827   -7.8231 H   0  0  0  0  0  0
   -4.1308   -3.7167   -6.7829 H   0  0  0  0  0  0
   -7.1660    0.9646  -11.9596 H   0  0  0  0  0  0
   -7.8249    5.3886   -9.3612 H   0  0  0  0  0  0
  1  2  1  0  0  0
  2  3  1  0  0  0
  3  4  1  0  0  0
  4  5  1  0  0  0
  5  6  1  0  0  0
  5  7  1  0  0  0
  7  8  1  0  0  0
  7 39  1  0  0  0
  8  9  1  0  0  0
  8 27  1  0  0  0
  9 10  1  0  0  0
 10 11  1  0  0  0
 10 12  1  0  0  0
 12 13  1  0  0  0
 13 14  1  0  0  0
 13 26  1  0  0  0
 14 15  1  0  0  0
 15 16  1  0  0  0
 16 17  1  0  0  0
 17 18  1  0  0  0
 18 19  1  0  0  0
 18 25  1  0  0  0
 19 20  1  0  0  0
 20 21  1  0  0  0
 20 24  1  0  0  0
 21 22  1  0  0  0
 21 23  1  0  0  0
 23 51  1  0  0  0
 23 52  1  0  0  0
 24 53  1  0  0  0
 25 54  1  0  0  0
 26 55  1  0  0  0
 27 28  1  0  0  0
 28 29  2  0  0  0
 28 30  1  0  0  0
 30 31  1  0  0  0
 31 32  1  0  0  0
 31 36  1  0  0  0
 32 33  1  0  0  0
 33 34  2  0  0  0
 33 35  1  0  0  0
 35 56  1  0  0  0
 36 37  2  0  0  0
 36 38  1  0  0  0
 38 57  1  0  0  0
 39 40  1  0  0  0
 40 41  2  0  0  0
 40 42  1  0  0  0
 42 43  1  0  0  0
 43 44  1  0  0  0
 43 48  1  0  0  0
 44 45  1  0  0  0
 45 46  2  0  0  0
 45 47  1  0  0  0
 47 58  1  0  0  0
 48 49  2  0  0  0
 48 50  1  0  0  0
 50 59  1  0  0  0
M  END
>  <AUTHOR>
    GENERATED BY OPEN BABEL 2.4.1

>  <CHROM.1>
-175.77540599,77.07033895,-162.98226398,121.52692274,-177.92639963,128.56741065
36.82513698,78.49448706,79.91714767,115.54342220,47.24923455,-156.01580955
170.38068148,-63.95311415,-82.41115365,176.89202670,-178.34648474,-82.23053332
79.04435378,84.80181861,-179.87776095,64.94606097,-94.86154315,11.63935119
153.78520494,137.23330483,63.65258984,-81.48545205,-37.03041210,-175.09909240
175.01360072,4.75666885,80.84896745,-63.57821240,-67.15249810,-45.59787597
-97.07564047,-1.28041956,1.20030406,-3.33874295,1.91300888,-10.54954617,-1.63421431
0.00195335,-0.12789895

>  <COMPND>
    UNNAMED

>  <MASTER>
        0    0    0    0    0    0    0    0  109    0  109    0

>  <Name>
FB1.pdb

>  <RI>
0

>  <Rbt.Current_Directory>
/home/fc/tossine/FB1_39/p3/3_clust03

>  <Rbt.Executable>
rbdock/0.1.0

>  <Rbt.Library>
librxdock.so/0.1.0

>  <Rbt.Parameter_File>
/cluster/rxdock/data/scripts/dock.prm

>  <Rbt.Receptor>
rx_0.prm

>  <SCORE>
7.32851

>  <SCORE.INTER>
3.72419

>  <SCORE.INTER.CONST>
1

>  <SCORE.INTER.POLAR>
-2.91234

>  <SCORE.INTER.REPUL>
0.00137315

>  <SCORE.INTER.ROT>
32

>  <SCORE.INTER.VDW>
-23.7807

>  <SCORE.INTER.norm>
0.0744838

>  <SCORE.INTRA>
3.25266

>  <SCORE.INTRA.DIHEDRAL>
11.0566

>  <SCORE.INTRA.DIHEDRAL.0>
47.3121

>  <SCORE.INTRA.POLAR>
0.478077

>  <SCORE.INTRA.POLAR.0>
-1.47808

>  <SCORE.INTRA.REPUL>
0

>  <SCORE.INTRA.REPUL.0>
0

>  <SCORE.INTRA.VDW>
-3.90109

>  <SCORE.INTRA.VDW.0>
-2.78316

>  <SCORE.INTRA.norm>
0.0650533

>  <SCORE.RESTR>
0.351659

>  <SCORE.RESTR.CAVITY>
0.351659

>  <SCORE.RESTR.norm>
0.00703317

>  <SCORE.SYSTEM>
0

>  <SCORE.SYSTEM.CONST>
0

>  <SCORE.SYSTEM.DIHEDRAL>
0

>  <SCORE.SYSTEM.norm>
0

>  <SCORE.heavy>
50

>  <SCORE.norm>
0.14657

$$$$
