FB1.pdb
  RxDock  10072016073D
librxdock.so/0.1.0
 59 58  0  0  0  0  0  0  0  0999 V2000
    0.1944    5.0475  -13.8049 C   0  0  0  0  0  0
    0.7018    4.2990  -12.5746 C   0  0  0  0  0  0
   -0.4506    3.6639  -11.7790 C   0  0  0  0  0  0
   -0.8249    2.2410  -12.2636 C   0  0  0  0  0  0
   -2.0433    2.1770  -13.2494 C   0  0  0  0  0  0
   -2.2753    0.6989  -13.6393 C   0  0  0  0  0  0
   -3.3680    2.8235  -12.6618 C   0  0  0  0  0  0
   -4.0566    2.0710  -11.4266 C   0  0  0  0  0  0
   -3.5417    2.1198   -9.9230 C   0  0  0  0  0  0
   -2.3608    1.0292   -9.5523 C   0  0  0  0  0  0
   -1.0658    1.7915   -9.2764 C   0  0  0  0  0  0
   -2.6706    0.0435   -8.3369 C   0  0  0  0  0  0
   -1.6298   -1.0618   -7.7768 C   0  0  0  0  0  0
   -1.7627   -1.6933   -6.3486 C   0  0  0  0  0  0
   -3.1595   -2.3480   -5.9371 C   0  0  0  0  0  0
   -3.3975   -3.1744   -4.6123 C   0  0  0  0  0  0
   -2.9186   -2.5966   -3.2542 C   0  0  0  0  0  0
   -2.8861   -3.5964   -2.0342 C   0  0  0  0  0  0
   -1.6281   -4.4635   -1.8998 C   0  0  0  0  0  0
   -0.2736   -3.7574   -1.6080 C   0  0  0  0  0  0
    0.2937   -3.7017   -0.1586 C   0  0  0  0  0  0
    1.8086   -3.6319   -0.0263 C   0  0  0  0  0  0
   -0.3536   -2.6274    0.6181 N   0  0  0  0  0  0
    0.7056   -4.5130   -2.3656 O   0  0  0  0  0  0
   -3.0427   -2.8330   -0.8332 O   0  0  0  0  0  0
   -1.7399   -2.1683   -8.6880 O   0  0  0  0  0  0
   -5.4202    2.5691  -11.3563 O   0  0  0  0  0  0
   -6.2984    2.0950  -12.2779 C   0  0  0  0  0  0
   -6.2045    1.0475  -12.8889 O   0  0  0  0  0  0
   -7.4692    3.0361  -12.3478 C   0  0  0  0  0  0
   -7.6759    3.8194  -11.0416 C   0  0  0  0  0  0
   -8.9244    4.7099  -11.0805 C   0  0  0  0  0  0
   -8.9851    5.6166   -9.8732 C   0  0  0  0  0  0
   -8.1524    5.6041   -8.9730 O   0  0  0  0  0  0
  -10.0411    6.4435   -9.8785 O   0  0  0  0  0  0
   -7.8170    2.7649   -9.9352 C   0  0  0  0  0  0
   -6.9805    2.6001   -9.0603 O   0  0  0  0  0  0
   -8.9142    2.0020  -10.0351 O   0  0  0  0  0  0
   -3.1851    4.2713  -12.3967 O   0  0  0  0  0  0
   -3.2633    5.1516  -13.4630 C   0  0  0  0  0  0
   -3.4922    4.8250  -14.6203 O   0  0  0  0  0  0
   -3.0299    6.6070  -13.0369 C   0  0  0  0  0  0
   -4.2921    7.3782  -12.5404 C   0  0  0  0  0  0
   -5.5542    6.5617  -12.2076 C   0  0  0  0  0  0
   -5.8490    6.5110  -10.7362 C   0  0  0  0  0  0
   -5.3508    5.7322   -9.9351 O   0  0  0  0  0  0
   -6.7314    7.4480  -10.3570 O   0  0  0  0  0  0
   -4.0386    8.3222  -11.3584 C   0  0  0  0  0  0
   -4.4967    9.4463  -11.3012 O   0  0  0  0  0  0
   -3.3564    7.7861  -10.3248 O   0  0  0  0  0  0
   -1.3634   -2.6879    0.4949 H   0  0  0  0  0  0
   -0.0920   -1.7268    0.2108 H   0  0  0  0  0  0
    0.6634   -5.4177   -1.9901 H   0  0  0  0  0  0
   -3.0275   -3.4485   -0.0773 H   0  0  0  0  0  0
   -2.6451   -2.5173   -8.6292 H   0  0  0  0  0  0
  -10.6070    6.3915  -10.6725 H   0  0  0  0  0  0
   -9.0096    1.3252   -9.3198 H   0  0  0  0  0  0
   -6.9605    7.2571   -9.4230 H   0  0  0  0  0  0
   -3.0237    6.8727  -10.4701 H   0  0  0  0  0  0
  1  2  1  0  0  0
  2  3  1  0  0  0
  3  4  1  0  0  0
  4  5  1  0  0  0
  5  6  1  0  0  0
  5  7  1  0  0  0
  7  8  1  0  0  0
  7 39  1  0  0  0
  8  9  1  0  0  0
  8 27  1  0  0  0
  9 10  1  0  0  0
 10 11  1  0  0  0
 10 12  1  0  0  0
 12 13  1  0  0  0
 13 14  1  0  0  0
 13 26  1  0  0  0
 14 15  1  0  0  0
 15 16  1  0  0  0
 16 17  1  0  0  0
 17 18  1  0  0  0
 18 19  1  0  0  0
 18 25  1  0  0  0
 19 20  1  0  0  0
 20 21  1  0  0  0
 20 24  1  0  0  0
 21 22  1  0  0  0
 21 23  1  0  0  0
 23 51  1  0  0  0
 23 52  1  0  0  0
 24 53  1  0  0  0
 25 54  1  0  0  0
 26 55  1  0  0  0
 27 28  1  0  0  0
 28 29  2  0  0  0
 28 30  1  0  0  0
 30 31  1  0  0  0
 31 32  1  0  0  0
 31 36  1  0  0  0
 32 33  1  0  0  0
 33 34  2  0  0  0
 33 35  1  0  0  0
 35 56  1  0  0  0
 36 37  2  0  0  0
 36 38  1  0  0  0
 38 57  1  0  0  0
 39 40  1  0  0  0
 40 41  2  0  0  0
 40 42  1  0  0  0
 42 43  1  0  0  0
 43 44  1  0  0  0
 43 48  1  0  0  0
 44 45  1  0  0  0
 45 46  2  0  0  0
 45 47  1  0  0  0
 47 58  1  0  0  0
 48 49  2  0  0  0
 48 50  1  0  0  0
 50 59  1  0  0  0
M  END
>  <AUTHOR>
    GENERATED BY OPEN BABEL 2.4.1

>  <CHROM.1>
88.00367595,-97.30219902,179.62522895,-67.53906428,76.65262872,79.40413362
-84.74321840,75.91352277,112.30751588,-177.69889788,160.56484893,52.96374031
-63.33959880,172.21908013,48.74301027,-166.47062915,84.36386113,64.91469034
179.71955291,99.04208299,151.49158943,-61.38936147,47.85223533,23.16951907
-25.72061665,-176.20405557,-171.47705132,111.69385455,-1.67507456,-3.01482332
-179.66168481,1.02518379,-86.53705039,13.97572884,109.43711643,136.21905232
-83.66813781,171.87243416,5.23729794,-3.75928128,2.15855344,-9.03898804,-1.90254298
-0.35239508,2.19674493

>  <COMPND>
    UNNAMED

>  <MASTER>
        0    0    0    0    0    0    0    0  109    0  109    0

>  <Name>
FB1.pdb

>  <RI>
0

>  <Rbt.Current_Directory>
/home/fc/tossine/FB1_39/p3/3_clust03

>  <Rbt.Executable>
rbdock/0.1.0

>  <Rbt.Library>
librxdock.so/0.1.0

>  <Rbt.Parameter_File>
/cluster/rxdock/data/scripts/dock.prm

>  <Rbt.Receptor>
rx_1.prm

>  <SCORE>
13.9723

>  <SCORE.INTER>
6.77305

>  <SCORE.INTER.CONST>
1

>  <SCORE.INTER.POLAR>
-2.02387

>  <SCORE.INTER.REPUL>
0.411252

>  <SCORE.INTER.ROT>
32

>  <SCORE.INTER.VDW>
-25.8021

>  <SCORE.INTER.norm>
0.135461

>  <SCORE.INTRA>
5.40388

>  <SCORE.INTRA.DIHEDRAL>
8.32121

>  <SCORE.INTRA.DIHEDRAL.0>
47.3121

>  <SCORE.INTRA.POLAR>
1.00981

>  <SCORE.INTRA.POLAR.0>
-1.47808

>  <SCORE.INTRA.REPUL>
0

>  <SCORE.INTRA.REPUL.0>
0

>  <SCORE.INTRA.VDW>
-2.19009

>  <SCORE.INTRA.VDW.0>
-2.78316

>  <SCORE.INTRA.norm>
0.108078

>  <SCORE.RESTR>
1.79541

>  <SCORE.RESTR.CAVITY>
1.79541

>  <SCORE.RESTR.norm>
0.0359082

>  <SCORE.SYSTEM>
0

>  <SCORE.SYSTEM.CONST>
0

>  <SCORE.SYSTEM.DIHEDRAL>
0

>  <SCORE.SYSTEM.norm>
0

>  <SCORE.heavy>
50

>  <SCORE.norm>
0.279447

$$$$
