FB1.pdb
  RxDock  10072017083D
librxdock.so/0.1.0
 59 58  0  0  0  0  0  0  0  0999 V2000
   -9.9485    0.9024  -10.0013 C   0  0  0  0  0  0
   -9.1996    2.1654  -10.4202 C   0  0  0  0  0  0
   -7.7515    1.8575  -10.8352 C   0  0  0  0  0  0
   -6.8468    1.4329   -9.6515 C   0  0  0  0  0  0
   -5.3196    1.3233   -9.9922 C   0  0  0  0  0  0
   -5.1693    0.4893  -11.2854 C   0  0  0  0  0  0
   -4.6007    2.7304  -10.1376 C   0  0  0  0  0  0
   -3.0412    2.7142  -10.5034 C   0  0  0  0  0  0
   -2.1774    3.9935  -10.8846 C   0  0  0  0  0  0
   -1.4612    3.9368  -12.3696 C   0  0  0  0  0  0
   -2.5145    3.5358  -13.4011 C   0  0  0  0  0  0
   -0.7254    5.2694  -12.8467 C   0  0  0  0  0  0
    0.8312    5.3400  -13.2834 C   0  0  0  0  0  0
    1.4733    6.6303  -13.8990 C   0  0  0  0  0  0
    1.0155    8.0499  -13.3293 C   0  0  0  0  0  0
   -0.4180    8.6754  -13.5494 C   0  0  0  0  0  0
   -1.0782    9.4943  -12.4088 C   0  0  0  0  0  0
   -1.3071    8.7418  -11.0412 C   0  0  0  0  0  0
   -0.4088    9.1672   -9.8730 C   0  0  0  0  0  0
    0.9396    8.4198   -9.6696 C   0  0  0  0  0  0
    2.0765    8.5365  -10.7276 C   0  0  0  0  0  0
    2.9322    9.7940  -10.6667 C   0  0  0  0  0  0
    2.9186    7.3252  -10.7298 N   0  0  0  0  0  0
    1.4958    8.9884   -8.4567 O   0  0  0  0  0  0
   -2.6732    8.9304  -10.6565 O   0  0  0  0  0  0
    1.5662    5.0963  -12.0722 O   0  0  0  0  0  0
   -2.3592    2.1501   -9.3505 O   0  0  0  0  0  0
   -1.5907    1.0508   -9.5652 C   0  0  0  0  0  0
   -0.5618    0.7672   -8.9819 O   0  0  0  0  0  0
   -2.2780    0.1807  -10.5811 C   0  0  0  0  0  0
   -1.4587   -1.0698  -10.9381 C   0  0  0  0  0  0
   -1.5018   -2.1363   -9.8362 C   0  0  0  0  0  0
   -0.7731   -1.6698   -8.5974 C   0  0  0  0  0  0
   -1.3250   -1.4696   -7.5208 O   0  0  0  0  0  0
    0.5434   -1.4954   -8.7856 O   0  0  0  0  0  0
   -2.0758   -1.6238  -12.2297 C   0  0  0  0  0  0
   -1.7609   -1.2291  -13.3421 O   0  0  0  0  0  0
   -3.0288   -2.5459  -12.0361 O   0  0  0  0  0  0
   -5.3693    3.6350  -11.0269 O   0  0  0  0  0  0
   -6.3721    4.4111  -10.4700 C   0  0  0  0  0  0
   -6.6860    4.3992   -9.2870 O   0  0  0  0  0  0
   -7.0624    5.3058  -11.5080 C   0  0  0  0  0  0
   -6.7056    6.8231  -11.4388 C   0  0  0  0  0  0
   -6.9069    7.5531  -10.0983 C   0  0  0  0  0  0
   -8.0497    7.0013   -9.2957 C   0  0  0  0  0  0
   -8.8950    6.2169   -9.7039 O   0  0  0  0  0  0
   -8.0519    7.4492   -8.0309 O   0  0  0  0  0  0
   -5.2971    7.1703  -11.9365 C   0  0  0  0  0  0
   -5.0876    7.9995  -12.7999 O   0  0  0  0  0  0
   -4.2848    6.5699  -11.2762 O   0  0  0  0  0  0
    3.5633    7.3680  -11.5180 H   0  0  0  0  0  0
    2.3246    6.5148  -10.9191 H   0  0  0  0  0  0
    0.9519    8.6089   -7.7345 H   0  0  0  0  0  0
   -3.2226    8.3115  -11.1719 H   0  0  0  0  0  0
    2.4924    4.9254  -12.3118 H   0  0  0  0  0  0
    0.8651   -1.6926   -9.6862 H   0  0  0  0  0  0
   -3.5977   -2.7199  -12.8266 H   0  0  0  0  0  0
   -8.8936    7.1487   -7.6276 H   0  0  0  0  0  0
   -4.5561    5.9879  -10.5319 H   0  0  0  0  0  0
  1  2  1  0  0  0
  2  3  1  0  0  0
  3  4  1  0  0  0
  4  5  1  0  0  0
  5  6  1  0  0  0
  5  7  1  0  0  0
  7  8  1  0  0  0
  7 39  1  0  0  0
  8  9  1  0  0  0
  8 27  1  0  0  0
  9 10  1  0  0  0
 10 11  1  0  0  0
 10 12  1  0  0  0
 12 13  1  0  0  0
 13 14  1  0  0  0
 13 26  1  0  0  0
 14 15  1  0  0  0
 15 16  1  0  0  0
 16 17  1  0  0  0
 17 18  1  0  0  0
 18 19  1  0  0  0
 18 25  1  0  0  0
 19 20  1  0  0  0
 20 21  1  0  0  0
 20 24  1  0  0  0
 21 22  1  0  0  0
 21 23  1  0  0  0
 23 51  1  0  0  0
 23 52  1  0  0  0
 24 53  1  0  0  0
 25 54  1  0  0  0
 26 55  1  0  0  0
 27 28  1  0  0  0
 28 29  2  0  0  0
 28 30  1  0  0  0
 30 31  1  0  0  0
 31 32  1  0  0  0
 31 36  1  0  0  0
 32 33  1  0  0  0
 33 34  2  0  0  0
 33 35  1  0  0  0
 35 56  1  0  0  0
 36 37  2  0  0  0
 36 38  1  0  0  0
 38 57  1  0  0  0
 39 40  1  0  0  0
 40 41  2  0  0  0
 40 42  1  0  0  0
 42 43  1  0  0  0
 43 44  1  0  0  0
 43 48  1  0  0  0
 44 45  1  0  0  0
 45 46  2  0  0  0
 45 47  1  0  0  0
 47 58  1  0  0  0
 48 49  2  0  0  0
 48 50  1  0  0  0
 50 59  1  0  0  0
M  END
>  <AUTHOR>
    GENERATED BY OPEN BABEL 2.4.1

>  <CHROM.1>
-69.55814930,-171.07123845,-48.80697211,-179.25963478,171.39839018,87.22250978
-121.27729207,123.17890393,49.43880860,123.65176076,172.90739867,37.75179289
167.17770655,-69.23937552,143.24102606,-59.21063876,108.84032401,-90.49177398
79.15803214,65.86825108,80.25852098,73.72203669,171.69858562,146.52787990
177.71670299,75.22187685,-67.97487042,85.44297251,115.15413537,-0.27383137
163.78193666,-0.73215433,-106.17513598,-54.86005500,-31.72086697,125.69976742
-11.76811702,171.80731497,-1.29898244,-2.90973926,4.18303261,-10.80574054
2.09988589,-0.10160323,3.06602067

>  <COMPND>
    UNNAMED

>  <MASTER>
        0    0    0    0    0    0    0    0  109    0  109    0

>  <Name>
FB1.pdb

>  <RI>
0

>  <Rbt.Current_Directory>
/home/fc/tossine/FB1_39/p3/3_clust03

>  <Rbt.Executable>
rbdock/0.1.0

>  <Rbt.Library>
librxdock.so/0.1.0

>  <Rbt.Parameter_File>
/cluster/rxdock/data/scripts/dock.prm

>  <Rbt.Receptor>
rx_2.prm

>  <SCORE>
28.3506

>  <SCORE.INTER>
12.2157

>  <SCORE.INTER.CONST>
1

>  <SCORE.INTER.POLAR>
-2.81272

>  <SCORE.INTER.REPUL>
1.35133

>  <SCORE.INTER.ROT>
32

>  <SCORE.INTER.VDW>
-22.3778

>  <SCORE.INTER.norm>
0.244313

>  <SCORE.INTRA>
14.1321

>  <SCORE.INTRA.DIHEDRAL>
20.5007

>  <SCORE.INTRA.DIHEDRAL.0>
47.3121

>  <SCORE.INTRA.POLAR>
-0.496812

>  <SCORE.INTRA.POLAR.0>
-1.47808

>  <SCORE.INTRA.REPUL>
0

>  <SCORE.INTRA.REPUL.0>
0

>  <SCORE.INTRA.VDW>
5.57092

>  <SCORE.INTRA.VDW.0>
-2.78316

>  <SCORE.INTRA.norm>
0.282643

>  <SCORE.RESTR>
2.00286

>  <SCORE.RESTR.CAVITY>
2.00286

>  <SCORE.RESTR.norm>
0.0400572

>  <SCORE.SYSTEM>
0

>  <SCORE.SYSTEM.CONST>
0

>  <SCORE.SYSTEM.DIHEDRAL>
0

>  <SCORE.SYSTEM.norm>
0

>  <SCORE.heavy>
50

>  <SCORE.norm>
0.567013

$$$$
