FB1.pdb
  RxDock  10072015123D
librxdock.so/0.1.0
 59 58  0  0  0  0  0  0  0  0999 V2000
   -3.2158    5.2995  -12.7358 C   0  0  0  0  0  0
   -2.3412    4.1510  -13.2331 C   0  0  0  0  0  0
   -3.1668    2.8822  -13.5030 C   0  0  0  0  0  0
   -3.5334    2.0990  -12.2177 C   0  0  0  0  0  0
   -4.1714    0.6871  -12.4627 C   0  0  0  0  0  0
   -3.1080   -0.2175  -13.1272 C   0  0  0  0  0  0
   -4.7455    0.0144  -11.1452 C   0  0  0  0  0  0
   -3.8082    0.0464   -9.8465 C   0  0  0  0  0  0
   -3.0628    1.3348   -9.2875 C   0  0  0  0  0  0
   -1.5712    1.6155   -9.9339 C   0  0  0  0  0  0
   -1.2185    3.0864   -9.7192 C   0  0  0  0  0  0
   -0.3856    0.6964   -9.3913 C   0  0  0  0  0  0
   -0.5477   -0.8712   -9.0240 C   0  0  0  0  0  0
   -1.2958   -1.8806   -9.9608 C   0  0  0  0  0  0
   -0.5955   -2.3029  -11.3321 C   0  0  0  0  0  0
   -1.3451   -2.9996  -12.5351 C   0  0  0  0  0  0
   -1.9516   -4.4146  -12.3415 C   0  0  0  0  0  0
   -3.2669   -4.5060  -11.4750 C   0  0  0  0  0  0
   -3.0895   -4.9395  -10.0145 C   0  0  0  0  0  0
   -2.5191   -6.3580   -9.7305 C   0  0  0  0  0  0
   -2.1513   -6.7872   -8.2793 C   0  0  0  0  0  0
   -0.7789   -6.3636   -7.7748 C   0  0  0  0  0  0
   -3.2081   -6.3893   -7.3299 N   0  0  0  0  0  0
   -3.5752   -7.2666  -10.1345 O   0  0  0  0  0  0
   -3.8988   -3.2214  -11.4946 O   0  0  0  0  0  0
    0.7974   -1.3704   -8.9327 O   0  0  0  0  0  0
   -4.6350   -0.4003   -8.7377 O   0  0  0  0  0  0
   -4.5363   -1.7077   -8.3822 C   0  0  0  0  0  0
   -4.6307   -2.6648   -9.1269 O   0  0  0  0  0  0
   -4.1873   -1.7787   -6.9212 C   0  0  0  0  0  0
   -5.3603   -2.2687   -6.0572 C   0  0  0  0  0  0
   -6.6204   -2.5558   -6.8836 C   0  0  0  0  0  0
   -7.6541   -1.4696   -6.6967 C   0  0  0  0  0  0
   -8.4488   -1.1324   -7.5676 O   0  0  0  0  0  0
   -7.6225   -0.9055   -5.4803 O   0  0  0  0  0  0
   -4.8740   -3.5556   -5.3764 C   0  0  0  0  0  0
   -5.5064   -4.1271   -4.5013 O   0  0  0  0  0  0
   -3.6700   -3.9773   -5.7868 O   0  0  0  0  0  0
   -6.1167    0.4973  -10.8513 O   0  0  0  0  0  0
   -6.2948    1.8401  -10.5628 C   0  0  0  0  0  0
   -5.4194    2.5834  -10.1392 O   0  0  0  0  0  0
   -7.7299    2.3102  -10.8344 C   0  0  0  0  0  0
   -7.9932    2.8957  -12.2565 C   0  0  0  0  0  0
   -8.3674    1.9164  -13.3840 C   0  0  0  0  0  0
   -8.7159    2.6082  -14.6702 C   0  0  0  0  0  0
   -7.9225    2.9361  -15.5418 O   0  0  0  0  0  0
  -10.0337    2.8283  -14.7939 O   0  0  0  0  0  0
   -9.0115    4.0419  -12.2957 C   0  0  0  0  0  0
  -10.1942    3.8826  -12.0665 O   0  0  0  0  0  0
   -8.4926    5.2712  -12.4980 O   0  0  0  0  0  0
   -3.1478   -6.9752   -6.4983 H   0  0  0  0  0  0
   -4.1174   -6.6098   -7.7421 H   0  0  0  0  0  0
   -3.6004   -7.1964  -11.1121 H   0  0  0  0  0  0
   -4.4521   -3.1425  -10.6958 H   0  0  0  0  0  0
    1.3454   -0.6836   -8.5173 H   0  0  0  0  0  0
   -8.2027   -0.1285   -5.3662 H   0  0  0  0  0  0
   -3.5718   -4.9610   -5.8269 H   0  0  0  0  0  0
  -10.4562    2.4672  -13.9862 H   0  0  0  0  0  0
   -9.1432    5.9663  -12.7426 H   0  0  0  0  0  0
  1  2  1  0  0  0
  2  3  1  0  0  0
  3  4  1  0  0  0
  4  5  1  0  0  0
  5  6  1  0  0  0
  5  7  1  0  0  0
  7  8  1  0  0  0
  7 39  1  0  0  0
  8  9  1  0  0  0
  8 27  1  0  0  0
  9 10  1  0  0  0
 10 11  1  0  0  0
 10 12  1  0  0  0
 12 13  1  0  0  0
 13 14  1  0  0  0
 13 26  1  0  0  0
 14 15  1  0  0  0
 15 16  1  0  0  0
 16 17  1  0  0  0
 17 18  1  0  0  0
 18 19  1  0  0  0
 18 25  1  0  0  0
 19 20  1  0  0  0
 20 21  1  0  0  0
 20 24  1  0  0  0
 21 22  1  0  0  0
 21 23  1  0  0  0
 23 51  1  0  0  0
 23 52  1  0  0  0
 24 53  1  0  0  0
 25 54  1  0  0  0
 26 55  1  0  0  0
 27 28  1  0  0  0
 28 29  2  0  0  0
 28 30  1  0  0  0
 30 31  1  0  0  0
 31 32  1  0  0  0
 31 36  1  0  0  0
 32 33  1  0  0  0
 33 34  2  0  0  0
 33 35  1  0  0  0
 35 56  1  0  0  0
 36 37  2  0  0  0
 36 38  1  0  0  0
 38 57  1  0  0  0
 39 40  1  0  0  0
 40 41  2  0  0  0
 40 42  1  0  0  0
 42 43  1  0  0  0
 43 44  1  0  0  0
 43 48  1  0  0  0
 44 45  1  0  0  0
 45 46  2  0  0  0
 45 47  1  0  0  0
 47 58  1  0  0  0
 48 49  2  0  0  0
 48 50  1  0  0  0
 50 59  1  0  0  0
M  END
>  <AUTHOR>
    GENERATED BY OPEN BABEL 2.4.1

>  <CHROM.1>
-78.27921915,-170.60492978,65.57717345,-46.43773208,48.61856031,-63.70719460
-87.73480508,97.28353957,159.26721173,37.25770667,45.74850863,71.40747457
38.05855431,-163.85891515,-64.05877906,73.77619468,-99.56908547,-62.64553062
-155.47537476,172.35710545,-83.39018006,69.97365743,157.57987777,-51.25183191
108.43083494,-0.68160766,-105.07436737,171.55722689,148.70636013,172.79973944
-144.63782201,-23.04095163,-92.09427283,86.98060464,174.81764000,-68.25977518
87.37111268,-0.18633274,165.57638661,-4.54148626,-0.63013246,-10.15592438
-2.04037638,-0.34552914,2.43119377

>  <COMPND>
    UNNAMED

>  <MASTER>
        0    0    0    0    0    0    0    0  109    0  109    0

>  <Name>
FB1.pdb

>  <RI>
0

>  <Rbt.Current_Directory>
/home/fc/tossine/FB1_39/p3/3_clust03

>  <Rbt.Executable>
rbdock/0.1.0

>  <Rbt.Library>
librxdock.so/0.1.0

>  <Rbt.Parameter_File>
/cluster/rxdock/data/scripts/dock.prm

>  <Rbt.Receptor>
rx_0.prm

>  <SCORE>
48.325

>  <SCORE.INTER>
24.7605

>  <SCORE.INTER.CONST>
1

>  <SCORE.INTER.POLAR>
-0.030526

>  <SCORE.INTER.REPUL>
0.0367204

>  <SCORE.INTER.ROT>
32

>  <SCORE.INTER.VDW>
-12.7193

>  <SCORE.INTER.norm>
0.49521

>  <SCORE.INTRA>
19.8025

>  <SCORE.INTRA.DIHEDRAL>
39.6951

>  <SCORE.INTRA.DIHEDRAL.0>
47.3121

>  <SCORE.INTRA.POLAR>
-0.238854

>  <SCORE.INTRA.POLAR.0>
-1.47808

>  <SCORE.INTRA.REPUL>
0

>  <SCORE.INTRA.REPUL.0>
0

>  <SCORE.INTRA.VDW>
0.767042

>  <SCORE.INTRA.VDW.0>
-2.78316

>  <SCORE.INTRA.norm>
0.39605

>  <SCORE.RESTR>
3.76201

>  <SCORE.RESTR.CAVITY>
3.76201

>  <SCORE.RESTR.norm>
0.0752403

>  <SCORE.SYSTEM>
0

>  <SCORE.SYSTEM.CONST>
0

>  <SCORE.SYSTEM.DIHEDRAL>
0

>  <SCORE.SYSTEM.norm>
0

>  <SCORE.heavy>
50

>  <SCORE.norm>
0.9665

$$$$
