FB1.pdb
  RxDock  10072015143D
librxdock.so/0.1.0
 59 58  0  0  0  0  0  0  0  0999 V2000
    3.1574    6.6403  -12.9798 C   0  0  0  0  0  0
    2.1646    6.3064  -14.0908 C   0  0  0  0  0  0
    0.8849    7.1521  -13.9840 C   0  0  0  0  0  0
   -0.0179    6.7579  -12.7885 C   0  0  0  0  0  0
   -0.9410    5.5146  -13.0384 C   0  0  0  0  0  0
   -0.0401    4.2788  -13.2659 C   0  0  0  0  0  0
   -1.9799    5.2518  -11.8681 C   0  0  0  0  0  0
   -2.7356    3.8393  -11.8722 C   0  0  0  0  0  0
   -2.3526    2.5940  -10.9607 C   0  0  0  0  0  0
   -0.7542    2.1862  -10.9694 C   0  0  0  0  0  0
   -0.0305    3.0382   -9.9280 C   0  0  0  0  0  0
   -0.4204    0.6454  -10.7256 C   0  0  0  0  0  0
   -0.8315   -0.1722   -9.3910 C   0  0  0  0  0  0
   -1.9219   -1.2978   -9.3979 C   0  0  0  0  0  0
   -1.9285   -2.3531   -8.1998 C   0  0  0  0  0  0
   -2.9914   -3.5106   -8.0409 C   0  0  0  0  0  0
   -3.5078   -4.2528   -9.3018 C   0  0  0  0  0  0
   -2.4296   -5.0236  -10.1578 C   0  0  0  0  0  0
   -2.1718   -6.4848   -9.7694 C   0  0  0  0  0  0
   -1.2195   -6.7731   -8.5743 C   0  0  0  0  0  0
   -0.7129   -8.2195   -8.2971 C   0  0  0  0  0  0
   -1.6990   -9.3466   -8.5699 C   0  0  0  0  0  0
    0.5717   -8.4661   -8.9792 N   0  0  0  0  0  0
   -0.0234   -6.0054   -8.8638 O   0  0  0  0  0  0
   -2.8424   -4.9832  -11.5281 O   0  0  0  0  0  0
    0.3783   -0.8243   -8.9697 O   0  0  0  0  0  0
   -4.1215    4.1190  -11.5353 O   0  0  0  0  0  0
   -4.9855    4.2891  -12.5696 C   0  0  0  0  0  0
   -4.7043    4.2680  -13.7528 O   0  0  0  0  0  0
   -6.3773    4.4084  -12.0126 C   0  0  0  0  0  0
   -6.5516    3.6435  -10.6908 C   0  0  0  0  0  0
   -7.9275    3.8759  -10.0533 C   0  0  0  0  0  0
   -9.0151    3.1744  -10.8333 C   0  0  0  0  0  0
   -9.5124    3.6254  -11.8595 O   0  0  0  0  0  0
   -9.3875    2.0033  -10.2960 O   0  0  0  0  0  0
   -6.3770    2.1583  -11.0367 C   0  0  0  0  0  0
   -6.3972    1.7333  -12.1819 O   0  0  0  0  0  0
   -6.2492    1.3539   -9.9725 O   0  0  0  0  0  0
   -1.3842    5.5579  -10.5447 O   0  0  0  0  0  0
   -1.3299    6.8802  -10.1364 C   0  0  0  0  0  0
   -0.5022    7.3351   -9.3577 O   0  0  0  0  0  0
   -2.4346    7.7337  -10.7731 C   0  0  0  0  0  0
   -2.6139    9.1643  -10.1767 C   0  0  0  0  0  0
   -1.3476    9.9881   -9.8795 C   0  0  0  0  0  0
   -1.6256   11.2175   -9.0636 C   0  0  0  0  0  0
   -1.0322   12.2834   -9.1543 O   0  0  0  0  0  0
   -2.6387   11.0428   -8.2013 O   0  0  0  0  0  0
   -3.5681   10.0693  -10.9659 C   0  0  0  0  0  0
   -3.2353   11.1490  -11.4133 O   0  0  0  0  0  0
   -4.7823    9.5420  -11.2285 O   0  0  0  0  0  0
    0.3896   -8.7726   -9.9339 H   0  0  0  0  0  0
    1.0324   -9.2611   -8.5306 H   0  0  0  0  0  0
    0.6069   -6.2540   -8.1551 H   0  0  0  0  0  0
   -2.1310   -5.3693  -12.0715 H   0  0  0  0  0  0
    0.7063   -1.3586   -9.7124 H   0  0  0  0  0  0
   -8.9140    1.7498   -9.4805 H   0  0  0  0  0  0
   -6.3538    1.8085   -9.1000 H   0  0  0  0  0  0
   -2.6737   11.8472   -7.6419 H   0  0  0  0  0  0
   -5.3247   10.0408  -11.8790 H   0  0  0  0  0  0
  1  2  1  0  0  0
  2  3  1  0  0  0
  3  4  1  0  0  0
  4  5  1  0  0  0
  5  6  1  0  0  0
  5  7  1  0  0  0
  7  8  1  0  0  0
  7 39  1  0  0  0
  8  9  1  0  0  0
  8 27  1  0  0  0
  9 10  1  0  0  0
 10 11  1  0  0  0
 10 12  1  0  0  0
 12 13  1  0  0  0
 13 14  1  0  0  0
 13 26  1  0  0  0
 14 15  1  0  0  0
 15 16  1  0  0  0
 16 17  1  0  0  0
 17 18  1  0  0  0
 18 19  1  0  0  0
 18 25  1  0  0  0
 19 20  1  0  0  0
 20 21  1  0  0  0
 20 24  1  0  0  0
 21 22  1  0  0  0
 21 23  1  0  0  0
 23 51  1  0  0  0
 23 52  1  0  0  0
 24 53  1  0  0  0
 25 54  1  0  0  0
 26 55  1  0  0  0
 27 28  1  0  0  0
 28 29  2  0  0  0
 28 30  1  0  0  0
 30 31  1  0  0  0
 31 32  1  0  0  0
 31 36  1  0  0  0
 32 33  1  0  0  0
 33 34  2  0  0  0
 33 35  1  0  0  0
 35 56  1  0  0  0
 36 37  2  0  0  0
 36 38  1  0  0  0
 38 57  1  0  0  0
 39 40  1  0  0  0
 40 41  2  0  0  0
 40 42  1  0  0  0
 42 43  1  0  0  0
 43 44  1  0  0  0
 43 48  1  0  0  0
 44 45  1  0  0  0
 45 46  2  0  0  0
 45 47  1  0  0  0
 47 58  1  0  0  0
 48 49  2  0  0  0
 48 50  1  0  0  0
 50 59  1  0  0  0
M  END
>  <AUTHOR>
    GENERATED BY OPEN BABEL 2.4.1

>  <CHROM.1>
-71.19698019,-81.32939463,63.64403160,-166.89315695,100.59767735,80.30084362
-49.28573999,94.33558694,85.55333696,-59.88845550,110.67730630,160.28416189
-55.70755627,177.79535406,37.65924377,61.04385740,89.71262577,-81.40407561
173.69782289,-168.69861473,-36.08630935,-174.81232083,-85.95487787,-2.26152768
-28.93732499,174.42768397,71.75578159,-14.13131187,-80.53079324,-0.24732372
4.51681073,-153.11651413,169.21798826,43.31911436,-168.46482108,-123.06399466
-146.42918059,173.11421684,-168.38467669,-2.65448821,2.71449234,-10.63182581
-1.61278042,0.01068491,3.02452024

>  <COMPND>
    UNNAMED

>  <MASTER>
        0    0    0    0    0    0    0    0  109    0  109    0

>  <Name>
FB1.pdb

>  <RI>
0

>  <Rbt.Current_Directory>
/home/fc/tossine/FB1_39/p3/3_clust03

>  <Rbt.Executable>
rbdock/0.1.0

>  <Rbt.Library>
librxdock.so/0.1.0

>  <Rbt.Parameter_File>
/cluster/rxdock/data/scripts/dock.prm

>  <Rbt.Receptor>
rx_0.prm

>  <SCORE>
13.322

>  <SCORE.INTER>
-1.0792

>  <SCORE.INTER.CONST>
1

>  <SCORE.INTER.POLAR>
-4.04644

>  <SCORE.INTER.REPUL>
0.529534

>  <SCORE.INTER.ROT>
32

>  <SCORE.INTER.VDW>
-27.369

>  <SCORE.INTER.norm>
-0.021584

>  <SCORE.INTRA>
13.8991

>  <SCORE.INTRA.DIHEDRAL>
4.24523

>  <SCORE.INTRA.DIHEDRAL.0>
47.3121

>  <SCORE.INTRA.POLAR>
1.47808

>  <SCORE.INTRA.POLAR.0>
-1.47808

>  <SCORE.INTRA.REPUL>
0

>  <SCORE.INTRA.REPUL.0>
0

>  <SCORE.INTRA.VDW>
6.75102

>  <SCORE.INTRA.VDW.0>
-2.78316

>  <SCORE.INTRA.norm>
0.277982

>  <SCORE.RESTR>
0.502123

>  <SCORE.RESTR.CAVITY>
0.502123

>  <SCORE.RESTR.norm>
0.0100425

>  <SCORE.SYSTEM>
0

>  <SCORE.SYSTEM.CONST>
0

>  <SCORE.SYSTEM.DIHEDRAL>
0

>  <SCORE.SYSTEM.norm>
0

>  <SCORE.heavy>
50

>  <SCORE.norm>
0.26644

$$$$
