FB1.pdb
  RxDock  10072018293D
librxdock.so/0.1.0
 59 58  0  0  0  0  0  0  0  0999 V2000
   -4.0120   11.7189   -8.9934 C   0  0  0  0  0  0
   -3.4320   10.3101   -9.0939 C   0  0  0  0  0  0
   -3.3934    9.8127  -10.5484 C   0  0  0  0  0  0
   -4.7973    9.5549  -11.1503 C   0  0  0  0  0  0
   -5.0352    8.0951  -11.6727 C   0  0  0  0  0  0
   -6.1621    8.1357  -12.7306 C   0  0  0  0  0  0
   -3.7291    7.4123  -12.2608 C   0  0  0  0  0  0
   -2.5515    7.0863  -11.2248 C   0  0  0  0  0  0
   -2.5033    5.8212  -10.2628 C   0  0  0  0  0  0
   -1.9005    4.4458  -10.9456 C   0  0  0  0  0  0
   -0.3822    4.4449  -10.7753 C   0  0  0  0  0  0
   -2.5003    3.0706  -10.4036 C   0  0  0  0  0  0
   -2.4106    1.6648  -11.2000 C   0  0  0  0  0  0
   -3.0915    1.4441  -12.5942 C   0  0  0  0  0  0
   -2.9763    0.0040  -13.2739 C   0  0  0  0  0  0
   -2.0163   -1.1434  -12.7674 C   0  0  0  0  0  0
   -2.2675   -1.7942  -11.3815 C   0  0  0  0  0  0
   -0.9891   -2.1776  -10.5400 C   0  0  0  0  0  0
   -1.2295   -2.5548   -9.0729 C   0  0  0  0  0  0
   -2.2247   -3.7085   -8.7617 C   0  0  0  0  0  0
   -1.9356   -5.1574   -9.2543 C   0  0  0  0  0  0
   -0.6433   -5.7947   -8.7634 C   0  0  0  0  0  0
   -3.0896   -6.0399   -8.9973 N   0  0  0  0  0  0
   -2.2402   -3.8002   -7.3142 O   0  0  0  0  0  0
   -0.3442   -3.2768  -11.1924 O   0  0  0  0  0  0
   -1.0066    1.4602  -11.4316 O   0  0  0  0  0  0
   -1.3339    6.9862  -12.0121 O   0  0  0  0  0  0
   -0.5119    8.0677  -12.0171 C   0  0  0  0  0  0
   -0.8566    9.2330  -12.0689 O   0  0  0  0  0  0
    0.9037    7.5905  -11.8446 C   0  0  0  0  0  0
    1.7727    8.5899  -11.0647 C   0  0  0  0  0  0
    1.3227    8.7486   -9.6067 C   0  0  0  0  0  0
   -0.0524    9.3696   -9.5252 C   0  0  0  0  0  0
   -0.2620   10.5718   -9.6456 O   0  0  0  0  0  0
   -1.0298    8.4770   -9.3090 O   0  0  0  0  0  0
    3.2029    8.0349  -11.1156 C   0  0  0  0  0  0
    3.4526    6.8431  -11.2143 O   0  0  0  0  0  0
    4.1612    8.9635  -10.9926 O   0  0  0  0  0  0
   -4.0704    6.2377  -13.0996 O   0  0  0  0  0  0
   -5.0563    5.3734  -12.6536 C   0  0  0  0  0  0
   -5.7287    4.6509  -13.3777 O   0  0  0  0  0  0
   -5.2224    5.4143  -11.1288 C   0  0  0  0  0  0
   -6.6422    5.0526  -10.5921 C   0  0  0  0  0  0
   -7.2371    3.6875  -10.9831 C   0  0  0  0  0  0
   -8.1967    3.7740  -12.1348 C   0  0  0  0  0  0
   -8.5955    4.8068  -12.6552 O   0  0  0  0  0  0
   -8.5808    2.5659  -12.5745 O   0  0  0  0  0  0
   -6.8070    5.2005   -9.0745 C   0  0  0  0  0  0
   -7.4455    6.0997   -8.5642 O   0  0  0  0  0  0
   -6.2833    4.2007   -8.3347 O   0  0  0  0  0  0
   -3.8324   -5.8198   -9.6595 H   0  0  0  0  0  0
   -3.4782   -5.8106   -8.0798 H   0  0  0  0  0  0
   -2.5963   -2.9367   -7.0162 H   0  0  0  0  0  0
    0.4906   -3.4613  -10.7238 H   0  0  0  0  0  0
   -0.7375    0.6562  -10.9565 H   0  0  0  0  0  0
   -0.7289    7.5694   -9.1108 H   0  0  0  0  0  0
    5.0798    8.6001  -10.9391 H   0  0  0  0  0  0
   -8.2008    1.9073  -11.9555 H   0  0  0  0  0  0
   -6.6459    4.1175   -7.4248 H   0  0  0  0  0  0
  1  2  1  0  0  0
  2  3  1  0  0  0
  3  4  1  0  0  0
  4  5  1  0  0  0
  5  6  1  0  0  0
  5  7  1  0  0  0
  7  8  1  0  0  0
  7 39  1  0  0  0
  8  9  1  0  0  0
  8 27  1  0  0  0
  9 10  1  0  0  0
 10 11  1  0  0  0
 10 12  1  0  0  0
 12 13  1  0  0  0
 13 14  1  0  0  0
 13 26  1  0  0  0
 14 15  1  0  0  0
 15 16  1  0  0  0
 16 17  1  0  0  0
 17 18  1  0  0  0
 18 19  1  0  0  0
 18 25  1  0  0  0
 19 20  1  0  0  0
 20 21  1  0  0  0
 20 24  1  0  0  0
 21 22  1  0  0  0
 21 23  1  0  0  0
 23 51  1  0  0  0
 23 52  1  0  0  0
 24 53  1  0  0  0
 25 54  1  0  0  0
 26 55  1  0  0  0
 27 28  1  0  0  0
 28 29  2  0  0  0
 28 30  1  0  0  0
 30 31  1  0  0  0
 31 32  1  0  0  0
 31 36  1  0  0  0
 32 33  1  0  0  0
 33 34  2  0  0  0
 33 35  1  0  0  0
 35 56  1  0  0  0
 36 37  2  0  0  0
 36 38  1  0  0  0
 38 57  1  0  0  0
 39 40  1  0  0  0
 40 41  2  0  0  0
 40 42  1  0  0  0
 42 43  1  0  0  0
 43 44  1  0  0  0
 43 48  1  0  0  0
 44 45  1  0  0  0
 45 46  2  0  0  0
 45 47  1  0  0  0
 47 58  1  0  0  0
 48 49  2  0  0  0
 48 50  1  0  0  0
 50 59  1  0  0  0
M  END
>  <AUTHOR>
    GENERATED BY OPEN BABEL 2.4.1

>  <CHROM.1>
-68.46206885,-122.28383578,-156.51897786,67.08727824,80.71931970,-42.10293686
84.31839247,100.33292908,87.55702936,160.62580974,-62.92338244,-178.26137515
116.76858745,-11.19129651,66.14853883,-142.76413744,168.15985732,55.99076010
174.68360897,63.03800715,59.25628545,63.07658127,73.72385100,-40.17906294
-147.22174556,65.96311533,-65.41296382,-28.21752878,-79.52106333,7.99548441
174.49274275,155.39501501,152.36225767,56.56725916,-98.54951746,107.14656029
-6.85104368,5.95220315,-159.32021903,-2.71167669,4.30801189,-10.82494709
1.52528892,-0.08681593,-0.06907868

>  <COMPND>
    UNNAMED

>  <MASTER>
        0    0    0    0    0    0    0    0  109    0  109    0

>  <Name>
FB1.pdb

>  <RI>
0

>  <Rbt.Current_Directory>
/home/fc/tossine/FB1_39/p3/3_clust03

>  <Rbt.Executable>
rbdock/0.1.0

>  <Rbt.Library>
librxdock.so/0.1.0

>  <Rbt.Parameter_File>
/cluster/rxdock/data/scripts/dock.prm

>  <Rbt.Receptor>
rx_4.prm

>  <SCORE>
34.6321

>  <SCORE.INTER>
9.64327

>  <SCORE.INTER.CONST>
1

>  <SCORE.INTER.POLAR>
-1.21005

>  <SCORE.INTER.REPUL>
0.416193

>  <SCORE.INTER.ROT>
32

>  <SCORE.INTER.VDW>
-25.7235

>  <SCORE.INTER.norm>
0.192865

>  <SCORE.INTRA>
24.235

>  <SCORE.INTRA.DIHEDRAL>
26.7245

>  <SCORE.INTRA.DIHEDRAL.0>
47.3121

>  <SCORE.INTRA.POLAR>
1.47529

>  <SCORE.INTRA.POLAR.0>
-1.47808

>  <SCORE.INTRA.REPUL>
0

>  <SCORE.INTRA.REPUL.0>
0

>  <SCORE.INTRA.VDW>
5.85677

>  <SCORE.INTRA.VDW.0>
-2.78316

>  <SCORE.INTRA.norm>
0.4847

>  <SCORE.RESTR>
0.753801

>  <SCORE.RESTR.CAVITY>
0.753801

>  <SCORE.RESTR.norm>
0.015076

>  <SCORE.SYSTEM>
0

>  <SCORE.SYSTEM.CONST>
0

>  <SCORE.SYSTEM.DIHEDRAL>
0

>  <SCORE.SYSTEM.norm>
0

>  <SCORE.heavy>
50

>  <SCORE.norm>
0.692642

$$$$
