FB1.pdb
  RxDock  10072018183D
librxdock.so/0.1.0
 59 58  0  0  0  0  0  0  0  0999 V2000
   -4.4517    9.2820  -11.2374 C   0  0  0  0  0  0
   -3.4723    8.1636  -10.8892 C   0  0  0  0  0  0
   -4.1712    6.7957  -10.8207 C   0  0  0  0  0  0
   -4.5964    6.2493  -12.2065 C   0  0  0  0  0  0
   -5.4727    4.9490  -12.1644 C   0  0  0  0  0  0
   -6.0421    4.7013  -13.5805 C   0  0  0  0  0  0
   -4.6892    3.6741  -11.6368 C   0  0  0  0  0  0
   -5.5726    2.4337  -11.1396 C   0  0  0  0  0  0
   -5.0430    0.9446  -10.9656 C   0  0  0  0  0  0
   -3.5513    0.8090  -10.2745 C   0  0  0  0  0  0
   -3.5600    1.5684   -8.9488 C   0  0  0  0  0  0
   -3.0188   -0.6758  -10.0368 C   0  0  0  0  0  0
   -1.5412   -1.0322   -9.4816 C   0  0  0  0  0  0
   -1.3081   -1.7066   -8.0863 C   0  0  0  0  0  0
   -2.3212   -1.3641   -6.9008 C   0  0  0  0  0  0
   -3.5228   -2.2910   -6.4631 C   0  0  0  0  0  0
   -3.3361   -3.2771   -5.2798 C   0  0  0  0  0  0
   -2.2591   -2.8831   -4.1963 C   0  0  0  0  0  0
   -2.1461   -3.8125   -2.9814 C   0  0  0  0  0  0
   -1.1283   -3.4455   -1.8644 C   0  0  0  0  0  0
   -1.0618   -4.2778   -0.5498 C   0  0  0  0  0  0
    0.2212   -4.1620    0.2613 C   0  0  0  0  0  0
   -2.2442   -4.0221    0.2945 N   0  0  0  0  0  0
    0.1728   -3.6153   -2.4825 O   0  0  0  0  0  0
   -0.9833   -2.8232   -4.8432 O   0  0  0  0  0  0
   -0.9990   -1.9562  -10.4402 O   0  0  0  0  0  0
   -6.0740    2.7934   -9.8237 O   0  0  0  0  0  0
   -7.2434    3.4831   -9.7765 C   0  0  0  0  0  0
   -8.3353    3.0721  -10.1201 O   0  0  0  0  0  0
   -6.9842    4.8157   -9.1297 C   0  0  0  0  0  0
   -8.2258    5.7217   -9.1263 C   0  0  0  0  0  0
   -7.9476    7.0993   -8.5114 C   0  0  0  0  0  0
   -9.1226    7.5771   -7.6902 C   0  0  0  0  0  0
  -10.2351    7.0631   -7.7348 O   0  0  0  0  0  0
   -8.8333    8.6222   -6.9010 O   0  0  0  0  0  0
   -8.6392    5.8764  -10.5964 C   0  0  0  0  0  0
   -9.7082    5.4787  -11.0340 O   0  0  0  0  0  0
   -7.7075    6.4418  -11.3763 O   0  0  0  0  0  0
   -3.6379    3.2567  -12.5962 O   0  0  0  0  0  0
   -2.9537    4.2390  -13.2927 C   0  0  0  0  0  0
   -3.3619    4.7836  -14.3102 O   0  0  0  0  0  0
   -1.6056    4.5821  -12.6454 C   0  0  0  0  0  0
   -1.4251    6.0674  -12.2030 C   0  0  0  0  0  0
   -0.9130    6.3402  -10.7769 C   0  0  0  0  0  0
    0.5641    6.1134  -10.6307 C   0  0  0  0  0  0
    1.0944    5.0671  -10.2836 O   0  0  0  0  0  0
    1.2840    7.2010  -10.9458 O   0  0  0  0  0  0
   -0.5802    6.9192  -13.1583 C   0  0  0  0  0  0
    0.3998    6.4898  -13.7344 O   0  0  0  0  0  0
   -1.0568    8.1572  -13.4063 O   0  0  0  0  0  0
   -2.2745   -4.7112    1.0446 H   0  0  0  0  0  0
   -3.0854   -4.1984   -0.2594 H   0  0  0  0  0  0
    0.2445   -4.5795   -2.6457 H   0  0  0  0  0  0
   -0.3037   -2.6671   -4.1617 H   0  0  0  0  0  0
   -0.9856   -1.5169  -11.3070 H   0  0  0  0  0  0
   -9.3437    8.6706   -6.0699 H   0  0  0  0  0  0
   -7.9418    6.4747  -12.3369 H   0  0  0  0  0  0
    2.2274    6.9496  -10.8562 H   0  0  0  0  0  0
   -1.8885    8.3887  -12.9361 H   0  0  0  0  0  0
  1  2  1  0  0  0
  2  3  1  0  0  0
  3  4  1  0  0  0
  4  5  1  0  0  0
  5  6  1  0  0  0
  5  7  1  0  0  0
  7  8  1  0  0  0
  7 39  1  0  0  0
  8  9  1  0  0  0
  8 27  1  0  0  0
  9 10  1  0  0  0
 10 11  1  0  0  0
 10 12  1  0  0  0
 12 13  1  0  0  0
 13 14  1  0  0  0
 13 26  1  0  0  0
 14 15  1  0  0  0
 15 16  1  0  0  0
 16 17  1  0  0  0
 17 18  1  0  0  0
 18 19  1  0  0  0
 18 25  1  0  0  0
 19 20  1  0  0  0
 20 21  1  0  0  0
 20 24  1  0  0  0
 21 22  1  0  0  0
 21 23  1  0  0  0
 23 51  1  0  0  0
 23 52  1  0  0  0
 24 53  1  0  0  0
 25 54  1  0  0  0
 26 55  1  0  0  0
 27 28  1  0  0  0
 28 29  2  0  0  0
 28 30  1  0  0  0
 30 31  1  0  0  0
 31 32  1  0  0  0
 31 36  1  0  0  0
 32 33  1  0  0  0
 33 34  2  0  0  0
 33 35  1  0  0  0
 35 56  1  0  0  0
 36 37  2  0  0  0
 36 38  1  0  0  0
 38 57  1  0  0  0
 39 40  1  0  0  0
 40 41  2  0  0  0
 40 42  1  0  0  0
 42 43  1  0  0  0
 43 44  1  0  0  0
 43 48  1  0  0  0
 44 45  1  0  0  0
 45 46  2  0  0  0
 45 47  1  0  0  0
 47 58  1  0  0  0
 48 49  2  0  0  0
 48 50  1  0  0  0
 50 59  1  0  0  0
M  END
>  <AUTHOR>
    GENERATED BY OPEN BABEL 2.4.1

>  <CHROM.1>
71.57080797,-172.50462258,168.79210366,162.01684678,161.80948599,35.83409062
42.15632930,87.68422751,53.81582890,175.03361836,113.81114257,-32.58425410
59.05911579,99.43175701,96.08650032,26.59701918,176.00209055,-178.24553880
-174.48080789,174.39373101,160.30205850,-66.88400816,168.38766212,65.46983894
175.52384341,-177.96046918,-141.85328359,116.87665053,-13.64415918,-149.48950079
175.21076253,-82.49055056,-120.63257578,130.71271320,76.76983515,-37.77735679
-92.11748100,-177.78804972,0.98603122,-3.72394274,2.91277885,-9.11757672
-1.85262375,-0.34157858,2.35678929

>  <COMPND>
    UNNAMED

>  <MASTER>
        0    0    0    0    0    0    0    0  109    0  109    0

>  <Name>
FB1.pdb

>  <RI>
0

>  <Rbt.Current_Directory>
/home/fc/tossine/FB1_39/p3/3_clust03

>  <Rbt.Executable>
rbdock/0.1.0

>  <Rbt.Library>
librxdock.so/0.1.0

>  <Rbt.Parameter_File>
/cluster/rxdock/data/scripts/dock.prm

>  <Rbt.Receptor>
rx_4.prm

>  <SCORE>
51.5661

>  <SCORE.INTER>
21.2681

>  <SCORE.INTER.CONST>
1

>  <SCORE.INTER.POLAR>
-0.822474

>  <SCORE.INTER.REPUL>
1.27308

>  <SCORE.INTER.ROT>
32

>  <SCORE.INTER.VDW>
-19.7009

>  <SCORE.INTER.norm>
0.425361

>  <SCORE.INTRA>
29.2872

>  <SCORE.INTRA.DIHEDRAL>
53.8839

>  <SCORE.INTRA.DIHEDRAL.0>
47.3121

>  <SCORE.INTRA.POLAR>
1.01961

>  <SCORE.INTRA.POLAR.0>
-1.47808

>  <SCORE.INTRA.REPUL>
0

>  <SCORE.INTRA.REPUL.0>
0

>  <SCORE.INTRA.VDW>
-1.12141

>  <SCORE.INTRA.VDW.0>
-2.78316

>  <SCORE.INTRA.norm>
0.585744

>  <SCORE.RESTR>
1.01087

>  <SCORE.RESTR.CAVITY>
1.01087

>  <SCORE.RESTR.norm>
0.0202174

>  <SCORE.SYSTEM>
0

>  <SCORE.SYSTEM.CONST>
0

>  <SCORE.SYSTEM.DIHEDRAL>
0

>  <SCORE.SYSTEM.norm>
0

>  <SCORE.heavy>
50

>  <SCORE.norm>
1.03132

$$$$
