FB1.pdb
  RxDock  10072018293D
librxdock.so/0.1.0
 59 58  0  0  0  0  0  0  0  0999 V2000
   -9.0802    3.9868  -11.5090 C   0  0  0  0  0  0
   -9.6085    2.8178  -10.6809 C   0  0  0  0  0  0
   -8.5400    1.7296  -10.4855 C   0  0  0  0  0  0
   -7.2365    2.2541   -9.8330 C   0  0  0  0  0  0
   -5.9113    1.7229  -10.4827 C   0  0  0  0  0  0
   -6.0574    1.8049  -12.0198 C   0  0  0  0  0  0
   -4.6133    2.4938   -9.9942 C   0  0  0  0  0  0
   -3.2055    1.9696  -10.5505 C   0  0  0  0  0  0
   -1.7935    2.6281  -10.2326 C   0  0  0  0  0  0
   -0.5875    2.2414  -11.2897 C   0  0  0  0  0  0
   -0.3285    0.7383  -11.2013 C   0  0  0  0  0  0
   -0.8275    2.6542  -12.8118 C   0  0  0  0  0  0
   -1.7493    3.8991  -13.2800 C   0  0  0  0  0  0
   -1.3307    5.3905  -13.0422 C   0  0  0  0  0  0
   -0.8929    5.8289  -11.5707 C   0  0  0  0  0  0
   -0.6834    7.3265  -11.1150 C   0  0  0  0  0  0
   -0.1470    8.3676  -12.1328 C   0  0  0  0  0  0
    1.2600    8.0629  -12.7784 C   0  0  0  0  0  0
    1.4725    6.6374  -13.3031 C   0  0  0  0  0  0
    2.9298    6.1461  -13.5335 C   0  0  0  0  0  0
    3.8806    6.9140  -14.4987 C   0  0  0  0  0  0
    5.1803    6.2134  -14.8690 C   0  0  0  0  0  0
    3.1578    7.3570  -15.7061 N   0  0  0  0  0  0
    3.5602    6.2416  -12.2307 O   0  0  0  0  0  0
    1.4575    8.9798  -13.8601 O   0  0  0  0  0  0
   -1.8574    3.7627  -14.7070 O   0  0  0  0  0  0
   -3.0734    0.5966  -10.0926 O   0  0  0  0  0  0
   -3.5714   -0.3742  -10.9019 C   0  0  0  0  0  0
   -4.0978   -0.2073  -11.9857 O   0  0  0  0  0  0
   -3.2730   -1.7109  -10.2810 C   0  0  0  0  0  0
   -1.7778   -1.9017   -9.9806 C   0  0  0  0  0  0
   -1.3720   -1.3210   -8.6199 C   0  0  0  0  0  0
   -2.2372   -1.8739   -7.5113 C   0  0  0  0  0  0
   -1.9712   -2.8968   -6.8895 O   0  0  0  0  0  0
   -3.3301   -1.1357   -7.2676 O   0  0  0  0  0  0
   -1.5339   -3.4171   -9.9987 C   0  0  0  0  0  0
   -1.1492   -4.0424   -9.0223 O   0  0  0  0  0  0
   -1.7307   -3.9946  -11.1919 O   0  0  0  0  0  0
   -4.7653    3.9594  -10.1638 O   0  0  0  0  0  0
   -5.4935    4.6605   -9.2170 C   0  0  0  0  0  0
   -5.4231    4.4774   -8.0087 O   0  0  0  0  0  0
   -6.4151    5.7113   -9.8499 C   0  0  0  0  0  0
   -5.9142    6.3321  -11.1908 C   0  0  0  0  0  0
   -6.1602    7.8331  -11.4295 C   0  0  0  0  0  0
   -7.4494    8.1092  -12.1479 C   0  0  0  0  0  0
   -8.3380    7.2950  -12.3575 O   0  0  0  0  0  0
   -7.5543    9.3879  -12.5407 O   0  0  0  0  0  0
   -4.4387    6.0589  -11.5081 C   0  0  0  0  0  0
   -4.0726    5.5222  -12.5350 O   0  0  0  0  0  0
   -3.5536    6.5514  -10.6164 O   0  0  0  0  0  0
    2.4703    8.0621  -15.4440 H   0  0  0  0  0  0
    2.6077    6.5728  -16.0637 H   0  0  0  0  0  0
    3.2266    5.4627  -11.7375 H   0  0  0  0  0  0
    1.4687    9.8836  -13.4946 H   0  0  0  0  0  0
   -1.2889    4.4357  -15.1173 H   0  0  0  0  0  0
   -3.5552   -1.0235   -6.3241 H   0  0  0  0  0  0
   -1.4700   -4.9481  -11.2339 H   0  0  0  0  0  0
   -6.6421    9.7447  -12.5838 H   0  0  0  0  0  0
   -3.9491    6.9692   -9.8194 H   0  0  0  0  0  0
  1  2  1  0  0  0
  2  3  1  0  0  0
  3  4  1  0  0  0
  4  5  1  0  0  0
  5  6  1  0  0  0
  5  7  1  0  0  0
  7  8  1  0  0  0
  7 39  1  0  0  0
  8  9  1  0  0  0
  8 27  1  0  0  0
  9 10  1  0  0  0
 10 11  1  0  0  0
 10 12  1  0  0  0
 12 13  1  0  0  0
 13 14  1  0  0  0
 13 26  1  0  0  0
 14 15  1  0  0  0
 15 16  1  0  0  0
 16 17  1  0  0  0
 17 18  1  0  0  0
 18 19  1  0  0  0
 18 25  1  0  0  0
 19 20  1  0  0  0
 20 21  1  0  0  0
 20 24  1  0  0  0
 21 22  1  0  0  0
 21 23  1  0  0  0
 23 51  1  0  0  0
 23 52  1  0  0  0
 24 53  1  0  0  0
 25 54  1  0  0  0
 26 55  1  0  0  0
 27 28  1  0  0  0
 28 29  2  0  0  0
 28 30  1  0  0  0
 30 31  1  0  0  0
 31 32  1  0  0  0
 31 36  1  0  0  0
 32 33  1  0  0  0
 33 34  2  0  0  0
 33 35  1  0  0  0
 35 56  1  0  0  0
 36 37  2  0  0  0
 36 38  1  0  0  0
 38 57  1  0  0  0
 39 40  1  0  0  0
 40 41  2  0  0  0
 40 42  1  0  0  0
 42 43  1  0  0  0
 43 44  1  0  0  0
 43 48  1  0  0  0
 44 45  1  0  0  0
 45 46  2  0  0  0
 45 47  1  0  0  0
 47 58  1  0  0  0
 48 49  2  0  0  0
 48 50  1  0  0  0
 50 59  1  0  0  0
M  END
>  <AUTHOR>
    GENERATED BY OPEN BABEL 2.4.1

>  <CHROM.1>
56.55287784,-136.78449334,44.62477963,177.02109026,177.60417995,79.78282886
-160.38828414,89.43743619,-63.74214718,27.60314621,69.97565445,-51.16826757
-105.28225220,-169.12701476,-33.07084994,-58.79422099,46.75739886,-161.21754882
62.42525862,-57.92818075,-168.37306631,77.27823959,66.86226561,1.35887290
-54.71284194,85.61268038,53.97347131,-117.83093372,89.39477152,-139.29802752
172.98100159,42.03113644,-30.18185575,-141.64868116,-91.77312557,123.50125945
10.94180640,22.00312324,4.82153536,-2.78418282,3.45079435,-11.27711999,2.04950716
-0.21463798,2.80740825

>  <COMPND>
    UNNAMED

>  <MASTER>
        0    0    0    0    0    0    0    0  109    0  109    0

>  <Name>
FB1.pdb

>  <RI>
0

>  <Rbt.Current_Directory>
/home/fc/tossine/FB1_39/p3/3_clust03

>  <Rbt.Executable>
rbdock/0.1.0

>  <Rbt.Library>
librxdock.so/0.1.0

>  <Rbt.Parameter_File>
/cluster/rxdock/data/scripts/dock.prm

>  <Rbt.Receptor>
rx_4.prm

>  <SCORE>
19.75

>  <SCORE.INTER>
-0.637569

>  <SCORE.INTER.CONST>
1

>  <SCORE.INTER.POLAR>
-4.41817

>  <SCORE.INTER.REPUL>
0.159842

>  <SCORE.INTER.ROT>
32

>  <SCORE.INTER.VDW>
-23.815

>  <SCORE.INTER.norm>
-0.0127514

>  <SCORE.INTRA>
18.6834

>  <SCORE.INTRA.DIHEDRAL>
23.3287

>  <SCORE.INTRA.DIHEDRAL.0>
47.3121

>  <SCORE.INTRA.POLAR>
0.566645

>  <SCORE.INTRA.POLAR.0>
-1.47808

>  <SCORE.INTRA.REPUL>
0.36141

>  <SCORE.INTRA.REPUL.0>
0

>  <SCORE.INTRA.VDW>
3.28538

>  <SCORE.INTRA.VDW.0>
-2.78316

>  <SCORE.INTRA.norm>
0.373668

>  <SCORE.RESTR>
1.70416

>  <SCORE.RESTR.CAVITY>
1.70416

>  <SCORE.RESTR.norm>
0.0340832

>  <SCORE.SYSTEM>
0

>  <SCORE.SYSTEM.CONST>
0

>  <SCORE.SYSTEM.DIHEDRAL>
0

>  <SCORE.SYSTEM.norm>
0

>  <SCORE.heavy>
50

>  <SCORE.norm>
0.395

$$$$
