FB1.pdb
  RxDock  10072017433D
librxdock.so/0.1.0
 59 58  0  0  0  0  0  0  0  0999 V2000
  -12.6086    5.4912   -6.9997 C   0  0  0  0  0  0
  -11.7204    6.6618   -6.5849 C   0  0  0  0  0  0
  -11.1514    7.4050   -7.8048 C   0  0  0  0  0  0
   -9.9000    6.7248   -8.4139 C   0  0  0  0  0  0
   -9.6566    7.0270   -9.9338 C   0  0  0  0  0  0
   -9.1696    8.4885  -10.0662 C   0  0  0  0  0  0
   -8.6379    6.0247  -10.6235 C   0  0  0  0  0  0
   -7.1581    5.9602  -10.0136 C   0  0  0  0  0  0
   -6.5090    4.6850   -9.3202 C   0  0  0  0  0  0
   -6.5013    3.3161  -10.2408 C   0  0  0  0  0  0
   -5.6780    3.5829  -11.4998 C   0  0  0  0  0  0
   -5.9725    1.9914   -9.5265 C   0  0  0  0  0  0
   -5.4886    0.6652  -10.3175 C   0  0  0  0  0  0
   -3.9918    0.4225  -10.7137 C   0  0  0  0  0  0
   -3.3839    1.2630  -11.9275 C   0  0  0  0  0  0
   -1.9174    1.8487  -11.9563 C   0  0  0  0  0  0
   -1.4895    2.8914  -10.8900 C   0  0  0  0  0  0
   -0.0278    3.4716  -11.0173 C   0  0  0  0  0  0
    0.2167    4.4494  -12.1735 C   0  0  0  0  0  0
    1.4967    5.3317  -12.1347 C   0  0  0  0  0  0
    1.9312    6.1510  -13.3859 C   0  0  0  0  0  0
    2.7173    5.3975  -14.4497 C   0  0  0  0  0  0
    0.7782    6.8532  -13.9806 N   0  0  0  0  0  0
    1.2287    6.3235  -11.1109 O   0  0  0  0  0  0
    0.2942    4.1312   -9.7881 O   0  0  0  0  0  0
   -5.8286   -0.4282   -9.4483 O   0  0  0  0  0  0
   -6.2538    6.2744  -11.1072 O   0  0  0  0  0  0
   -5.2631    7.1679  -10.8511 C   0  0  0  0  0  0
   -5.3981    8.2674  -10.3487 O   0  0  0  0  0  0
   -3.9461    6.5312  -11.1997 C   0  0  0  0  0  0
   -2.7458    7.3197  -10.6520 C   0  0  0  0  0  0
   -1.7559    6.4302   -9.8889 C   0  0  0  0  0  0
   -1.0182    7.2182   -8.8314 C   0  0  0  0  0  0
   -1.3215    7.2083   -7.6433 O   0  0  0  0  0  0
    0.0076    7.9332   -9.3163 O   0  0  0  0  0  0
   -2.0575    7.9432  -11.8741 C   0  0  0  0  0  0
   -0.8554    7.8625  -12.0759 O   0  0  0  0  0  0
   -2.8786    8.6292  -12.6810 O   0  0  0  0  0  0
   -9.2344    4.6752  -10.7751 O   0  0  0  0  0  0
  -10.4446    4.5603  -11.4386 C   0  0  0  0  0  0
  -11.0766    5.5005  -11.9021 O   0  0  0  0  0  0
  -10.9211    3.1050  -11.5358 C   0  0  0  0  0  0
  -10.4484    2.1593  -10.3883 C   0  0  0  0  0  0
  -11.5042    1.2780   -9.6962 C   0  0  0  0  0  0
  -12.2169    1.9842   -8.5792 C   0  0  0  0  0  0
  -12.0802    1.7517   -7.3859 O   0  0  0  0  0  0
  -13.0389    2.9474   -9.0228 O   0  0  0  0  0  0
   -9.2699    1.2496  -10.7565 C   0  0  0  0  0  0
   -8.8014    1.1966  -11.8766 O   0  0  0  0  0  0
   -8.7090    0.5824   -9.7262 O   0  0  0  0  0  0
    0.4496    7.5660  -13.3307 H   0  0  0  0  0  0
    0.0012    6.1937  -14.0631 H   0  0  0  0  0  0
    0.9701    5.8008  -10.3227 H   0  0  0  0  0  0
    0.1733    3.4939   -9.0602 H   0  0  0  0  0  0
   -5.2006   -0.4292   -8.7065 H   0  0  0  0  0  0
    0.1285    7.8850  -10.2841 H   0  0  0  0  0  0
   -2.4441    9.0000  -13.4888 H   0  0  0  0  0  0
  -12.9351    2.9790   -9.9973 H   0  0  0  0  0  0
   -9.0209    0.8502   -8.8333 H   0  0  0  0  0  0
  1  2  1  0  0  0
  2  3  1  0  0  0
  3  4  1  0  0  0
  4  5  1  0  0  0
  5  6  1  0  0  0
  5  7  1  0  0  0
  7  8  1  0  0  0
  7 39  1  0  0  0
  8  9  1  0  0  0
  8 27  1  0  0  0
  9 10  1  0  0  0
 10 11  1  0  0  0
 10 12  1  0  0  0
 12 13  1  0  0  0
 13 14  1  0  0  0
 13 26  1  0  0  0
 14 15  1  0  0  0
 15 16  1  0  0  0
 16 17  1  0  0  0
 17 18  1  0  0  0
 18 19  1  0  0  0
 18 25  1  0  0  0
 19 20  1  0  0  0
 20 21  1  0  0  0
 20 24  1  0  0  0
 21 22  1  0  0  0
 21 23  1  0  0  0
 23 51  1  0  0  0
 23 52  1  0  0  0
 24 53  1  0  0  0
 25 54  1  0  0  0
 26 55  1  0  0  0
 27 28  1  0  0  0
 28 29  2  0  0  0
 28 30  1  0  0  0
 30 31  1  0  0  0
 31 32  1  0  0  0
 31 36  1  0  0  0
 32 33  1  0  0  0
 33 34  2  0  0  0
 33 35  1  0  0  0
 35 56  1  0  0  0
 36 37  2  0  0  0
 36 38  1  0  0  0
 38 57  1  0  0  0
 39 40  1  0  0  0
 40 41  2  0  0  0
 40 42  1  0  0  0
 42 43  1  0  0  0
 43 44  1  0  0  0
 43 48  1  0  0  0
 44 45  1  0  0  0
 45 46  2  0  0  0
 45 47  1  0  0  0
 47 58  1  0  0  0
 48 49  2  0  0  0
 48 50  1  0  0  0
 50 59  1  0  0  0
M  END
>  <AUTHOR>
    GENERATED BY OPEN BABEL 2.4.1

>  <CHROM.1>
-81.82292585,154.59392553,72.46485668,-59.56592798,115.89281272,54.86269784
55.57167026,133.79750267,61.17752140,-162.05689561,92.56886297,-74.36628266
-73.65971776,141.18534242,-61.71169678,-177.70827457,72.30726588,164.09469925
55.50827926,169.04344494,-82.59544483,53.01151747,66.56366599,-50.91475105
-166.75968164,129.99021521,-151.89431313,-130.73227379,99.44203662,2.25625180
-177.57825587,-0.92461847,28.52740399,131.16569511,-85.39432044,-5.04572538
-108.95046361,-2.61698270,-8.92688801,-5.55301422,4.72527122,-10.47216160
2.96691361,-0.22757908,-3.03989415

>  <COMPND>
    UNNAMED

>  <MASTER>
        0    0    0    0    0    0    0    0  109    0  109    0

>  <Name>
FB1.pdb

>  <RI>
0

>  <Rbt.Current_Directory>
/home/fc/tossine/FB1_39/p3/3_clust03

>  <Rbt.Executable>
rbdock/0.1.0

>  <Rbt.Library>
librxdock.so/0.1.0

>  <Rbt.Parameter_File>
/cluster/rxdock/data/scripts/dock.prm

>  <Rbt.Receptor>
rx_3.prm

>  <SCORE>
9.09132

>  <SCORE.INTER>
2.17602

>  <SCORE.INTER.CONST>
1

>  <SCORE.INTER.POLAR>
-2.57041

>  <SCORE.INTER.REPUL>
0.130175

>  <SCORE.INTER.ROT>
32

>  <SCORE.INTER.VDW>
-27.1355

>  <SCORE.INTER.norm>
0.0435205

>  <SCORE.INTRA>
4.98725

>  <SCORE.INTRA.DIHEDRAL>
21.5854

>  <SCORE.INTRA.DIHEDRAL.0>
47.3121

>  <SCORE.INTRA.POLAR>
-0.861153

>  <SCORE.INTRA.POLAR.0>
-1.47808

>  <SCORE.INTRA.REPUL>
0.00122602

>  <SCORE.INTRA.REPUL.0>
0

>  <SCORE.INTRA.VDW>
-2.88366

>  <SCORE.INTRA.VDW.0>
-2.78316

>  <SCORE.INTRA.norm>
0.0997449

>  <SCORE.RESTR>
1.92805

>  <SCORE.RESTR.CAVITY>
1.92805

>  <SCORE.RESTR.norm>
0.038561

>  <SCORE.SYSTEM>
0

>  <SCORE.SYSTEM.CONST>
0

>  <SCORE.SYSTEM.DIHEDRAL>
0

>  <SCORE.SYSTEM.norm>
0

>  <SCORE.heavy>
50

>  <SCORE.norm>
0.181826

$$$$
