FB1.pdb
  RxDock  10072017063D
librxdock.so/0.1.0
 59 58  0  0  0  0  0  0  0  0999 V2000
   -6.2676    0.4278   -9.5177 C   0  0  0  0  0  0
   -5.5324   -0.3490  -10.6074 C   0  0  0  0  0  0
   -5.8601    0.1892  -12.0099 C   0  0  0  0  0  0
   -4.9450   -0.3841  -13.1207 C   0  0  0  0  0  0
   -3.4131   -0.1112  -12.9221 C   0  0  0  0  0  0
   -2.7075   -0.2884  -14.2864 C   0  0  0  0  0  0
   -3.0992    1.3151  -12.3018 C   0  0  0  0  0  0
   -1.7545    1.4526  -11.4421 C   0  0  0  0  0  0
   -1.5045    2.5307  -10.3004 C   0  0  0  0  0  0
   -1.3786    4.0894  -10.8257 C   0  0  0  0  0  0
   -2.4331    4.9300  -10.1076 C   0  0  0  0  0  0
    0.0533    4.7732  -10.6615 C   0  0  0  0  0  0
    1.2286    4.6958  -11.7710 C   0  0  0  0  0  0
    1.1667    5.4951  -13.1176 C   0  0  0  0  0  0
    0.8663    7.0619  -13.0552 C   0  0  0  0  0  0
   -0.2764    7.7135  -12.1809 C   0  0  0  0  0  0
   -0.0656    9.1276  -11.5781 C   0  0  0  0  0  0
   -0.8744    9.4628  -10.2655 C   0  0  0  0  0  0
   -0.9935   10.9480   -9.9016 C   0  0  0  0  0  0
   -1.2688   11.9672  -11.0434 C   0  0  0  0  0  0
   -2.7286   12.3033  -11.4691 C   0  0  0  0  0  0
   -2.8918   13.1169  -12.7454 C   0  0  0  0  0  0
   -3.5577   11.0838  -11.5115 N   0  0  0  0  0  0
   -0.7214   13.2196  -10.5580 O   0  0  0  0  0  0
   -2.1925    8.9225  -10.4088 O   0  0  0  0  0  0
    2.4031    5.1821  -11.0997 O   0  0  0  0  0  0
   -1.5647    0.1741  -10.7774 O   0  0  0  0  0  0
   -0.4956   -0.5695  -11.1641 C   0  0  0  0  0  0
    0.5964   -0.1443  -11.4898 O   0  0  0  0  0  0
   -0.8524   -2.0238  -11.0261 C   0  0  0  0  0  0
   -0.5390   -2.5784   -9.6273 C   0  0  0  0  0  0
   -1.5692   -2.1434   -8.5772 C   0  0  0  0  0  0
   -1.5294   -0.6483   -8.3612 C   0  0  0  0  0  0
   -2.5291    0.0370   -8.1750 O   0  0  0  0  0  0
   -0.2898   -0.1370   -8.3906 O   0  0  0  0  0  0
   -0.5460   -4.1069   -9.7682 C   0  0  0  0  0  0
   -1.5719   -4.7695   -9.7947 O   0  0  0  0  0  0
    0.6722   -4.6639   -9.8106 O   0  0  0  0  0  0
   -3.2135    2.3815  -13.3263 O   0  0  0  0  0  0
   -3.9157    3.5312  -13.0054 C   0  0  0  0  0  0
   -3.8912    4.5670  -13.6574 O   0  0  0  0  0  0
   -4.7446    3.3706  -11.7242 C   0  0  0  0  0  0
   -6.1812    3.9781  -11.7663 C   0  0  0  0  0  0
   -7.2956    3.1540  -12.4365 C   0  0  0  0  0  0
   -7.7025    3.6976  -13.7757 C   0  0  0  0  0  0
   -8.6039    4.5000  -13.9761 O   0  0  0  0  0  0
   -6.9457    3.2194  -14.7751 O   0  0  0  0  0  0
   -6.7170    4.4428  -10.4064 C   0  0  0  0  0  0
   -6.8479    5.6150  -10.1139 O   0  0  0  0  0  0
   -7.1394    3.4601   -9.5835 O   0  0  0  0  0  0
   -4.4374   11.2941  -11.9811 H   0  0  0  0  0  0
   -3.8223   10.8353  -10.5556 H   0  0  0  0  0  0
   -1.3128   13.4778   -9.8199 H   0  0  0  0  0  0
   -2.6631    9.4441  -11.0848 H   0  0  0  0  0  0
    3.1794    4.9125  -11.6186 H   0  0  0  0  0  0
   -0.2277    0.8167   -8.1906 H   0  0  0  0  0  0
    1.3946   -4.0987   -9.4399 H   0  0  0  0  0  0
   -7.0568    3.8339  -15.5310 H   0  0  0  0  0  0
   -8.1140    3.3415   -9.5372 H   0  0  0  0  0  0
  1  2  1  0  0  0
  2  3  1  0  0  0
  3  4  1  0  0  0
  4  5  1  0  0  0
  5  6  1  0  0  0
  5  7  1  0  0  0
  7  8  1  0  0  0
  7 39  1  0  0  0
  8  9  1  0  0  0
  8 27  1  0  0  0
  9 10  1  0  0  0
 10 11  1  0  0  0
 10 12  1  0  0  0
 12 13  1  0  0  0
 13 14  1  0  0  0
 13 26  1  0  0  0
 14 15  1  0  0  0
 15 16  1  0  0  0
 16 17  1  0  0  0
 17 18  1  0  0  0
 18 19  1  0  0  0
 18 25  1  0  0  0
 19 20  1  0  0  0
 20 21  1  0  0  0
 20 24  1  0  0  0
 21 22  1  0  0  0
 21 23  1  0  0  0
 23 51  1  0  0  0
 23 52  1  0  0  0
 24 53  1  0  0  0
 25 54  1  0  0  0
 26 55  1  0  0  0
 27 28  1  0  0  0
 28 29  2  0  0  0
 28 30  1  0  0  0
 30 31  1  0  0  0
 31 32  1  0  0  0
 31 36  1  0  0  0
 32 33  1  0  0  0
 33 34  2  0  0  0
 33 35  1  0  0  0
 35 56  1  0  0  0
 36 37  2  0  0  0
 36 38  1  0  0  0
 38 57  1  0  0  0
 39 40  1  0  0  0
 40 41  2  0  0  0
 40 42  1  0  0  0
 42 43  1  0  0  0
 43 44  1  0  0  0
 43 48  1  0  0  0
 44 45  1  0  0  0
 45 46  2  0  0  0
 45 47  1  0  0  0
 47 58  1  0  0  0
 48 49  2  0  0  0
 48 50  1  0  0  0
 50 59  1  0  0  0
M  END
>  <AUTHOR>
    GENERATED BY OPEN BABEL 2.4.1

>  <CHROM.1>
169.18642928,-58.79227301,-160.65151474,152.01447389,-154.96333973,133.51213380
-68.64168601,112.97533831,122.97437204,88.56506223,72.86012890,51.29345190
163.24789037,-46.21972283,147.50667537,-153.85263421,-162.80532326,41.53612751
-69.80790256,88.18790965,-169.62590830,-68.88979665,-167.80757135,35.98676041
-88.51842525,76.46810204,-65.29345871,-79.60840165,141.77029438,-175.82128067
20.26959672,166.71423086,-137.95104187,81.29045728,-106.51078350,108.50449675
-91.97200852,-160.71933854,-101.89648312,-2.64832235,3.49710917,-11.27661320
1.57587721,0.23859727,3.06007675

>  <COMPND>
    UNNAMED

>  <MASTER>
        0    0    0    0    0    0    0    0  109    0  109    0

>  <Name>
FB1.pdb

>  <RI>
0

>  <Rbt.Current_Directory>
/home/fc/tossine/FB1_39/p3/3_clust03

>  <Rbt.Executable>
rbdock/0.1.0

>  <Rbt.Library>
librxdock.so/0.1.0

>  <Rbt.Parameter_File>
/cluster/rxdock/data/scripts/dock.prm

>  <Rbt.Receptor>
rx_2.prm

>  <SCORE>
29.2564

>  <SCORE.INTER>
4.61523

>  <SCORE.INTER.CONST>
1

>  <SCORE.INTER.POLAR>
-2.94079

>  <SCORE.INTER.REPUL>
0.122591

>  <SCORE.INTER.ROT>
32

>  <SCORE.INTER.VDW>
-23.399

>  <SCORE.INTER.norm>
0.0923046

>  <SCORE.INTRA>
23.7952

>  <SCORE.INTRA.DIHEDRAL>
51.7214

>  <SCORE.INTRA.DIHEDRAL.0>
47.3121

>  <SCORE.INTRA.POLAR>
0.540294

>  <SCORE.INTRA.POLAR.0>
-1.47808

>  <SCORE.INTRA.REPUL>
0

>  <SCORE.INTRA.REPUL.0>
0

>  <SCORE.INTRA.VDW>
-3.90246

>  <SCORE.INTRA.VDW.0>
-2.78316

>  <SCORE.INTRA.norm>
0.475905

>  <SCORE.RESTR>
0.845972

>  <SCORE.RESTR.CAVITY>
0.845972

>  <SCORE.RESTR.norm>
0.0169194

>  <SCORE.SYSTEM>
0

>  <SCORE.SYSTEM.CONST>
0

>  <SCORE.SYSTEM.DIHEDRAL>
0

>  <SCORE.SYSTEM.norm>
0

>  <SCORE.heavy>
50

>  <SCORE.norm>
0.585129

$$$$
