FB1.pdb
  RxDock  10072017023D
librxdock.so/0.1.0
 59 58  0  0  0  0  0  0  0  0999 V2000
   -9.1532    9.2579   -6.9764 C   0  0  0  0  0  0
   -9.0553    7.7634   -7.2736 C   0  0  0  0  0  0
   -8.3428    7.4939   -8.6092 C   0  0  0  0  0  0
   -8.0040    5.9998   -8.8379 C   0  0  0  0  0  0
   -6.4715    5.6671   -8.8752 C   0  0  0  0  0  0
   -6.2514    4.3124   -8.1632 C   0  0  0  0  0  0
   -5.8642    5.6430  -10.3410 C   0  0  0  0  0  0
   -5.5291    4.2058  -10.9641 C   0  0  0  0  0  0
   -6.3888    3.4697  -12.0809 C   0  0  0  0  0  0
   -6.0536    1.8665  -12.2781 C   0  0  0  0  0  0
   -7.1523    1.2434  -13.1376 C   0  0  0  0  0  0
   -4.6262    1.5179  -12.8991 C   0  0  0  0  0  0
   -3.9031    0.0770  -12.7596 C   0  0  0  0  0  0
   -4.5835   -1.1384  -12.0413 C   0  0  0  0  0  0
   -3.7503   -1.9239  -10.9287 C   0  0  0  0  0  0
   -2.3654   -2.6358  -11.1932 C   0  0  0  0  0  0
   -1.0472   -1.8425  -10.9921 C   0  0  0  0  0  0
   -0.9871   -0.8788   -9.7443 C   0  0  0  0  0  0
   -1.9594   -1.1885   -8.5992 C   0  0  0  0  0  0
   -1.7500   -2.4988   -7.7882 C   0  0  0  0  0  0
   -2.5738   -2.7688   -6.4944 C   0  0  0  0  0  0
   -1.8957   -2.4252   -5.1755 C   0  0  0  0  0  0
   -3.9073   -2.1435   -6.5804 N   0  0  0  0  0  0
   -2.1268   -3.5606   -8.7017 O   0  0  0  0  0  0
    0.3479   -0.9078   -9.2278 O   0  0  0  0  0  0
   -3.6858   -0.3600  -14.1118 O   0  0  0  0  0  0
   -4.2015    4.3146  -11.5456 O   0  0  0  0  0  0
   -3.1457    4.1177  -10.7139 C   0  0  0  0  0  0
   -2.9855    3.1718   -9.9663 O   0  0  0  0  0  0
   -2.1475    5.2189  -10.9429 C   0  0  0  0  0  0
   -0.9203    4.7472  -11.7390 C   0  0  0  0  0  0
   -0.2718    5.8789  -12.5464 C   0  0  0  0  0  0
    0.1223    5.4073  -13.9268 C   0  0  0  0  0  0
   -0.4341    4.4850  -14.5130 O   0  0  0  0  0  0
    1.1435    6.0972  -14.4559 O   0  0  0  0  0  0
    0.0730    4.2060  -10.7016 C   0  0  0  0  0  0
    0.6127    4.9120   -9.8633 O   0  0  0  0  0  0
    0.3400    2.8982  -10.8212 O   0  0  0  0  0  0
   -6.6695    6.4750  -11.2679 O   0  0  0  0  0  0
   -6.4115    7.8344  -11.3264 C   0  0  0  0  0  0
   -6.8601    8.6627  -10.5447 O   0  0  0  0  0  0
   -5.4869    8.2035  -12.4941 C   0  0  0  0  0  0
   -3.9745    8.3508  -12.1400 C   0  0  0  0  0  0
   -3.5149    7.9186  -10.7356 C   0  0  0  0  0  0
   -2.5076    8.8554  -10.1339 C   0  0  0  0  0  0
   -2.7008    9.5918   -9.1763 O   0  0  0  0  0  0
   -1.3190    8.7982  -10.7540 O   0  0  0  0  0  0
   -3.0175    7.7037  -13.1488 C   0  0  0  0  0  0
   -2.1125    8.3126  -13.6847 O   0  0  0  0  0  0
   -3.1759    6.3756  -13.3280 O   0  0  0  0  0  0
   -3.8917   -1.2540   -6.0834 H   0  0  0  0  0  0
   -4.5733   -2.7223   -6.0638 H   0  0  0  0  0  0
   -1.8839   -4.3869   -8.2330 H   0  0  0  0  0  0
    0.5801   -1.8352   -9.0369 H   0  0  0  0  0  0
   -3.2636   -1.2348  -14.0809 H   0  0  0  0  0  0
    1.5278    6.7828  -13.8764 H   0  0  0  0  0  0
    1.0813    2.5771  -10.2501 H   0  0  0  0  0  0
   -1.3261    7.9846  -11.3012 H   0  0  0  0  0  0
   -3.9446    5.9779  -12.8620 H   0  0  0  0  0  0
  1  2  1  0  0  0
  2  3  1  0  0  0
  3  4  1  0  0  0
  4  5  1  0  0  0
  5  6  1  0  0  0
  5  7  1  0  0  0
  7  8  1  0  0  0
  7 39  1  0  0  0
  8  9  1  0  0  0
  8 27  1  0  0  0
  9 10  1  0  0  0
 10 11  1  0  0  0
 10 12  1  0  0  0
 12 13  1  0  0  0
 13 14  1  0  0  0
 13 26  1  0  0  0
 14 15  1  0  0  0
 15 16  1  0  0  0
 16 17  1  0  0  0
 17 18  1  0  0  0
 18 19  1  0  0  0
 18 25  1  0  0  0
 19 20  1  0  0  0
 20 21  1  0  0  0
 20 24  1  0  0  0
 21 22  1  0  0  0
 21 23  1  0  0  0
 23 51  1  0  0  0
 23 52  1  0  0  0
 24 53  1  0  0  0
 25 54  1  0  0  0
 26 55  1  0  0  0
 27 28  1  0  0  0
 28 29  2  0  0  0
 28 30  1  0  0  0
 30 31  1  0  0  0
 31 32  1  0  0  0
 31 36  1  0  0  0
 32 33  1  0  0  0
 33 34  2  0  0  0
 33 35  1  0  0  0
 35 56  1  0  0  0
 36 37  2  0  0  0
 36 38  1  0  0  0
 38 57  1  0  0  0
 39 40  1  0  0  0
 40 41  2  0  0  0
 40 42  1  0  0  0
 42 43  1  0  0  0
 43 44  1  0  0  0
 43 48  1  0  0  0
 44 45  1  0  0  0
 45 46  2  0  0  0
 45 47  1  0  0  0
 47 58  1  0  0  0
 48 49  2  0  0  0
 48 50  1  0  0  0
 50 59  1  0  0  0
M  END
>  <AUTHOR>
    GENERATED BY OPEN BABEL 2.4.1

>  <CHROM.1>
170.10225879,-114.31485670,141.72527480,-105.84060657,104.95456800,84.66167642
-165.44030746,85.13735407,167.42126288,160.06657894,2.70830842,-129.94175962
-179.07238053,-59.00369040,90.39066411,40.17291009,22.07816421,67.10459509
-55.38797026,171.31348888,-97.11323434,172.81962139,-98.39945496,50.96901517
-104.97415279,152.11596732,-137.87689912,-65.80380431,26.61834932,2.62651051
170.88167586,-82.74806808,-96.79087490,8.85830436,-139.36205029,125.48544725
111.16883676,-14.75425978,5.83885386,-3.48629888,3.71225485,-10.70619414
1.88477174,0.51385797,-0.29682657

>  <COMPND>
    UNNAMED

>  <MASTER>
        0    0    0    0    0    0    0    0  109    0  109    0

>  <Name>
FB1.pdb

>  <RI>
0

>  <Rbt.Current_Directory>
/home/fc/tossine/FB1_39/p3/3_clust03

>  <Rbt.Executable>
rbdock/0.1.0

>  <Rbt.Library>
librxdock.so/0.1.0

>  <Rbt.Parameter_File>
/cluster/rxdock/data/scripts/dock.prm

>  <Rbt.Receptor>
rx_2.prm

>  <SCORE>
57.2765

>  <SCORE.INTER>
16.9267

>  <SCORE.INTER.CONST>
1

>  <SCORE.INTER.POLAR>
-3.55765

>  <SCORE.INTER.REPUL>
0.379893

>  <SCORE.INTER.ROT>
32

>  <SCORE.INTER.VDW>
-10.2767

>  <SCORE.INTER.norm>
0.338535

>  <SCORE.INTRA>
38.7835

>  <SCORE.INTRA.DIHEDRAL>
73.6487

>  <SCORE.INTRA.DIHEDRAL.0>
47.3121

>  <SCORE.INTRA.POLAR>
0.787927

>  <SCORE.INTRA.POLAR.0>
-1.47808

>  <SCORE.INTRA.REPUL>
0

>  <SCORE.INTRA.REPUL.0>
0

>  <SCORE.INTRA.VDW>
-0.719786

>  <SCORE.INTRA.VDW.0>
-2.78316

>  <SCORE.INTRA.norm>
0.77567

>  <SCORE.RESTR>
1.56626

>  <SCORE.RESTR.CAVITY>
1.56626

>  <SCORE.RESTR.norm>
0.0313253

>  <SCORE.SYSTEM>
0

>  <SCORE.SYSTEM.CONST>
0

>  <SCORE.SYSTEM.DIHEDRAL>
0

>  <SCORE.SYSTEM.norm>
0

>  <SCORE.heavy>
50

>  <SCORE.norm>
1.14553

$$$$
