FB1.pdb
  RxDock  10072017393D
librxdock.so/0.1.0
 59 58  0  0  0  0  0  0  0  0999 V2000
    0.0228    7.9048   -9.2135 C   0  0  0  0  0  0
   -1.1425    8.2254  -10.1465 C   0  0  0  0  0  0
   -1.6627    6.9672  -10.8610 C   0  0  0  0  0  0
   -2.3664    5.9648   -9.9123 C   0  0  0  0  0  0
   -3.8064    5.5313  -10.3583 C   0  0  0  0  0  0
   -4.5553    6.7849  -10.8665 C   0  0  0  0  0  0
   -3.8113    4.3840  -11.4544 C   0  0  0  0  0  0
   -3.5110    4.8228  -12.9655 C   0  0  0  0  0  0
   -2.1109    4.6663  -13.7027 C   0  0  0  0  0  0
   -0.7918    4.6966  -12.7126 C   0  0  0  0  0  0
   -0.2511    3.2737  -12.5812 C   0  0  0  0  0  0
    0.3883    5.6796  -13.1434 C   0  0  0  0  0  0
    1.5338    5.3041  -14.2230 C   0  0  0  0  0  0
    2.5813    6.3514  -14.7352 C   0  0  0  0  0  0
    3.0968    7.4674  -13.7164 C   0  0  0  0  0  0
    2.4972    8.9252  -13.6172 C   0  0  0  0  0  0
    1.1195    9.1406  -12.9367 C   0  0  0  0  0  0
    0.6009   10.6281  -12.8490 C   0  0  0  0  0  0
   -0.3647   10.9442  -11.7000 C   0  0  0  0  0  0
   -1.8902   10.7784  -11.9521 C   0  0  0  0  0  0
   -2.8936   10.7768  -10.7611 C   0  0  0  0  0  0
   -2.9692   12.0546   -9.9372 C   0  0  0  0  0  0
   -4.2359   10.3556  -11.2053 N   0  0  0  0  0  0
   -2.2582   11.9314  -12.7515 O   0  0  0  0  0  0
    1.7404   11.4872  -12.7349 O   0  0  0  0  0  0
    2.3119    4.2727  -13.5926 O   0  0  0  0  0  0
   -4.4410    4.0776  -13.7975 O   0  0  0  0  0  0
   -5.5941    3.6608  -13.2129 C   0  0  0  0  0  0
   -5.8876    2.5128  -12.9385 O   0  0  0  0  0  0
   -6.4154    4.8713  -12.8639 C   0  0  0  0  0  0
   -7.8004    4.5046  -12.3073 C   0  0  0  0  0  0
   -7.7392    4.0063  -10.8577 C   0  0  0  0  0  0
   -7.7999    2.4977  -10.7968 C   0  0  0  0  0  0
   -8.7592    1.8412  -11.1871 O   0  0  0  0  0  0
   -6.6983    1.9393  -10.2738 O   0  0  0  0  0  0
   -8.6401    5.7870  -12.3870 C   0  0  0  0  0  0
   -8.7148    6.5932  -11.4722 O   0  0  0  0  0  0
   -9.3278    5.9276  -13.5286 O   0  0  0  0  0  0
   -2.9708    3.2370  -11.0328 O   0  0  0  0  0  0
   -3.2068    2.6677   -9.7926 C   0  0  0  0  0  0
   -4.2830    2.6897   -9.2097 O   0  0  0  0  0  0
   -1.9569    1.9926   -9.2127 C   0  0  0  0  0  0
   -1.7871    0.4785   -9.5491 C   0  0  0  0  0  0
   -0.5057   -0.2292   -9.0720 C   0  0  0  0  0  0
   -0.1753   -1.4513   -9.8793 C   0  0  0  0  0  0
    0.0134   -2.5736   -9.4304 O   0  0  0  0  0  0
   -0.1209   -1.1975  -11.1957 O   0  0  0  0  0  0
   -2.9721   -0.4033   -9.1361 C   0  0  0  0  0  0
   -3.6993   -0.9513   -9.9407 O   0  0  0  0  0  0
   -3.0964   -0.6230   -7.8103 O   0  0  0  0  0  0
   -4.2369    9.3477  -11.3561 H   0  0  0  0  0  0
   -4.4169   10.7600  -12.1268 H   0  0  0  0  0  0
   -1.7325   11.8392  -13.5740 H   0  0  0  0  0  0
    2.1632   11.5498  -13.6111 H   0  0  0  0  0  0
    2.8742    4.6898  -12.9185 H   0  0  0  0  0  0
   -6.0141    2.5685   -9.9747 H   0  0  0  0  0  0
   -9.7657    6.8080  -13.6376 H   0  0  0  0  0  0
    0.3862   -1.9311  -11.6030 H   0  0  0  0  0  0
   -2.4525   -0.1433   -7.2432 H   0  0  0  0  0  0
  1  2  1  0  0  0
  2  3  1  0  0  0
  3  4  1  0  0  0
  4  5  1  0  0  0
  5  6  1  0  0  0
  5  7  1  0  0  0
  7  8  1  0  0  0
  7 39  1  0  0  0
  8  9  1  0  0  0
  8 27  1  0  0  0
  9 10  1  0  0  0
 10 11  1  0  0  0
 10 12  1  0  0  0
 12 13  1  0  0  0
 13 14  1  0  0  0
 13 26  1  0  0  0
 14 15  1  0  0  0
 15 16  1  0  0  0
 16 17  1  0  0  0
 17 18  1  0  0  0
 18 19  1  0  0  0
 18 25  1  0  0  0
 19 20  1  0  0  0
 20 21  1  0  0  0
 20 24  1  0  0  0
 21 22  1  0  0  0
 21 23  1  0  0  0
 23 51  1  0  0  0
 23 52  1  0  0  0
 24 53  1  0  0  0
 25 54  1  0  0  0
 26 55  1  0  0  0
 27 28  1  0  0  0
 28 29  2  0  0  0
 28 30  1  0  0  0
 30 31  1  0  0  0
 31 32  1  0  0  0
 31 36  1  0  0  0
 32 33  1  0  0  0
 33 34  2  0  0  0
 33 35  1  0  0  0
 35 56  1  0  0  0
 36 37  2  0  0  0
 36 38  1  0  0  0
 38 57  1  0  0  0
 39 40  1  0  0  0
 40 41  2  0  0  0
 40 42  1  0  0  0
 42 43  1  0  0  0
 43 44  1  0  0  0
 43 48  1  0  0  0
 44 45  1  0  0  0
 45 46  2  0  0  0
 45 47  1  0  0  0
 47 58  1  0  0  0
 48 49  2  0  0  0
 48 50  1  0  0  0
 50 59  1  0  0  0
M  END
>  <AUTHOR>
    GENERATED BY OPEN BABEL 2.4.1

>  <CHROM.1>
68.58680277,127.02262485,-42.13786951,-78.68105716,100.11112380,53.08277425
-27.78613183,24.86231324,105.45221593,-83.36448312,173.09426241,34.34214180
-75.36116743,-95.96393039,74.92762923,178.76077871,-153.56418356,-90.21308758
75.37250833,166.50852504,62.62069540,61.71327343,75.01052999,-109.56788787
174.93553686,75.65405980,-100.07009267,-91.33515517,-62.59161861,1.85266723
-171.72656944,26.47139357,-91.51957758,176.07530194,-156.66933467,112.27069370
-125.65762146,160.91527704,4.14833665,-2.71294057,5.01769498,-11.50926298
-1.16308186,-0.05192485,2.94411012

>  <COMPND>
    UNNAMED

>  <MASTER>
        0    0    0    0    0    0    0    0  109    0  109    0

>  <Name>
FB1.pdb

>  <RI>
0

>  <Rbt.Current_Directory>
/home/fc/tossine/FB1_39/p3/3_clust03

>  <Rbt.Executable>
rbdock/0.1.0

>  <Rbt.Library>
librxdock.so/0.1.0

>  <Rbt.Parameter_File>
/cluster/rxdock/data/scripts/dock.prm

>  <Rbt.Receptor>
rx_3.prm

>  <SCORE>
39.265

>  <SCORE.INTER>
13.5986

>  <SCORE.INTER.CONST>
1

>  <SCORE.INTER.POLAR>
-1.35453

>  <SCORE.INTER.REPUL>
0.63496

>  <SCORE.INTER.ROT>
32

>  <SCORE.INTER.VDW>
-22.3708

>  <SCORE.INTER.norm>
0.271971

>  <SCORE.INTRA>
24.7096

>  <SCORE.INTRA.DIHEDRAL>
43.2156

>  <SCORE.INTRA.DIHEDRAL.0>
47.3121

>  <SCORE.INTRA.POLAR>
0.780336

>  <SCORE.INTRA.POLAR.0>
-1.47808

>  <SCORE.INTRA.REPUL>
0

>  <SCORE.INTRA.REPUL.0>
0

>  <SCORE.INTRA.VDW>
0.448661

>  <SCORE.INTRA.VDW.0>
-2.78316

>  <SCORE.INTRA.norm>
0.494192

>  <SCORE.RESTR>
0.956852

>  <SCORE.RESTR.CAVITY>
0.956852

>  <SCORE.RESTR.norm>
0.019137

>  <SCORE.SYSTEM>
0

>  <SCORE.SYSTEM.CONST>
0

>  <SCORE.SYSTEM.DIHEDRAL>
0

>  <SCORE.SYSTEM.norm>
0

>  <SCORE.heavy>
50

>  <SCORE.norm>
0.7853

$$$$
