FB1.pdb
  RxDock  10072018253D
librxdock.so/0.1.0
 59 58  0  0  0  0  0  0  0  0999 V2000
   -1.1735   11.4053   -9.3904 C   0  0  0  0  0  0
   -1.5290   10.5593  -10.6108 C   0  0  0  0  0  0
   -1.0102    9.1182  -10.4753 C   0  0  0  0  0  0
   -2.0368    8.1498   -9.8366 C   0  0  0  0  0  0
   -3.0461    7.4969  -10.8444 C   0  0  0  0  0  0
   -3.6193    8.6123  -11.7487 C   0  0  0  0  0  0
   -2.4087    6.3327  -11.7141 C   0  0  0  0  0  0
   -1.8173    5.0737  -10.9196 C   0  0  0  0  0  0
   -2.3273    3.5752  -11.0697 C   0  0  0  0  0  0
   -1.6631    2.7325  -12.3227 C   0  0  0  0  0  0
   -0.4942    1.9075  -11.7870 C   0  0  0  0  0  0
   -2.6557    1.7870  -13.1386 C   0  0  0  0  0  0
   -3.5107    0.5827  -12.4773 C   0  0  0  0  0  0
   -2.8693   -0.7988  -12.1081 C   0  0  0  0  0  0
   -3.8358   -1.9842  -11.6500 C   0  0  0  0  0  0
   -3.4050   -3.5017  -11.5705 C   0  0  0  0  0  0
   -3.2723   -4.1873  -10.1849 C   0  0  0  0  0  0
   -2.2413   -3.5471   -9.1768 C   0  0  0  0  0  0
   -2.4973   -2.0883   -8.7781 C   0  0  0  0  0  0
   -1.4311   -1.3636   -7.9084 C   0  0  0  0  0  0
   -1.5638    0.1566   -7.5974 C   0  0  0  0  0  0
   -2.6678    0.9045   -8.3317 C   0  0  0  0  0  0
   -1.6457    0.3902   -6.1430 N   0  0  0  0  0  0
   -1.5033   -2.0189   -6.6164 O   0  0  0  0  0  0
   -2.2290   -4.3475   -7.9898 O   0  0  0  0  0  0
   -3.9976    1.1146  -11.2337 O   0  0  0  0  0  0
   -0.4047    5.0084  -11.2552 O   0  0  0  0  0  0
   -0.0813    5.0529  -12.5739 C   0  0  0  0  0  0
   -0.8624    5.0641  -13.5062 O   0  0  0  0  0  0
    1.4115    5.1896  -12.6935 C   0  0  0  0  0  0
    1.8450    5.7598  -14.0534 C   0  0  0  0  0  0
    1.1324    7.0748  -14.3945 C   0  0  0  0  0  0
    0.8762    7.8944  -13.1512 C   0  0  0  0  0  0
    1.6765    7.9938  -12.2274 O   0  0  0  0  0  0
   -0.3159    8.5091  -13.1526 O   0  0  0  0  0  0
    3.3583    5.9941  -13.9495 C   0  0  0  0  0  0
    3.8877    6.5139  -12.9789 O   0  0  0  0  0  0
    4.0509    5.6255  -15.0360 O   0  0  0  0  0  0
   -3.3223    5.9192  -12.8070 O   0  0  0  0  0  0
   -4.6562    5.7021  -12.5042 C   0  0  0  0  0  0
   -5.5897    5.9435  -13.2583 O   0  0  0  0  0  0
   -4.8480    5.1156  -11.0993 C   0  0  0  0  0  0
   -6.2941    4.6417  -10.7548 C   0  0  0  0  0  0
   -6.6727    3.1838  -11.0734 C   0  0  0  0  0  0
   -6.6245    2.8726  -12.5415 C   0  0  0  0  0  0
   -6.6060    3.6968  -13.4453 O   0  0  0  0  0  0
   -6.5830    1.5538  -12.7854 O   0  0  0  0  0  0
   -6.7281    4.9169   -9.3097 C   0  0  0  0  0  0
   -7.8927    5.0169   -8.9777 O   0  0  0  0  0  0
   -5.7320    4.9361   -8.3994 O   0  0  0  0  0  0
   -0.7290    0.2316   -5.7271 H   0  0  0  0  0  0
   -2.2493   -0.3247   -5.7308 H   0  0  0  0  0  0
   -0.7312   -1.6730   -6.1209 H   0  0  0  0  0  0
   -3.1140   -4.3022   -7.5832 H   0  0  0  0  0  0
   -4.5925    0.4563  -10.8374 H   0  0  0  0  0  0
   -0.9328    8.2202  -13.8522 H   0  0  0  0  0  0
    3.4933    5.4135  -15.8253 H   0  0  0  0  0  0
   -6.6086    1.1056  -11.9138 H   0  0  0  0  0  0
   -4.8501    5.1955   -8.7476 H   0  0  0  0  0  0
  1  2  1  0  0  0
  2  3  1  0  0  0
  3  4  1  0  0  0
  4  5  1  0  0  0
  5  6  1  0  0  0
  5  7  1  0  0  0
  7  8  1  0  0  0
  7 39  1  0  0  0
  8  9  1  0  0  0
  8 27  1  0  0  0
  9 10  1  0  0  0
 10 11  1  0  0  0
 10 12  1  0  0  0
 12 13  1  0  0  0
 13 14  1  0  0  0
 13 26  1  0  0  0
 14 15  1  0  0  0
 15 16  1  0  0  0
 16 17  1  0  0  0
 17 18  1  0  0  0
 18 19  1  0  0  0
 18 25  1  0  0  0
 19 20  1  0  0  0
 20 21  1  0  0  0
 20 24  1  0  0  0
 21 22  1  0  0  0
 21 23  1  0  0  0
 23 51  1  0  0  0
 23 52  1  0  0  0
 24 53  1  0  0  0
 25 54  1  0  0  0
 26 55  1  0  0  0
 27 28  1  0  0  0
 28 29  2  0  0  0
 28 30  1  0  0  0
 30 31  1  0  0  0
 31 32  1  0  0  0
 31 36  1  0  0  0
 32 33  1  0  0  0
 33 34  2  0  0  0
 33 35  1  0  0  0
 35 56  1  0  0  0
 36 37  2  0  0  0
 36 38  1  0  0  0
 38 57  1  0  0  0
 39 40  1  0  0  0
 40 41  2  0  0  0
 40 42  1  0  0  0
 42 43  1  0  0  0
 43 44  1  0  0  0
 43 48  1  0  0  0
 44 45  1  0  0  0
 45 46  2  0  0  0
 45 47  1  0  0  0
 47 58  1  0  0  0
 48 49  2  0  0  0
 48 50  1  0  0  0
 50 59  1  0  0  0
M  END
>  <AUTHOR>
    GENERATED BY OPEN BABEL 2.4.1

>  <CHROM.1>
91.58439518,86.43373885,-47.74413381,59.90807481,119.01654892,-46.60898308
84.52491884,-50.30972627,96.40505426,-58.33042759,-77.33231209,-171.68412804
174.48265291,165.16032530,110.78545979,-59.09090291,60.03925955,-173.61508747
-63.44180223,173.61745238,-7.77115164,170.42233958,72.60766405,-4.57938906
-158.80603163,53.02004295,34.11575645,-44.66396496,39.35842336,11.48945458
11.11270972,145.75315660,-171.23236495,89.94840820,-63.21436866,156.04172389
-16.56126355,0.83759498,27.62878593,-2.30961042,3.68741261,-11.20748936,1.25938712
0.21917412,-0.22701148

>  <COMPND>
    UNNAMED

>  <MASTER>
        0    0    0    0    0    0    0    0  109    0  109    0

>  <Name>
FB1.pdb

>  <RI>
0

>  <Rbt.Current_Directory>
/home/fc/tossine/FB1_39/p3/3_clust03

>  <Rbt.Executable>
rbdock/0.1.0

>  <Rbt.Library>
librxdock.so/0.1.0

>  <Rbt.Parameter_File>
/cluster/rxdock/data/scripts/dock.prm

>  <Rbt.Receptor>
rx_4.prm

>  <SCORE>
28.7861

>  <SCORE.INTER>
3.75359

>  <SCORE.INTER.CONST>
1

>  <SCORE.INTER.POLAR>
-4.05714

>  <SCORE.INTER.REPUL>
0.638602

>  <SCORE.INTER.ROT>
32

>  <SCORE.INTER.VDW>
-23.0451

>  <SCORE.INTER.norm>
0.0750718

>  <SCORE.INTRA>
25.0243

>  <SCORE.INTRA.DIHEDRAL>
19.7371

>  <SCORE.INTRA.DIHEDRAL.0>
47.3121

>  <SCORE.INTRA.POLAR>
1.47658

>  <SCORE.INTRA.POLAR.0>
-1.47808

>  <SCORE.INTRA.REPUL>
0

>  <SCORE.INTRA.REPUL.0>
0

>  <SCORE.INTRA.VDW>
10.1354

>  <SCORE.INTRA.VDW.0>
-2.78316

>  <SCORE.INTRA.norm>
0.500487

>  <SCORE.RESTR>
0.00812688

>  <SCORE.RESTR.CAVITY>
0.00812688

>  <SCORE.RESTR.norm>
0.000162538

>  <SCORE.SYSTEM>
0

>  <SCORE.SYSTEM.CONST>
0

>  <SCORE.SYSTEM.DIHEDRAL>
0

>  <SCORE.SYSTEM.norm>
0

>  <SCORE.heavy>
50

>  <SCORE.norm>
0.575721

$$$$
