FB1.pdb
  RxDock  10072017463D
librxdock.so/0.1.0
 59 58  0  0  0  0  0  0  0  0999 V2000
   -9.4934    6.4400   -9.9202 C   0  0  0  0  0  0
   -8.2295    5.5898   -9.8147 C   0  0  0  0  0  0
   -6.9588    6.4305  -10.0215 C   0  0  0  0  0  0
   -6.7131    6.8252  -11.4992 C   0  0  0  0  0  0
   -5.6914    7.9965  -11.7099 C   0  0  0  0  0  0
   -6.2989    9.2848  -11.1083 C   0  0  0  0  0  0
   -4.2578    7.7046  -11.0956 C   0  0  0  0  0  0
   -3.1633    7.0686  -12.0774 C   0  0  0  0  0  0
   -3.4842    6.3182  -13.4419 C   0  0  0  0  0  0
   -3.8187    4.7096  -13.2937 C   0  0  0  0  0  0
   -2.6593    4.0388  -12.5589 C   0  0  0  0  0  0
   -5.1935    4.3408  -12.5734 C   0  0  0  0  0  0
   -5.8676    2.8700  -12.6031 C   0  0  0  0  0  0
   -5.2965    1.6672  -11.7765 C   0  0  0  0  0  0
   -5.0821    1.8613  -10.2063 C   0  0  0  0  0  0
   -3.8554    2.6211   -9.5641 C   0  0  0  0  0  0
   -2.4423    1.9836   -9.6286 C   0  0  0  0  0  0
   -2.2261    0.6615   -8.7952 C   0  0  0  0  0  0
   -0.8748   -0.0415   -8.9749 C   0  0  0  0  0  0
   -0.6003   -0.7798  -10.3157 C   0  0  0  0  0  0
   -1.7094   -1.6447  -10.9844 C   0  0  0  0  0  0
   -3.0686   -0.9831  -11.1637 C   0  0  0  0  0  0
   -1.2316   -2.2209  -12.2556 N   0  0  0  0  0  0
   -0.3243    0.2786  -11.2683 O   0  0  0  0  0  0
   -2.3918    0.9809   -7.4094 O   0  0  0  0  0  0
   -7.2029    3.0654  -12.1076 O   0  0  0  0  0  0
   -2.2827    8.1581  -12.4644 O   0  0  0  0  0  0
   -1.0214    7.8265  -12.8446 C   0  0  0  0  0  0
   -0.5671    6.7012  -12.9263 O   0  0  0  0  0  0
   -0.3005    9.0826  -13.2495 C   0  0  0  0  0  0
   -0.2149   10.1082  -12.1080 C   0  0  0  0  0  0
    1.0320    9.9151  -11.2354 C   0  0  0  0  0  0
    0.8602    8.7493  -10.2895 C   0  0  0  0  0  0
    0.8617    7.5773  -10.6502 O   0  0  0  0  0  0
    0.7066    9.1182   -9.0092 O   0  0  0  0  0  0
   -0.1763   11.4869  -12.7816 C   0  0  0  0  0  0
    0.8637   12.0639  -13.0607 O   0  0  0  0  0  0
   -1.3818   12.0319  -12.9955 O   0  0  0  0  0  0
   -3.7332    8.8894  -10.3739 O   0  0  0  0  0  0
   -2.5217    8.7752   -9.7125 C   0  0  0  0  0  0
   -1.8381    7.7602   -9.6817 O   0  0  0  0  0  0
   -2.1156   10.0769   -9.0090 C   0  0  0  0  0  0
   -2.2526   11.3778   -9.8596 C   0  0  0  0  0  0
   -3.4895   12.2653   -9.6299 C   0  0  0  0  0  0
   -4.5417   11.5993   -8.7909 C   0  0  0  0  0  0
   -4.3731   11.1335   -7.6723 O   0  0  0  0  0  0
   -5.7399   11.5753   -9.3942 O   0  0  0  0  0  0
   -1.0240   12.2952   -9.8242 C   0  0  0  0  0  0
    0.0078   11.9953   -9.2566 O   0  0  0  0  0  0
   -1.1215   13.4227  -10.5593 O   0  0  0  0  0  0
   -0.8080   -1.4841  -12.8180 H   0  0  0  0  0  0
   -2.0407   -2.5334  -12.7971 H   0  0  0  0  0  0
   -1.1922    0.7103  -11.4158 H   0  0  0  0  0  0
   -3.2548    1.4210   -7.2998 H   0  0  0  0  0  0
   -7.1407    3.3545  -11.1818 H   0  0  0  0  0  0
    0.7020   10.0817   -8.8509 H   0  0  0  0  0  0
   -1.3575   12.9416  -13.3835 H   0  0  0  0  0  0
   -6.3168   10.9979   -8.8511 H   0  0  0  0  0  0
   -1.8903   13.4601  -11.1705 H   0  0  0  0  0  0
  1  2  1  0  0  0
  2  3  1  0  0  0
  3  4  1  0  0  0
  4  5  1  0  0  0
  5  6  1  0  0  0
  5  7  1  0  0  0
  7  8  1  0  0  0
  7 39  1  0  0  0
  8  9  1  0  0  0
  8 27  1  0  0  0
  9 10  1  0  0  0
 10 11  1  0  0  0
 10 12  1  0  0  0
 12 13  1  0  0  0
 13 14  1  0  0  0
 13 26  1  0  0  0
 14 15  1  0  0  0
 15 16  1  0  0  0
 16 17  1  0  0  0
 17 18  1  0  0  0
 18 19  1  0  0  0
 18 25  1  0  0  0
 19 20  1  0  0  0
 20 21  1  0  0  0
 20 24  1  0  0  0
 21 22  1  0  0  0
 21 23  1  0  0  0
 23 51  1  0  0  0
 23 52  1  0  0  0
 24 53  1  0  0  0
 25 54  1  0  0  0
 26 55  1  0  0  0
 27 28  1  0  0  0
 28 29  2  0  0  0
 28 30  1  0  0  0
 30 31  1  0  0  0
 31 32  1  0  0  0
 31 36  1  0  0  0
 32 33  1  0  0  0
 33 34  2  0  0  0
 33 35  1  0  0  0
 35 56  1  0  0  0
 36 37  2  0  0  0
 36 38  1  0  0  0
 38 57  1  0  0  0
 39 40  1  0  0  0
 40 41  2  0  0  0
 40 42  1  0  0  0
 42 43  1  0  0  0
 43 44  1  0  0  0
 43 48  1  0  0  0
 44 45  1  0  0  0
 45 46  2  0  0  0
 45 47  1  0  0  0
 47 58  1  0  0  0
 48 49  2  0  0  0
 48 50  1  0  0  0
 50 59  1  0  0  0
M  END
>  <AUTHOR>
    GENERATED BY OPEN BABEL 2.4.1

>  <CHROM.1>
-74.75071195,163.31633047,-65.74327335,93.51361031,-19.21886016,176.37672265
-86.09184358,155.08748568,-54.94138757,166.25876866,73.44826029,53.81370628
-64.61231053,-79.01777042,-70.02102367,-67.14959443,173.98491163,-72.03221628
53.58774057,-42.00355113,50.69705220,-71.35666336,-49.14747907,2.06739535
59.79508607,88.92287203,-76.93709034,-93.04846290,71.57755173,1.46442891
176.77330965,0.33510082,-46.72559719,100.20296778,-11.46227441,4.81320050
55.67810272,170.65688797,-11.05647875,-2.84438546,6.62907128,-10.85797699
1.69700109,-0.09120216,-3.12085698

>  <COMPND>
    UNNAMED

>  <MASTER>
        0    0    0    0    0    0    0    0  109    0  109    0

>  <Name>
FB1.pdb

>  <RI>
0

>  <Rbt.Current_Directory>
/home/fc/tossine/FB1_39/p3/3_clust03

>  <Rbt.Executable>
rbdock/0.1.0

>  <Rbt.Library>
librxdock.so/0.1.0

>  <Rbt.Parameter_File>
/cluster/rxdock/data/scripts/dock.prm

>  <Rbt.Receptor>
rx_3.prm

>  <SCORE>
6.97598

>  <SCORE.INTER>
6.5163

>  <SCORE.INTER.CONST>
1

>  <SCORE.INTER.POLAR>
-2.86042

>  <SCORE.INTER.REPUL>
0.746253

>  <SCORE.INTER.ROT>
32

>  <SCORE.INTER.VDW>
-24.8895

>  <SCORE.INTER.norm>
0.130326

>  <SCORE.INTRA>
0.382667

>  <SCORE.INTRA.DIHEDRAL>
0.0297059

>  <SCORE.INTRA.DIHEDRAL.0>
47.3121

>  <SCORE.INTRA.POLAR>
0.453491

>  <SCORE.INTRA.POLAR.0>
-1.47808

>  <SCORE.INTRA.REPUL>
0.00315429

>  <SCORE.INTRA.REPUL.0>
0

>  <SCORE.INTRA.VDW>
-1.18982

>  <SCORE.INTRA.VDW.0>
-2.78316

>  <SCORE.INTRA.norm>
0.00765334

>  <SCORE.RESTR>
0.0770101

>  <SCORE.RESTR.CAVITY>
0.0770101

>  <SCORE.RESTR.norm>
0.0015402

>  <SCORE.SYSTEM>
0

>  <SCORE.SYSTEM.CONST>
0

>  <SCORE.SYSTEM.DIHEDRAL>
0

>  <SCORE.SYSTEM.norm>
0

>  <SCORE.heavy>
50

>  <SCORE.norm>
0.13952

$$$$
