FB1.pdb
  RxDock  10072018243D
librxdock.so/0.1.0
 59 58  0  0  0  0  0  0  0  0999 V2000
   -3.0001   11.6179   -8.4643 C   0  0  0  0  0  0
   -3.6494   10.8752   -9.6297 C   0  0  0  0  0  0
   -2.6237   10.5136  -10.7167 C   0  0  0  0  0  0
   -3.2266    9.6990  -11.8882 C   0  0  0  0  0  0
   -3.9345    8.3632  -11.4699 C   0  0  0  0  0  0
   -5.1198    8.1198  -12.4324 C   0  0  0  0  0  0
   -2.9595    7.1116  -11.4423 C   0  0  0  0  0  0
   -3.6395    5.6614  -11.4682 C   0  0  0  0  0  0
   -2.8604    4.2828  -11.3240 C   0  0  0  0  0  0
   -2.5550    3.5002  -12.7437 C   0  0  0  0  0  0
   -1.0992    3.7518  -13.1329 C   0  0  0  0  0  0
   -2.8497    1.9324  -12.7599 C   0  0  0  0  0  0
   -2.4584    0.9229  -11.5572 C   0  0  0  0  0  0
   -3.3785   -0.2717  -11.1302 C   0  0  0  0  0  0
   -3.9339   -1.2442  -12.2681 C   0  0  0  0  0  0
   -4.5691   -2.6637  -11.9918 C   0  0  0  0  0  0
   -3.7718   -3.7114  -11.1708 C   0  0  0  0  0  0
   -2.2167   -3.4761  -11.0473 C   0  0  0  0  0  0
   -1.5457   -4.0207   -9.7801 C   0  0  0  0  0  0
   -1.7791   -3.2671   -8.4401 C   0  0  0  0  0  0
   -1.4861   -1.7416   -8.3287 C   0  0  0  0  0  0
   -0.3883   -1.1949   -9.2305 C   0  0  0  0  0  0
   -2.7266   -0.9563   -8.4727 N   0  0  0  0  0  0
   -3.2019   -3.3954   -8.1892 O   0  0  0  0  0  0
   -1.5879   -4.0723  -12.1870 O   0  0  0  0  0  0
   -1.2231    0.3156  -11.9717 O   0  0  0  0  0  0
   -4.6037    5.6452  -10.3807 O   0  0  0  0  0  0
   -5.5755    4.6974  -10.4320 C   0  0  0  0  0  0
   -5.5349    3.6589  -11.0639 O   0  0  0  0  0  0
   -6.6792    5.0961   -9.4917 C   0  0  0  0  0  0
   -7.7321    5.9921  -10.1634 C   0  0  0  0  0  0
   -8.6756    5.2047  -11.0817 C   0  0  0  0  0  0
   -8.2621    5.3357  -12.5292 C   0  0  0  0  0  0
   -9.0538    5.3135  -13.4654 O   0  0  0  0  0  0
   -6.9393    5.4812  -12.6961 O   0  0  0  0  0  0
   -8.5285    6.6367   -9.0204 C   0  0  0  0  0  0
   -9.5081    6.1130   -8.5120 O   0  0  0  0  0  0
   -8.0900    7.8495   -8.6562 O   0  0  0  0  0  0
   -1.8922    7.2417  -12.4640 O   0  0  0  0  0  0
   -0.6671    7.7574  -12.0753 C   0  0  0  0  0  0
   -0.0899    8.6794  -12.6367 O   0  0  0  0  0  0
   -0.0962    7.0412  -10.8443 C   0  0  0  0  0  0
   -0.0876    7.8696   -9.5221 C   0  0  0  0  0  0
    0.2077    9.3777   -9.6153 C   0  0  0  0  0  0
    1.6767    9.6877   -9.6351 C   0  0  0  0  0  0
    2.1975   10.6397  -10.1999 O   0  0  0  0  0  0
    2.3979    8.8006   -8.9328 O   0  0  0  0  0  0
   -1.3453    7.7068   -8.6594 C   0  0  0  0  0  0
   -2.3758    8.3142   -8.8733 O   0  0  0  0  0  0
   -1.2722    6.7587   -7.7018 O   0  0  0  0  0  0
   -2.5478    0.0059   -8.1885 H   0  0  0  0  0  0
   -3.4142   -1.3057   -7.8014 H   0  0  0  0  0  0
   -3.6275   -2.9194   -8.9333 H   0  0  0  0  0  0
   -0.6819   -3.7184  -12.2544 H   0  0  0  0  0  0
   -1.4077   -0.2441  -12.7445 H   0  0  0  0  0  0
   -6.6363    5.5026  -13.6241 H   0  0  0  0  0  0
   -7.3290    8.1878   -9.1902 H   0  0  0  0  0  0
    3.3367    9.0692   -9.0201 H   0  0  0  0  0  0
   -0.3811    6.3664   -7.5667 H   0  0  0  0  0  0
  1  2  1  0  0  0
  2  3  1  0  0  0
  3  4  1  0  0  0
  4  5  1  0  0  0
  5  6  1  0  0  0
  5  7  1  0  0  0
  7  8  1  0  0  0
  7 39  1  0  0  0
  8  9  1  0  0  0
  8 27  1  0  0  0
  9 10  1  0  0  0
 10 11  1  0  0  0
 10 12  1  0  0  0
 12 13  1  0  0  0
 13 14  1  0  0  0
 13 26  1  0  0  0
 14 15  1  0  0  0
 15 16  1  0  0  0
 16 17  1  0  0  0
 17 18  1  0  0  0
 18 19  1  0  0  0
 18 25  1  0  0  0
 19 20  1  0  0  0
 20 21  1  0  0  0
 20 24  1  0  0  0
 21 22  1  0  0  0
 21 23  1  0  0  0
 23 51  1  0  0  0
 23 52  1  0  0  0
 24 53  1  0  0  0
 25 54  1  0  0  0
 26 55  1  0  0  0
 27 28  1  0  0  0
 28 29  2  0  0  0
 28 30  1  0  0  0
 30 31  1  0  0  0
 31 32  1  0  0  0
 31 36  1  0  0  0
 32 33  1  0  0  0
 33 34  2  0  0  0
 33 35  1  0  0  0
 35 56  1  0  0  0
 36 37  2  0  0  0
 36 38  1  0  0  0
 38 57  1  0  0  0
 39 40  1  0  0  0
 40 41  2  0  0  0
 40 42  1  0  0  0
 42 43  1  0  0  0
 43 44  1  0  0  0
 43 48  1  0  0  0
 44 45  1  0  0  0
 45 46  2  0  0  0
 45 47  1  0  0  0
 47 58  1  0  0  0
 48 49  2  0  0  0
 48 50  1  0  0  0
 50 59  1  0  0  0
M  END
>  <AUTHOR>
    GENERATED BY OPEN BABEL 2.4.1

>  <CHROM.1>
177.25360502,-56.62268736,146.70497675,-161.99558151,-174.56441085,95.79972047
-99.38595345,161.02354070,101.17021749,-42.70725032,142.45649590,48.94567697
-67.12728940,164.68919772,-54.09995098,-18.72144815,151.33997386,-73.94806690
163.92567420,-53.84961416,-29.56010901,-63.53049690,167.25927230,21.17910766
88.58175207,75.99109677,-99.57745012,-87.68954309,-148.68663986,175.71165052
1.98339695,-128.52651639,-109.29143628,-36.60416676,-84.36826274,-81.38671823
149.46475174,178.68689121,8.83702102,-3.23419912,4.45582954,-10.62981587
-1.54854703,0.09068421,-3.11971171

>  <COMPND>
    UNNAMED

>  <MASTER>
        0    0    0    0    0    0    0    0  109    0  109    0

>  <Name>
FB1.pdb

>  <RI>
0

>  <Rbt.Current_Directory>
/home/fc/tossine/FB1_39/p3/3_clust03

>  <Rbt.Executable>
rbdock/0.1.0

>  <Rbt.Library>
librxdock.so/0.1.0

>  <Rbt.Parameter_File>
/cluster/rxdock/data/scripts/dock.prm

>  <Rbt.Receptor>
rx_4.prm

>  <SCORE>
21.6797

>  <SCORE.INTER>
2.5902

>  <SCORE.INTER.CONST>
1

>  <SCORE.INTER.POLAR>
-2.32284

>  <SCORE.INTER.REPUL>
0.287208

>  <SCORE.INTER.ROT>
32

>  <SCORE.INTER.VDW>
-28.3482

>  <SCORE.INTER.norm>
0.0518039

>  <SCORE.INTRA>
18.4034

>  <SCORE.INTRA.DIHEDRAL>
33.1004

>  <SCORE.INTRA.DIHEDRAL.0>
47.3121

>  <SCORE.INTRA.POLAR>
1.47808

>  <SCORE.INTRA.POLAR.0>
-1.47808

>  <SCORE.INTRA.REPUL>
0

>  <SCORE.INTRA.REPUL.0>
0

>  <SCORE.INTRA.VDW>
-3.17221

>  <SCORE.INTRA.VDW.0>
-2.78316

>  <SCORE.INTRA.norm>
0.368069

>  <SCORE.RESTR>
0.686058

>  <SCORE.RESTR.CAVITY>
0.686058

>  <SCORE.RESTR.norm>
0.0137212

>  <SCORE.SYSTEM>
0

>  <SCORE.SYSTEM.CONST>
0

>  <SCORE.SYSTEM.DIHEDRAL>
0

>  <SCORE.SYSTEM.norm>
0

>  <SCORE.heavy>
50

>  <SCORE.norm>
0.433594

$$$$
