FB1.pdb
  RxDock  10072017473D
librxdock.so/0.1.0
 59 58  0  0  0  0  0  0  0  0999 V2000
   -2.5524   12.3882   -9.7326 C   0  0  0  0  0  0
   -2.2132   11.4620   -8.5671 C   0  0  0  0  0  0
   -2.7483   10.0388   -8.7964 C   0  0  0  0  0  0
   -1.9068    9.2177   -9.8050 C   0  0  0  0  0  0
   -2.7176    8.6083  -11.0015 C   0  0  0  0  0  0
   -3.4786    9.7550  -11.7063 C   0  0  0  0  0  0
   -1.8175    7.8064  -12.0333 C   0  0  0  0  0  0
   -1.0748    6.4975  -11.4842 C   0  0  0  0  0  0
   -1.3998    5.0063  -11.9299 C   0  0  0  0  0  0
   -0.4581    3.8463  -11.2307 C   0  0  0  0  0  0
   -0.5987    3.9569   -9.7134 C   0  0  0  0  0  0
   -0.7397    2.3435  -11.6858 C   0  0  0  0  0  0
   -0.2467    1.0390  -10.8648 C   0  0  0  0  0  0
   -0.8292    0.6609   -9.4598 C   0  0  0  0  0  0
   -2.4142    0.6774   -9.2677 C   0  0  0  0  0  0
   -3.3377    1.9129   -9.6072 C   0  0  0  0  0  0
   -4.8710    1.8019   -9.3970 C   0  0  0  0  0  0
   -5.7167    3.1056   -9.6699 C   0  0  0  0  0  0
   -7.2392    2.9654   -9.5489 C   0  0  0  0  0  0
   -7.9467    1.8608  -10.3841 C   0  0  0  0  0  0
   -7.6429    1.7008  -11.9032 C   0  0  0  0  0  0
   -6.3631    0.9595  -12.2638 C   0  0  0  0  0  0
   -8.8021    1.1278  -12.6134 N   0  0  0  0  0  0
   -7.5175    0.6130   -9.7819 O   0  0  0  0  0  0
   -5.2788    4.1157   -8.7547 O   0  0  0  0  0  0
   -0.5656   -0.0752  -11.7153 O   0  0  0  0  0  0
    0.3341    6.6679  -11.7979 O   0  0  0  0  0  0
    1.0210    7.5875  -11.0714 C   0  0  0  0  0  0
    0.6744    8.0709  -10.0105 O   0  0  0  0  0  0
    2.3405    7.8391  -11.7475 C   0  0  0  0  0  0
    2.9459    9.2011  -11.3722 C   0  0  0  0  0  0
    4.4680    9.2403  -11.5590 C   0  0  0  0  0  0
    5.1741    8.5211  -10.4332 C   0  0  0  0  0  0
    4.6114    7.7525   -9.6610 O   0  0  0  0  0  0
    6.4833    8.8021  -10.3575 O   0  0  0  0  0  0
    2.2767   10.2289  -12.2953 C   0  0  0  0  0  0
    1.5714   11.1367  -11.8822 O   0  0  0  0  0  0
    2.4895   10.0199  -13.6018 O   0  0  0  0  0  0
   -2.5550    7.5383  -13.2919 O   0  0  0  0  0  0
   -3.5456    6.5705  -13.2819 C   0  0  0  0  0  0
   -3.6674    5.6900  -14.1235 O   0  0  0  0  0  0
   -4.4932    6.7173  -12.0840 C   0  0  0  0  0  0
   -5.3048    5.4407  -11.7020 C   0  0  0  0  0  0
   -6.8073    5.6003  -11.4064 C   0  0  0  0  0  0
   -7.0827    6.5039  -10.2392 C   0  0  0  0  0  0
   -7.4537    6.1441   -9.1304 O   0  0  0  0  0  0
   -6.8587    7.7953  -10.5259 O   0  0  0  0  0  0
   -5.1584    4.2737  -12.6863 C   0  0  0  0  0  0
   -4.4660    3.3012  -12.4593 O   0  0  0  0  0  0
   -5.9370    4.3426  -13.7865 O   0  0  0  0  0  0
   -8.6965    1.2935  -13.6133 H   0  0  0  0  0  0
   -9.6395    1.6504  -12.3468 H   0  0  0  0  0  0
   -7.8689    0.6468   -8.8672 H   0  0  0  0  0  0
   -5.7816    4.9307   -8.9378 H   0  0  0  0  0  0
   -0.0420    0.0087  -12.5298 H   0  0  0  0  0  0
    6.9563    8.3862   -9.6114 H   0  0  0  0  0  0
    2.0209   10.6534  -14.2000 H   0  0  0  0  0  0
   -6.7632    7.8548  -11.4999 H   0  0  0  0  0  0
   -6.4306    5.1851  -13.8993 H   0  0  0  0  0  0
  1  2  1  0  0  0
  2  3  1  0  0  0
  3  4  1  0  0  0
  4  5  1  0  0  0
  5  6  1  0  0  0
  5  7  1  0  0  0
  7  8  1  0  0  0
  7 39  1  0  0  0
  8  9  1  0  0  0
  8 27  1  0  0  0
  9 10  1  0  0  0
 10 11  1  0  0  0
 10 12  1  0  0  0
 12 13  1  0  0  0
 13 14  1  0  0  0
 13 26  1  0  0  0
 14 15  1  0  0  0
 15 16  1  0  0  0
 16 17  1  0  0  0
 17 18  1  0  0  0
 18 19  1  0  0  0
 18 25  1  0  0  0
 19 20  1  0  0  0
 20 21  1  0  0  0
 20 24  1  0  0  0
 21 22  1  0  0  0
 21 23  1  0  0  0
 23 51  1  0  0  0
 23 52  1  0  0  0
 24 53  1  0  0  0
 25 54  1  0  0  0
 26 55  1  0  0  0
 27 28  1  0  0  0
 28 29  2  0  0  0
 28 30  1  0  0  0
 30 31  1  0  0  0
 31 32  1  0  0  0
 31 36  1  0  0  0
 32 33  1  0  0  0
 33 34  2  0  0  0
 33 35  1  0  0  0
 35 56  1  0  0  0
 36 37  2  0  0  0
 36 38  1  0  0  0
 38 57  1  0  0  0
 39 40  1  0  0  0
 40 41  2  0  0  0
 40 42  1  0  0  0
 42 43  1  0  0  0
 43 44  1  0  0  0
 43 48  1  0  0  0
 44 45  1  0  0  0
 45 46  2  0  0  0
 45 47  1  0  0  0
 47 58  1  0  0  0
 48 49  2  0  0  0
 48 50  1  0  0  0
 50 59  1  0  0  0
M  END
>  <AUTHOR>
    GENERATED BY OPEN BABEL 2.4.1

>  <CHROM.1>
76.25703512,-125.68888480,54.80691861,63.52133695,112.55255965,-73.78092656
178.67738748,72.14261252,57.44429906,-162.45357671,67.84283794,47.30654011
63.48915223,-53.69009832,179.11446473,176.20720766,176.16300623,-54.33687633
178.38783974,-48.53584296,79.88156069,62.91429558,162.91867019,17.14446891
157.31159363,156.56068825,-76.96412080,116.83581254,15.82953105,177.05347769
176.99365600,-132.87857374,-159.51901635,-134.61211989,-61.30725299,103.49540989
-106.43960954,12.74578134,7.44806000,-2.40361647,5.75886056,-11.07735039
0.65598105,0.00439240,-0.01494345

>  <COMPND>
    UNNAMED

>  <MASTER>
        0    0    0    0    0    0    0    0  109    0  109    0

>  <Name>
FB1.pdb

>  <RI>
0

>  <Rbt.Current_Directory>
/home/fc/tossine/FB1_39/p3/3_clust03

>  <Rbt.Executable>
rbdock/0.1.0

>  <Rbt.Library>
librxdock.so/0.1.0

>  <Rbt.Parameter_File>
/cluster/rxdock/data/scripts/dock.prm

>  <Rbt.Receptor>
rx_3.prm

>  <SCORE>
17.059

>  <SCORE.INTER>
6.88745

>  <SCORE.INTER.CONST>
1

>  <SCORE.INTER.POLAR>
-2.57883

>  <SCORE.INTER.REPUL>
0.347326

>  <SCORE.INTER.ROT>
32

>  <SCORE.INTER.VDW>
-23.4812

>  <SCORE.INTER.norm>
0.137749

>  <SCORE.INTRA>
10.1716

>  <SCORE.INTRA.DIHEDRAL>
2.90544

>  <SCORE.INTRA.DIHEDRAL.0>
47.3121

>  <SCORE.INTRA.POLAR>
1.47808

>  <SCORE.INTRA.POLAR.0>
-1.47808

>  <SCORE.INTRA.REPUL>
0

>  <SCORE.INTRA.REPUL.0>
0

>  <SCORE.INTRA.VDW>
3.69338

>  <SCORE.INTRA.VDW.0>
-2.78316

>  <SCORE.INTRA.norm>
0.203431

>  <SCORE.RESTR>
0

>  <SCORE.RESTR.CAVITY>
0

>  <SCORE.RESTR.norm>
0

>  <SCORE.SYSTEM>
0

>  <SCORE.SYSTEM.CONST>
0

>  <SCORE.SYSTEM.DIHEDRAL>
0

>  <SCORE.SYSTEM.norm>
0

>  <SCORE.heavy>
50

>  <SCORE.norm>
0.34118

$$$$
