FB1.pdb
  RxDock  10072015093D
librxdock.so/0.1.0
 59 58  0  0  0  0  0  0  0  0999 V2000
    2.7542    6.5857  -14.4294 C   0  0  0  0  0  0
    1.5714    6.6176  -13.4644 C   0  0  0  0  0  0
    0.5250    5.5455  -13.8107 C   0  0  0  0  0  0
   -0.4481    5.2336  -12.6464 C   0  0  0  0  0  0
   -1.5401    6.3291  -12.3854 C   0  0  0  0  0  0
   -2.7547    6.0301  -13.2942 C   0  0  0  0  0  0
   -1.9812    6.4338  -10.8648 C   0  0  0  0  0  0
   -2.8182    5.2062  -10.2658 C   0  0  0  0  0  0
   -4.3566    4.9224  -10.5502 C   0  0  0  0  0  0
   -5.3592    6.2131  -10.3261 C   0  0  0  0  0  0
   -5.8086    6.7217  -11.6948 C   0  0  0  0  0  0
   -6.6360    5.9599   -9.4039 C   0  0  0  0  0  0
   -7.3587    4.5226   -9.2291 C   0  0  0  0  0  0
   -7.7563    3.6278  -10.4528 C   0  0  0  0  0  0
   -6.5992    3.1259  -11.4317 C   0  0  0  0  0  0
   -6.8534    2.4812  -12.8510 C   0  0  0  0  0  0
   -7.7022    3.2490  -13.8985 C   0  0  0  0  0  0
   -9.0859    3.8220  -13.4023 C   0  0  0  0  0  0
  -10.0632    4.2773  -14.4932 C   0  0  0  0  0  0
  -10.3278    3.3221  -15.6915 C   0  0  0  0  0  0
   -9.3628    3.2995  -16.9136 C   0  0  0  0  0  0
   -9.6052    2.2094  -17.9482 C   0  0  0  0  0  0
   -9.2933    4.6272  -17.5530 N   0  0  0  0  0  0
  -10.2467    1.9896  -15.1243 O   0  0  0  0  0  0
   -9.7241    2.8129  -12.6123 O   0  0  0  0  0  0
   -6.4280    3.7307   -8.4719 O   0  0  0  0  0  0
   -2.1416    3.9985  -10.7088 O   0  0  0  0  0  0
   -1.1849    3.4913   -9.8885 C   0  0  0  0  0  0
   -0.3947    4.1325   -9.2224 O   0  0  0  0  0  0
   -1.3280    1.9946   -9.8589 C   0  0  0  0  0  0
   -0.9264    1.3368  -11.1888 C   0  0  0  0  0  0
   -1.1554   -0.1801  -11.1879 C   0  0  0  0  0  0
   -0.8889   -0.7708   -9.8229 C   0  0  0  0  0  0
   -1.7527   -1.3019   -9.1332 O   0  0  0  0  0  0
    0.3898   -0.6612   -9.4335 O   0  0  0  0  0  0
   -1.7961    1.9987  -12.2664 C   0  0  0  0  0  0
   -3.0122    2.0815  -12.1841 O   0  0  0  0  0  0
   -1.1153    2.4373  -13.3342 O   0  0  0  0  0  0
   -0.8338    6.7976   -9.9983 O   0  0  0  0  0  0
   -0.0021    7.8279  -10.4041 C   0  0  0  0  0  0
    1.2029    7.8740  -10.1939 O   0  0  0  0  0  0
   -0.7604    8.9272  -11.1596 C   0  0  0  0  0  0
   -1.2972   10.1031  -10.2856 C   0  0  0  0  0  0
   -1.4779   11.4778  -10.9548 C   0  0  0  0  0  0
   -2.4122   11.4400  -12.1296 C   0  0  0  0  0  0
   -2.7938   10.4305  -12.7056 O   0  0  0  0  0  0
   -2.8246   12.6629  -12.4968 O   0  0  0  0  0  0
   -2.5946    9.7940   -9.5282 C   0  0  0  0  0  0
   -2.7510   10.0566   -8.3521 O   0  0  0  0  0  0
   -3.6021    9.3041  -10.2806 O   0  0  0  0  0  0
   -8.7890    4.5473  -18.4349 H   0  0  0  0  0  0
   -8.7146    5.2391  -16.9731 H   0  0  0  0  0  0
  -11.0280    1.9241  -14.5357 H   0  0  0  0  0  0
  -10.5064    3.2094  -12.1865 H   0  0  0  0  0  0
   -5.6155    3.6377   -8.9969 H   0  0  0  0  0  0
    0.6160   -1.1323   -8.6087 H   0  0  0  0  0  0
   -1.6798    2.8149  -14.0536 H   0  0  0  0  0  0
   -3.3215   12.5523  -13.3348 H   0  0  0  0  0  0
   -4.4503    9.1616   -9.8048 H   0  0  0  0  0  0
  1  2  1  0  0  0
  2  3  1  0  0  0
  3  4  1  0  0  0
  4  5  1  0  0  0
  5  6  1  0  0  0
  5  7  1  0  0  0
  7  8  1  0  0  0
  7 39  1  0  0  0
  8  9  1  0  0  0
  8 27  1  0  0  0
  9 10  1  0  0  0
 10 11  1  0  0  0
 10 12  1  0  0  0
 12 13  1  0  0  0
 13 14  1  0  0  0
 13 26  1  0  0  0
 14 15  1  0  0  0
 15 16  1  0  0  0
 16 17  1  0  0  0
 17 18  1  0  0  0
 18 19  1  0  0  0
 18 25  1  0  0  0
 19 20  1  0  0  0
 20 21  1  0  0  0
 20 24  1  0  0  0
 21 22  1  0  0  0
 21 23  1  0  0  0
 23 51  1  0  0  0
 23 52  1  0  0  0
 24 53  1  0  0  0
 25 54  1  0  0  0
 26 55  1  0  0  0
 27 28  1  0  0  0
 28 29  2  0  0  0
 28 30  1  0  0  0
 30 31  1  0  0  0
 31 32  1  0  0  0
 31 36  1  0  0  0
 32 33  1  0  0  0
 33 34  2  0  0  0
 33 35  1  0  0  0
 35 56  1  0  0  0
 36 37  2  0  0  0
 36 38  1  0  0  0
 38 57  1  0  0  0
 39 40  1  0  0  0
 40 41  2  0  0  0
 40 42  1  0  0  0
 42 43  1  0  0  0
 43 44  1  0  0  0
 43 48  1  0  0  0
 44 45  1  0  0  0
 45 46  2  0  0  0
 45 47  1  0  0  0
 47 58  1  0  0  0
 48 49  2  0  0  0
 48 50  1  0  0  0
 50 59  1  0  0  0
M  END
>  <AUTHOR>
    GENERATED BY OPEN BABEL 2.4.1

>  <CHROM.1>
161.91543364,74.74224571,87.22188141,-69.22089043,-76.12338549,45.93454382
-50.08360469,91.13468800,106.97847913,-28.01072676,-49.01930993,60.59035525
-62.36416327,-166.82611977,54.73045747,-49.05091933,-165.86047199,48.19168446
170.96606221,-83.79665348,172.38453411,68.06631045,-170.29867283,-37.35259486
69.95929229,-176.41246021,-34.87277288,-51.86573226,115.46797364,-172.57401670
176.49531281,-146.10551031,91.70363137,152.87743686,58.32614576,133.27252929
-14.64365726,172.30925369,-176.20569434,-3.67751549,5.07082916,-11.80810342
-0.49090507,0.39585214,3.10135327

>  <COMPND>
    UNNAMED

>  <MASTER>
        0    0    0    0    0    0    0    0  109    0  109    0

>  <Name>
FB1.pdb

>  <RI>
0

>  <Rbt.Current_Directory>
/home/fc/tossine/FB1_39/p3/3_clust03

>  <Rbt.Executable>
rbdock/0.1.0

>  <Rbt.Library>
librxdock.so/0.1.0

>  <Rbt.Parameter_File>
/cluster/rxdock/data/scripts/dock.prm

>  <Rbt.Receptor>
rx_0.prm

>  <SCORE>
21.5682

>  <SCORE.INTER>
10.6887

>  <SCORE.INTER.CONST>
1

>  <SCORE.INTER.POLAR>
-1.27947

>  <SCORE.INTER.REPUL>
1.01414

>  <SCORE.INTER.ROT>
32

>  <SCORE.INTER.VDW>
-27.4318

>  <SCORE.INTER.norm>
0.213773

>  <SCORE.INTRA>
10.1709

>  <SCORE.INTRA.DIHEDRAL>
13.7723

>  <SCORE.INTRA.DIHEDRAL.0>
47.3121

>  <SCORE.INTRA.POLAR>
1.47808

>  <SCORE.INTRA.POLAR.0>
-1.47808

>  <SCORE.INTRA.REPUL>
0

>  <SCORE.INTRA.REPUL.0>
0

>  <SCORE.INTRA.VDW>
-1.74076

>  <SCORE.INTRA.VDW.0>
-2.78316

>  <SCORE.INTRA.norm>
0.203417

>  <SCORE.RESTR>
0.708701

>  <SCORE.RESTR.CAVITY>
0.708701

>  <SCORE.RESTR.norm>
0.014174

>  <SCORE.SYSTEM>
0

>  <SCORE.SYSTEM.CONST>
0

>  <SCORE.SYSTEM.DIHEDRAL>
0

>  <SCORE.SYSTEM.norm>
0

>  <SCORE.heavy>
50

>  <SCORE.norm>
0.431365

$$$$
