FB1.pdb
  RxDock  10072015103D
librxdock.so/0.1.0
 59 58  0  0  0  0  0  0  0  0999 V2000
   -8.4871   -1.0155   -7.2808 C   0  0  0  0  0  0
   -8.5245   -1.3694   -8.7657 C   0  0  0  0  0  0
   -7.9951   -0.2197   -9.6386 C   0  0  0  0  0  0
   -7.6322   -0.6554  -11.0802 C   0  0  0  0  0  0
   -6.4320   -1.6597  -11.1854 C   0  0  0  0  0  0
   -6.1270   -1.8966  -12.6826 C   0  0  0  0  0  0
   -5.1334   -1.1779  -10.4111 C   0  0  0  0  0  0
   -4.5206    0.2404  -10.8341 C   0  0  0  0  0  0
   -3.2362    0.4463  -11.7485 C   0  0  0  0  0  0
   -1.8180   -0.0810  -11.0913 C   0  0  0  0  0  0
   -1.3315   -1.2880  -11.8918 C   0  0  0  0  0  0
   -0.6477    0.9980  -10.9861 C   0  0  0  0  0  0
   -0.3941    1.9388   -9.6941 C   0  0  0  0  0  0
   -0.4560    3.5030   -9.7688 C   0  0  0  0  0  0
   -1.0727    4.1749  -11.0793 C   0  0  0  0  0  0
   -2.1756    3.5021  -11.9878 C   0  0  0  0  0  0
   -2.8612    4.3360  -13.1022 C   0  0  0  0  0  0
   -3.6871    5.5960  -12.6337 C   0  0  0  0  0  0
   -3.0833    6.9661  -12.9663 C   0  0  0  0  0  0
   -3.4026    8.1611  -12.0238 C   0  0  0  0  0  0
   -4.8698    8.4629  -11.5977 C   0  0  0  0  0  0
   -5.0924    9.7315  -10.7864 C   0  0  0  0  0  0
   -5.7753    8.4155  -12.7615 N   0  0  0  0  0  0
   -2.7092    7.8502  -10.7883 O   0  0  0  0  0  0
   -4.9881    5.5165  -13.2258 O   0  0  0  0  0  0
   -1.4206    1.5669   -8.7589 O   0  0  0  0  0  0
   -5.5790    0.9473  -11.5360 O   0  0  0  0  0  0
   -5.4598    2.2969  -11.6339 C   0  0  0  0  0  0
   -4.8300    3.0197  -10.8854 O   0  0  0  0  0  0
   -6.1564    2.7465  -12.8885 C   0  0  0  0  0  0
   -7.6644    2.9604  -12.6822 C   0  0  0  0  0  0
   -7.9931    4.3623  -12.1528 C   0  0  0  0  0  0
   -9.2137    4.3364  -11.2625 C   0  0  0  0  0  0
  -10.3288    4.0042  -11.6497 O   0  0  0  0  0  0
   -8.9620    4.7117   -9.9997 O   0  0  0  0  0  0
   -8.3121    2.7534  -14.0583 C   0  0  0  0  0  0
   -8.8634    3.6505  -14.6777 O   0  0  0  0  0  0
   -8.2672    1.4912  -14.5064 O   0  0  0  0  0  0
   -5.3136   -1.2883   -8.9430 O   0  0  0  0  0  0
   -4.7307   -2.3592   -8.2862 C   0  0  0  0  0  0
   -4.1426   -3.2791   -8.8396 O   0  0  0  0  0  0
   -4.9002   -2.2726   -6.7636 C   0  0  0  0  0  0
   -3.5871   -2.3857   -5.9284 C   0  0  0  0  0  0
   -3.6304   -3.1936   -4.6185 C   0  0  0  0  0  0
   -2.4212   -2.9766   -3.7553 C   0  0  0  0  0  0
   -2.2809   -3.3805   -2.6091 O   0  0  0  0  0  0
   -1.4581   -2.2867   -4.3852 O   0  0  0  0  0  0
   -2.3674   -2.8725   -6.7206 C   0  0  0  0  0  0
   -2.0211   -4.0370   -6.7502 O   0  0  0  0  0  0
   -1.7569   -1.9367   -7.4775 O   0  0  0  0  0  0
   -5.2475    8.1261  -13.5838 H   0  0  0  0  0  0
   -6.0884    9.3661  -12.9706 H   0  0  0  0  0  0
   -2.8243    8.6499  -10.2328 H   0  0  0  0  0  0
   -5.5182    6.2658  -12.8971 H   0  0  0  0  0  0
   -1.1540    1.8817   -7.8789 H   0  0  0  0  0  0
   -9.7439    4.7646   -9.4171 H   0  0  0  0  0  0
   -8.6506    1.3628  -15.4093 H   0  0  0  0  0  0
   -0.7225   -2.1822   -3.7454 H   0  0  0  0  0  0
   -2.0064   -1.0072   -7.2777 H   0  0  0  0  0  0
  1  2  1  0  0  0
  2  3  1  0  0  0
  3  4  1  0  0  0
  4  5  1  0  0  0
  5  6  1  0  0  0
  5  7  1  0  0  0
  7  8  1  0  0  0
  7 39  1  0  0  0
  8  9  1  0  0  0
  8 27  1  0  0  0
  9 10  1  0  0  0
 10 11  1  0  0  0
 10 12  1  0  0  0
 12 13  1  0  0  0
 13 14  1  0  0  0
 13 26  1  0  0  0
 14 15  1  0  0  0
 15 16  1  0  0  0
 16 17  1  0  0  0
 17 18  1  0  0  0
 18 19  1  0  0  0
 18 25  1  0  0  0
 19 20  1  0  0  0
 20 21  1  0  0  0
 20 24  1  0  0  0
 21 22  1  0  0  0
 21 23  1  0  0  0
 23 51  1  0  0  0
 23 52  1  0  0  0
 24 53  1  0  0  0
 25 54  1  0  0  0
 26 55  1  0  0  0
 27 28  1  0  0  0
 28 29  2  0  0  0
 28 30  1  0  0  0
 30 31  1  0  0  0
 31 32  1  0  0  0
 31 36  1  0  0  0
 32 33  1  0  0  0
 33 34  2  0  0  0
 33 35  1  0  0  0
 35 56  1  0  0  0
 36 37  2  0  0  0
 36 38  1  0  0  0
 38 57  1  0  0  0
 39 40  1  0  0  0
 40 41  2  0  0  0
 40 42  1  0  0  0
 42 43  1  0  0  0
 43 44  1  0  0  0
 43 48  1  0  0  0
 44 45  1  0  0  0
 45 46  2  0  0  0
 45 47  1  0  0  0
 47 58  1  0  0  0
 48 49  2  0  0  0
 48 50  1  0  0  0
 50 59  1  0  0  0
M  END
>  <AUTHOR>
    GENERATED BY OPEN BABEL 2.4.1

>  <CHROM.1>
163.49487511,-65.46113778,-175.31728639,-57.66146004,-102.60134807,101.91319687
-65.82200176,160.29420972,111.99474207,91.52323807,-119.32774441,12.52368649
162.13656770,28.91009425,170.33058434,-61.95964534,109.21267939,-151.11219922
176.74944652,-48.94481983,-174.19438421,173.63904279,4.14124744,-24.47295176
84.82219081,85.77472828,-148.05770421,-113.94052719,-62.29467861,175.91170505
-177.58880031,-4.93805065,-126.79277856,-140.51494687,-166.90207826,-95.29018371
171.39064331,179.08720914,14.60846427,-4.68764461,1.56794258,-10.22440531
1.30353188,0.37385490,2.62934309

>  <COMPND>
    UNNAMED

>  <MASTER>
        0    0    0    0    0    0    0    0  109    0  109    0

>  <Name>
FB1.pdb

>  <RI>
0

>  <Rbt.Current_Directory>
/home/fc/tossine/FB1_39/p3/3_clust03

>  <Rbt.Executable>
rbdock/0.1.0

>  <Rbt.Library>
librxdock.so/0.1.0

>  <Rbt.Parameter_File>
/cluster/rxdock/data/scripts/dock.prm

>  <Rbt.Receptor>
rx_0.prm

>  <SCORE>
23.1245

>  <SCORE.INTER>
6.08199

>  <SCORE.INTER.CONST>
1

>  <SCORE.INTER.POLAR>
-2.93678

>  <SCORE.INTER.REPUL>
0.0729901

>  <SCORE.INTER.ROT>
32

>  <SCORE.INTER.VDW>
-21.6979

>  <SCORE.INTER.norm>
0.12164

>  <SCORE.INTRA>
15.7845

>  <SCORE.INTRA.DIHEDRAL>
31.3549

>  <SCORE.INTRA.DIHEDRAL.0>
47.3121

>  <SCORE.INTRA.POLAR>
0.622836

>  <SCORE.INTRA.POLAR.0>
-1.47808

>  <SCORE.INTRA.REPUL>
0.064251

>  <SCORE.INTRA.REPUL.0>
0

>  <SCORE.INTRA.VDW>
-2.3319

>  <SCORE.INTRA.VDW.0>
-2.78316

>  <SCORE.INTRA.norm>
0.315689

>  <SCORE.RESTR>
1.25807

>  <SCORE.RESTR.CAVITY>
1.25807

>  <SCORE.RESTR.norm>
0.0251615

>  <SCORE.SYSTEM>
0

>  <SCORE.SYSTEM.CONST>
0

>  <SCORE.SYSTEM.DIHEDRAL>
0

>  <SCORE.SYSTEM.norm>
0

>  <SCORE.heavy>
50

>  <SCORE.norm>
0.462491

$$$$
