FB1.pdb
  RxDock  10072016073D
librxdock.so/0.1.0
 59 58  0  0  0  0  0  0  0  0999 V2000
   -0.6364   -0.6257  -10.0417 C   0  0  0  0  0  0
   -1.4362    0.0909  -11.1270 C   0  0  0  0  0  0
   -1.9999    1.4314  -10.6275 C   0  0  0  0  0  0
   -0.9130    2.5107  -10.3965 C   0  0  0  0  0  0
   -1.4292    3.8404   -9.7438 C   0  0  0  0  0  0
   -0.2039    4.7103   -9.3800 C   0  0  0  0  0  0
   -2.4435    4.6443  -10.6618 C   0  0  0  0  0  0
   -3.8620    5.0204  -10.0196 C   0  0  0  0  0  0
   -4.8621    6.1176  -10.5889 C   0  0  0  0  0  0
   -4.7860    6.3546  -12.2197 C   0  0  0  0  0  0
   -5.1035    5.0329  -12.9172 C   0  0  0  0  0  0
   -5.7196    7.5071  -12.8070 C   0  0  0  0  0  0
   -7.0572    8.0518  -12.0772 C   0  0  0  0  0  0
   -7.0153    8.8256  -10.7151 C   0  0  0  0  0  0
   -6.0344   10.0788  -10.5859 C   0  0  0  0  0  0
   -4.4817   10.0250  -10.8700 C   0  0  0  0  0  0
   -3.5897    9.0473  -10.0602 C   0  0  0  0  0  0
   -2.0373    9.1178  -10.3332 C   0  0  0  0  0  0
   -1.3581   10.4635  -10.0497 C   0  0  0  0  0  0
   -0.4120   11.0546  -11.1331 C   0  0  0  0  0  0
    0.0525   12.5389  -11.0535 C   0  0  0  0  0  0
    0.6251   12.9991   -9.7202 C   0  0  0  0  0  0
    0.9711   12.8622  -12.1617 N   0  0  0  0  0  0
    0.8054   10.2738  -11.0236 O   0  0  0  0  0  0
   -1.4027    8.1114   -9.5370 O   0  0  0  0  0  0
   -7.6404    8.9729  -13.0142 O   0  0  0  0  0  0
   -4.6415    3.7937  -10.0095 O   0  0  0  0  0  0
   -5.7361    3.7651   -9.2056 C   0  0  0  0  0  0
   -5.7448    3.9017   -7.9970 O   0  0  0  0  0  0
   -6.9591    3.6366  -10.0711 C   0  0  0  0  0  0
   -7.6275    2.2580   -9.9478 C   0  0  0  0  0  0
   -8.5195    1.9266  -11.1510 C   0  0  0  0  0  0
   -7.6907    1.5416  -12.3544 C   0  0  0  0  0  0
   -7.6977    0.4210  -12.8524 O   0  0  0  0  0  0
   -6.9425    2.5471  -12.8318 O   0  0  0  0  0  0
   -6.4820    1.2413   -9.8473 C   0  0  0  0  0  0
   -5.4948    1.2756  -10.5662 O   0  0  0  0  0  0
   -6.6756    0.2783   -8.9357 O   0  0  0  0  0  0
   -1.7868    5.8204  -11.2828 O   0  0  0  0  0  0
   -1.4458    5.7534  -12.6234 C   0  0  0  0  0  0
   -1.8370    4.8911  -13.3992 O   0  0  0  0  0  0
   -0.5096    6.8934  -13.0454 C   0  0  0  0  0  0
    1.0011    6.5211  -13.1628 C   0  0  0  0  0  0
    1.3620    5.1237  -13.6990 C   0  0  0  0  0  0
    1.0661    4.0250  -12.7193 C   0  0  0  0  0  0
    0.2517    3.1263  -12.8796 O   0  0  0  0  0  0
    1.8193    4.1082  -11.6120 O   0  0  0  0  0  0
    1.8498    7.5367  -13.9377 C   0  0  0  0  0  0
    2.9938    7.8104  -13.6328 O   0  0  0  0  0  0
    1.2800    8.0354  -15.0548 O   0  0  0  0  0  0
    1.8054   12.2821  -12.0841 H   0  0  0  0  0  0
    1.3048   13.8211  -12.0402 H   0  0  0  0  0  0
    0.5585    9.3842  -11.3537 H   0  0  0  0  0  0
   -0.4441    8.1451   -9.7114 H   0  0  0  0  0  0
   -6.9689    9.6385  -13.2392 H   0  0  0  0  0  0
   -6.3186    2.3016  -13.5416 H   0  0  0  0  0  0
   -7.4803    0.4016   -8.3736 H   0  0  0  0  0  0
    1.6635    3.2847  -11.1033 H   0  0  0  0  0  0
    1.8294    8.6793  -15.5546 H   0  0  0  0  0  0
  1  2  1  0  0  0
  2  3  1  0  0  0
  3  4  1  0  0  0
  4  5  1  0  0  0
  5  6  1  0  0  0
  5  7  1  0  0  0
  7  8  1  0  0  0
  7 39  1  0  0  0
  8  9  1  0  0  0
  8 27  1  0  0  0
  9 10  1  0  0  0
 10 11  1  0  0  0
 10 12  1  0  0  0
 12 13  1  0  0  0
 13 14  1  0  0  0
 13 26  1  0  0  0
 14 15  1  0  0  0
 15 16  1  0  0  0
 16 17  1  0  0  0
 17 18  1  0  0  0
 18 19  1  0  0  0
 18 25  1  0  0  0
 19 20  1  0  0  0
 20 21  1  0  0  0
 20 24  1  0  0  0
 21 22  1  0  0  0
 21 23  1  0  0  0
 23 51  1  0  0  0
 23 52  1  0  0  0
 24 53  1  0  0  0
 25 54  1  0  0  0
 26 55  1  0  0  0
 27 28  1  0  0  0
 28 29  2  0  0  0
 28 30  1  0  0  0
 30 31  1  0  0  0
 31 32  1  0  0  0
 31 36  1  0  0  0
 32 33  1  0  0  0
 33 34  2  0  0  0
 33 35  1  0  0  0
 35 56  1  0  0  0
 36 37  2  0  0  0
 36 38  1  0  0  0
 38 57  1  0  0  0
 39 40  1  0  0  0
 40 41  2  0  0  0
 40 42  1  0  0  0
 42 43  1  0  0  0
 43 44  1  0  0  0
 43 48  1  0  0  0
 44 45  1  0  0  0
 45 46  2  0  0  0
 45 47  1  0  0  0
 47 58  1  0  0  0
 48 49  2  0  0  0
 48 50  1  0  0  0
 50 59  1  0  0  0
M  END
>  <AUTHOR>
    GENERATED BY OPEN BABEL 2.4.1

>  <CHROM.1>
69.79509019,-173.81470542,171.20852316,125.65317488,163.23833305,104.57343639
29.05554151,163.19692297,59.37817430,-23.24337973,66.41586596,51.61993010
-55.19439993,-55.35193515,-58.44952073,-176.11048932,60.09064026,-131.79903383
179.33041248,166.32393357,50.30574650,69.53391926,-62.23254020,-60.60393358
109.69997117,-158.89385586,75.73145903,-44.57905985,114.30073825,173.09126005
-6.59921261,12.76369870,100.90481406,36.47460333,-72.17006715,143.39732933
116.05618786,-171.22053097,-179.41541881,-2.89211930,5.70609313,-11.32593214
-2.25114420,0.16141929,-0.00867340

>  <COMPND>
    UNNAMED

>  <MASTER>
        0    0    0    0    0    0    0    0  109    0  109    0

>  <Name>
FB1.pdb

>  <RI>
0

>  <Rbt.Current_Directory>
/home/fc/tossine/FB1_39/p3/3_clust03

>  <Rbt.Executable>
rbdock/0.1.0

>  <Rbt.Library>
librxdock.so/0.1.0

>  <Rbt.Parameter_File>
/cluster/rxdock/data/scripts/dock.prm

>  <Rbt.Receptor>
rx_1.prm

>  <SCORE>
18.8135

>  <SCORE.INTER>
6.24891

>  <SCORE.INTER.CONST>
1

>  <SCORE.INTER.POLAR>
-2.22627

>  <SCORE.INTER.REPUL>
0.224645

>  <SCORE.INTER.ROT>
32

>  <SCORE.INTER.VDW>
-24.705

>  <SCORE.INTER.norm>
0.124978

>  <SCORE.INTRA>
9.52138

>  <SCORE.INTRA.DIHEDRAL>
21.3385

>  <SCORE.INTRA.DIHEDRAL.0>
47.3121

>  <SCORE.INTRA.POLAR>
1.47808

>  <SCORE.INTRA.POLAR.0>
-1.47808

>  <SCORE.INTRA.REPUL>
0.000839699

>  <SCORE.INTRA.REPUL.0>
0

>  <SCORE.INTRA.VDW>
-6.17751

>  <SCORE.INTRA.VDW.0>
-2.78316

>  <SCORE.INTRA.norm>
0.190428

>  <SCORE.RESTR>
3.0432

>  <SCORE.RESTR.CAVITY>
3.0432

>  <SCORE.RESTR.norm>
0.0608639

>  <SCORE.SYSTEM>
0

>  <SCORE.SYSTEM.CONST>
0

>  <SCORE.SYSTEM.DIHEDRAL>
0

>  <SCORE.SYSTEM.norm>
0

>  <SCORE.heavy>
50

>  <SCORE.norm>
0.37627

$$$$
