FB1.pdb
  RxDock  10072016593D
librxdock.so/0.1.0
 59 58  0  0  0  0  0  0  0  0999 V2000
   -2.0672   -3.0089   -5.1302 C   0  0  0  0  0  0
   -2.1479   -1.8295   -6.0965 C   0  0  0  0  0  0
   -2.2692   -2.2967   -7.5564 C   0  0  0  0  0  0
   -2.7764   -1.1931   -8.5179 C   0  0  0  0  0  0
   -3.0663   -1.6738   -9.9826 C   0  0  0  0  0  0
   -4.5157   -1.2769  -10.3460 C   0  0  0  0  0  0
   -2.0381   -1.1072  -11.0502 C   0  0  0  0  0  0
   -1.8278    0.4805  -11.0836 C   0  0  0  0  0  0
   -0.9137    1.2607  -12.1247 C   0  0  0  0  0  0
   -0.6279    2.8431  -11.7562 C   0  0  0  0  0  0
   -0.0342    2.9141  -10.3502 C   0  0  0  0  0  0
    0.3055    3.6441  -12.7720 C   0  0  0  0  0  0
    0.8569    5.1426  -12.5091 C   0  0  0  0  0  0
   -0.1002    6.3702  -12.3276 C   0  0  0  0  0  0
   -1.4926    6.1410  -11.5808 C   0  0  0  0  0  0
   -2.5330    7.2877  -11.2688 C   0  0  0  0  0  0
   -2.3518    8.1596   -9.9982 C   0  0  0  0  0  0
   -2.0037    9.6809  -10.2301 C   0  0  0  0  0  0
   -2.8896   10.4359  -11.2289 C   0  0  0  0  0  0
   -2.5334   11.9128  -11.5607 C   0  0  0  0  0  0
   -1.0858   12.3020  -11.9833 C   0  0  0  0  0  0
    0.0217   11.9679  -10.9938 C   0  0  0  0  0  0
   -0.7707   11.7759  -13.3250 N   0  0  0  0  0  0
   -3.3602   12.2421  -12.7060 O   0  0  0  0  0  0
   -2.0740   10.3479   -8.9652 O   0  0  0  0  0  0
    1.5923    5.0548  -11.2770 O   0  0  0  0  0  0
   -3.1485    1.0618  -11.2581 O   0  0  0  0  0  0
   -3.7529    0.8702  -12.4594 C   0  0  0  0  0  0
   -3.2294    0.4335  -13.4667 O   0  0  0  0  0  0
   -5.2143    1.1937  -12.3139 C   0  0  0  0  0  0
   -5.4533    2.5714  -11.6757 C   0  0  0  0  0  0
   -5.5375    3.6955  -12.7163 C   0  0  0  0  0  0
   -4.2256    3.8609  -13.4475 C   0  0  0  0  0  0
   -3.1307    3.6809  -12.9255 O   0  0  0  0  0  0
   -4.3710    4.2238  -14.7305 O   0  0  0  0  0  0
   -6.7816    2.4592  -10.9149 C   0  0  0  0  0  0
   -6.8633    2.5461   -9.6991 O   0  0  0  0  0  0
   -7.8443    2.2077  -11.6917 O   0  0  0  0  0  0
   -0.7478   -1.8361  -10.9903 O   0  0  0  0  0  0
   -0.6265   -3.0207  -11.6975 C   0  0  0  0  0  0
    0.4113   -3.4260  -12.2044 O   0  0  0  0  0  0
   -1.9522   -3.7887  -11.7817 C   0  0  0  0  0  0
   -2.2743   -4.7188  -10.5710 C   0  0  0  0  0  0
   -2.7466   -6.1540  -10.8670 C   0  0  0  0  0  0
   -3.1890   -6.3443  -12.2891 C   0  0  0  0  0  0
   -4.3210   -6.1606  -12.7149 O   0  0  0  0  0  0
   -2.1858   -6.7328  -13.0910 O   0  0  0  0  0  0
   -1.1554   -4.8165   -9.5266 C   0  0  0  0  0  0
   -0.0187   -4.4437   -9.7400 O   0  0  0  0  0  0
   -1.5378   -5.2482   -8.3065 O   0  0  0  0  0  0
   -1.5606   11.9482  -13.9454 H   0  0  0  0  0  0
   -0.6980   10.7576  -13.2678 H   0  0  0  0  0  0
   -4.2384   12.4522  -12.3240 H   0  0  0  0  0  0
   -1.3879    9.9709   -8.3841 H   0  0  0  0  0  0
    2.3789    4.5063  -11.4347 H   0  0  0  0  0  0
   -3.5383    4.3636  -15.2209 H   0  0  0  0  0  0
   -7.6227    1.9814  -12.6290 H   0  0  0  0  0  0
   -2.5610   -6.8105  -13.9935 H   0  0  0  0  0  0
   -2.4555   -5.5963   -8.2531 H   0  0  0  0  0  0
  1  2  1  0  0  0
  2  3  1  0  0  0
  3  4  1  0  0  0
  4  5  1  0  0  0
  5  6  1  0  0  0
  5  7  1  0  0  0
  7  8  1  0  0  0
  7 39  1  0  0  0
  8  9  1  0  0  0
  8 27  1  0  0  0
  9 10  1  0  0  0
 10 11  1  0  0  0
 10 12  1  0  0  0
 12 13  1  0  0  0
 13 14  1  0  0  0
 13 26  1  0  0  0
 14 15  1  0  0  0
 15 16  1  0  0  0
 16 17  1  0  0  0
 17 18  1  0  0  0
 18 19  1  0  0  0
 18 25  1  0  0  0
 19 20  1  0  0  0
 20 21  1  0  0  0
 20 24  1  0  0  0
 21 22  1  0  0  0
 21 23  1  0  0  0
 23 51  1  0  0  0
 23 52  1  0  0  0
 24 53  1  0  0  0
 25 54  1  0  0  0
 26 55  1  0  0  0
 27 28  1  0  0  0
 28 29  2  0  0  0
 28 30  1  0  0  0
 30 31  1  0  0  0
 31 32  1  0  0  0
 31 36  1  0  0  0
 32 33  1  0  0  0
 33 34  2  0  0  0
 33 35  1  0  0  0
 35 56  1  0  0  0
 36 37  2  0  0  0
 36 38  1  0  0  0
 38 57  1  0  0  0
 39 40  1  0  0  0
 40 41  2  0  0  0
 40 42  1  0  0  0
 42 43  1  0  0  0
 43 44  1  0  0  0
 43 48  1  0  0  0
 44 45  1  0  0  0
 45 46  2  0  0  0
 45 47  1  0  0  0
 47 58  1  0  0  0
 48 49  2  0  0  0
 48 50  1  0  0  0
 50 59  1  0  0  0
M  END
>  <AUTHOR>
    GENERATED BY OPEN BABEL 2.4.1

>  <CHROM.1>
162.57793270,-173.45577979,125.77637242,-53.22925523,-176.27222592,84.61850202
-168.11070315,-68.99004770,55.13308744,-172.24965982,-61.03897314,35.05476916
67.42799694,177.32012002,-83.88354397,113.09715245,49.36892330,-176.21211709
63.63153733,50.91719703,-58.18491426,80.87175972,44.48953109,-11.53405962
51.43817719,89.86554290,-64.09708449,114.75378852,-33.90156290,178.27833706
9.44037928,147.91938467,-85.20638123,-132.59027268,-15.76349134,-14.82132236
-88.69084951,-178.72091942,9.77370001,-2.41142276,2.01790712,-11.16457852
-1.59680636,-0.34689036,-0.09416659

>  <COMPND>
    UNNAMED

>  <MASTER>
        0    0    0    0    0    0    0    0  109    0  109    0

>  <Name>
FB1.pdb

>  <RI>
0

>  <Rbt.Current_Directory>
/home/fc/tossine/FB1_39/p3/3_clust03

>  <Rbt.Executable>
rbdock/0.1.0

>  <Rbt.Library>
librxdock.so/0.1.0

>  <Rbt.Parameter_File>
/cluster/rxdock/data/scripts/dock.prm

>  <Rbt.Receptor>
rx_2.prm

>  <SCORE>
21.6647

>  <SCORE.INTER>
5.80152

>  <SCORE.INTER.CONST>
1

>  <SCORE.INTER.POLAR>
-2.15912

>  <SCORE.INTER.REPUL>
1.18838

>  <SCORE.INTER.ROT>
32

>  <SCORE.INTER.VDW>
-30.1993

>  <SCORE.INTER.norm>
0.11603

>  <SCORE.INTRA>
9.92775

>  <SCORE.INTRA.DIHEDRAL>
8.21752

>  <SCORE.INTRA.DIHEDRAL.0>
47.3121

>  <SCORE.INTRA.POLAR>
1.33907

>  <SCORE.INTRA.POLAR.0>
-1.47808

>  <SCORE.INTRA.REPUL>
0

>  <SCORE.INTRA.REPUL.0>
0

>  <SCORE.INTRA.VDW>
1.26615

>  <SCORE.INTRA.VDW.0>
-2.78316

>  <SCORE.INTRA.norm>
0.198555

>  <SCORE.RESTR>
5.93547

>  <SCORE.RESTR.CAVITY>
5.93547

>  <SCORE.RESTR.norm>
0.118709

>  <SCORE.SYSTEM>
0

>  <SCORE.SYSTEM.CONST>
0

>  <SCORE.SYSTEM.DIHEDRAL>
0

>  <SCORE.SYSTEM.norm>
0

>  <SCORE.heavy>
50

>  <SCORE.norm>
0.433295

$$$$
