FB1.pdb
  RxDock  10072016073D
librxdock.so/0.1.0
 59 58  0  0  0  0  0  0  0  0999 V2000
   -2.0573   -0.9572  -12.8921 C   0  0  0  0  0  0
   -1.0601   -0.3948  -11.8819 C   0  0  0  0  0  0
   -1.6843    0.7195  -11.0256 C   0  0  0  0  0  0
   -2.0948    1.9698  -11.8428 C   0  0  0  0  0  0
   -2.6861    3.1495  -10.9949 C   0  0  0  0  0  0
   -1.5640    3.7059  -10.0883 C   0  0  0  0  0  0
   -3.3283    4.3026  -11.8757 C   0  0  0  0  0  0
   -2.3633    5.5039  -12.3139 C   0  0  0  0  0  0
   -0.9334    5.3298  -12.9871 C   0  0  0  0  0  0
    0.0711    6.6303  -12.8418 C   0  0  0  0  0  0
    0.7359    6.5786  -11.4672 C   0  0  0  0  0  0
    1.1877    6.7858  -13.9705 C   0  0  0  0  0  0
    2.0987    5.5665  -14.5201 C   0  0  0  0  0  0
    3.3170    5.7940  -15.4792 C   0  0  0  0  0  0
    4.6907    6.3093  -14.8494 C   0  0  0  0  0  0
    6.0485    6.4198  -15.6486 C   0  0  0  0  0  0
    7.3711    6.6726  -14.8777 C   0  0  0  0  0  0
    7.3550    7.8354  -13.8115 C   0  0  0  0  0  0
    8.5612    7.9077  -12.8669 C   0  0  0  0  0  0
    8.5526    8.9802  -11.7408 C   0  0  0  0  0  0
    8.5104   10.4967  -12.0926 C   0  0  0  0  0  0
    9.1042   11.4478  -11.0629 C   0  0  0  0  0  0
    9.0837   10.7422  -13.4295 N   0  0  0  0  0  0
    7.3275    8.7311  -11.0053 O   0  0  0  0  0  0
    7.2532    9.0783  -14.5149 O   0  0  0  0  0  0
    2.6569    4.9617  -13.3414 O   0  0  0  0  0  0
   -3.1153    6.3019  -13.2679 O   0  0  0  0  0  0
   -4.3044    6.8068  -12.8479 C   0  0  0  0  0  0
   -5.3159    6.1709  -12.6201 O   0  0  0  0  0  0
   -4.1377    8.2824  -12.6105 C   0  0  0  0  0  0
   -3.5056    8.5928  -11.2442 C   0  0  0  0  0  0
   -2.0824    9.1519  -11.3674 C   0  0  0  0  0  0
   -2.0157   10.2492  -12.4041 C   0  0  0  0  0  0
   -2.7496   11.2316  -12.4001 O   0  0  0  0  0  0
   -1.0711   10.0483  -13.3348 O   0  0  0  0  0  0
   -4.4221    9.6304  -10.5814 C   0  0  0  0  0  0
   -4.0000   10.6192  -10.0012 O   0  0  0  0  0  0
   -5.7281    9.3375  -10.6479 O   0  0  0  0  0  0
   -4.0753    3.7430  -13.0283 O   0  0  0  0  0  0
   -5.3828    3.3318  -12.8294 C   0  0  0  0  0  0
   -6.2350    3.2722  -13.7061 O   0  0  0  0  0  0
   -5.6591    2.9504  -11.3691 C   0  0  0  0  0  0
   -6.2499    1.5243  -11.1416 C   0  0  0  0  0  0
   -7.6712    1.2390  -11.6602 C   0  0  0  0  0  0
   -8.6959    2.1932  -11.1182 C   0  0  0  0  0  0
   -9.4858    1.9546  -10.2150 O   0  0  0  0  0  0
   -8.6552    3.3892  -11.7251 O   0  0  0  0  0  0
   -5.3528    0.3780  -11.6248 C   0  0  0  0  0  0
   -4.7483   -0.3527  -10.8649 O   0  0  0  0  0  0
   -5.3587    0.1595  -12.9566 O   0  0  0  0  0  0
    8.8960   11.7062  -13.7016 H   0  0  0  0  0  0
    8.5776   10.1728  -14.1115 H   0  0  0  0  0  0
    7.4842    7.8790  -10.5464 H   0  0  0  0  0  0
    6.4938    9.5712  -14.1531 H   0  0  0  0  0  0
    3.2329    4.2311  -13.6223 H   0  0  0  0  0  0
   -0.5520    9.2278  -13.2312 H   0  0  0  0  0  0
   -6.3158    9.9728  -10.1686 H   0  0  0  0  0  0
   -9.3301    3.9499  -11.2874 H   0  0  0  0  0  0
   -4.8164   -0.6024  -13.2593 H   0  0  0  0  0  0
  1  2  1  0  0  0
  2  3  1  0  0  0
  3  4  1  0  0  0
  4  5  1  0  0  0
  5  6  1  0  0  0
  5  7  1  0  0  0
  7  8  1  0  0  0
  7 39  1  0  0  0
  8  9  1  0  0  0
  8 27  1  0  0  0
  9 10  1  0  0  0
 10 11  1  0  0  0
 10 12  1  0  0  0
 12 13  1  0  0  0
 13 14  1  0  0  0
 13 26  1  0  0  0
 14 15  1  0  0  0
 15 16  1  0  0  0
 16 17  1  0  0  0
 17 18  1  0  0  0
 18 19  1  0  0  0
 18 25  1  0  0  0
 19 20  1  0  0  0
 20 21  1  0  0  0
 20 24  1  0  0  0
 21 22  1  0  0  0
 21 23  1  0  0  0
 23 51  1  0  0  0
 23 52  1  0  0  0
 24 53  1  0  0  0
 25 54  1  0  0  0
 26 55  1  0  0  0
 27 28  1  0  0  0
 28 29  2  0  0  0
 28 30  1  0  0  0
 30 31  1  0  0  0
 31 32  1  0  0  0
 31 36  1  0  0  0
 32 33  1  0  0  0
 33 34  2  0  0  0
 33 35  1  0  0  0
 35 56  1  0  0  0
 36 37  2  0  0  0
 36 38  1  0  0  0
 38 57  1  0  0  0
 39 40  1  0  0  0
 40 41  2  0  0  0
 40 42  1  0  0  0
 42 43  1  0  0  0
 43 44  1  0  0  0
 43 48  1  0  0  0
 44 45  1  0  0  0
 45 46  2  0  0  0
 45 47  1  0  0  0
 47 58  1  0  0  0
 48 49  2  0  0  0
 48 50  1  0  0  0
 50 59  1  0  0  0
M  END
>  <AUTHOR>
    GENERATED BY OPEN BABEL 2.4.1

>  <CHROM.1>
-64.07472624,-177.81262393,66.47403873,-90.57346268,49.94492732,84.03444446
-158.65153969,57.46287853,81.93255871,-44.68797124,-171.18058458,78.58646258
-178.70315072,172.34064361,-168.41832433,-48.12506094,168.54809434,-176.25530766
126.30370716,-62.04475181,-153.85389567,69.68144018,170.11788051,-69.78044087
-81.35606053,110.63299492,47.35567672,-135.80899343,53.42094836,0.18739664
176.06025988,154.87612880,-125.56836743,-66.88235122,-56.09209233,107.25406342
-102.01856981,-177.99209691,-177.22740523,-0.87073019,5.71276257,-12.38196296
-2.72027137,0.15358379,0.08679396

>  <COMPND>
    UNNAMED

>  <MASTER>
        0    0    0    0    0    0    0    0  109    0  109    0

>  <Name>
FB1.pdb

>  <RI>
0

>  <Rbt.Current_Directory>
/home/fc/tossine/FB1_39/p3/3_clust03

>  <Rbt.Executable>
rbdock/0.1.0

>  <Rbt.Library>
librxdock.so/0.1.0

>  <Rbt.Parameter_File>
/cluster/rxdock/data/scripts/dock.prm

>  <Rbt.Receptor>
rx_1.prm

>  <SCORE>
23.5141

>  <SCORE.INTER>
10.6746

>  <SCORE.INTER.CONST>
1

>  <SCORE.INTER.POLAR>
-1.4667

>  <SCORE.INTER.REPUL>
0.100095

>  <SCORE.INTER.ROT>
32

>  <SCORE.INTER.VDW>
-22.2391

>  <SCORE.INTER.norm>
0.213492

>  <SCORE.INTRA>
10.8439

>  <SCORE.INTRA.DIHEDRAL>
19.5408

>  <SCORE.INTRA.DIHEDRAL.0>
47.3121

>  <SCORE.INTRA.POLAR>
0.494541

>  <SCORE.INTRA.POLAR.0>
-1.47808

>  <SCORE.INTRA.REPUL>
0

>  <SCORE.INTRA.REPUL.0>
0

>  <SCORE.INTRA.VDW>
-0.607952

>  <SCORE.INTRA.VDW.0>
-2.78316

>  <SCORE.INTRA.norm>
0.216878

>  <SCORE.RESTR>
1.99564

>  <SCORE.RESTR.CAVITY>
1.99564

>  <SCORE.RESTR.norm>
0.0399129

>  <SCORE.SYSTEM>
0

>  <SCORE.SYSTEM.CONST>
0

>  <SCORE.SYSTEM.DIHEDRAL>
0

>  <SCORE.SYSTEM.norm>
0

>  <SCORE.heavy>
50

>  <SCORE.norm>
0.470283

$$$$
