FB1.pdb
  RxDock  10072017453D
librxdock.so/0.1.0
 59 58  0  0  0  0  0  0  0  0999 V2000
   -8.1382   -1.1375   -7.8224 C   0  0  0  0  0  0
   -9.0707   -0.8449   -8.9956 C   0  0  0  0  0  0
   -8.3631   -0.0400  -10.0982 C   0  0  0  0  0  0
   -9.1901    0.0798  -11.4026 C   0  0  0  0  0  0
   -8.5520    0.9900  -12.5093 C   0  0  0  0  0  0
   -9.5416    1.0803  -13.6938 C   0  0  0  0  0  0
   -8.1559    2.4359  -11.9893 C   0  0  0  0  0  0
   -6.8164    3.0802  -12.5865 C   0  0  0  0  0  0
   -6.0587    4.3405  -11.9818 C   0  0  0  0  0  0
   -5.2512    5.2660  -13.0831 C   0  0  0  0  0  0
   -4.8927    6.5984  -12.4271 C   0  0  0  0  0  0
   -3.9428    4.6157  -13.7234 C   0  0  0  0  0  0
   -2.5803    4.3213  -12.9014 C   0  0  0  0  0  0
   -1.4434    5.3893  -12.7493 C   0  0  0  0  0  0
   -1.6865    6.6185  -11.7598 C   0  0  0  0  0  0
   -2.1783    8.0467  -12.2210 C   0  0  0  0  0  0
   -2.6756    9.0637  -11.1599 C   0  0  0  0  0  0
   -1.7027    9.3564   -9.9528 C   0  0  0  0  0  0
   -0.4681   10.2104  -10.2670 C   0  0  0  0  0  0
   -0.6819   11.7014  -10.6538 C   0  0  0  0  0  0
   -1.8413   12.1128  -11.6087 C   0  0  0  0  0  0
   -2.4219   13.5057  -11.4086 C   0  0  0  0  0  0
   -1.4630   11.8966  -13.0182 N   0  0  0  0  0  0
   -0.9742   12.3683   -9.3993 O   0  0  0  0  0  0
   -2.4572   10.0083   -8.9254 O   0  0  0  0  0  0
   -3.0119    4.0390  -11.5595 O   0  0  0  0  0  0
   -5.8188    2.0231  -12.5795 O   0  0  0  0  0  0
   -5.5082    1.4761  -11.3755 C   0  0  0  0  0  0
   -5.9514    1.8161  -10.2950 O   0  0  0  0  0  0
   -4.5951    0.3038  -11.6066 C   0  0  0  0  0  0
   -3.1143    0.6587  -11.3974 C   0  0  0  0  0  0
   -2.3267   -0.4739  -10.7264 C   0  0  0  0  0  0
   -2.1449   -1.6428  -11.6666 C   0  0  0  0  0  0
   -1.2486   -1.7093  -12.5009 O   0  0  0  0  0  0
   -3.0606   -2.6088  -11.5015 O   0  0  0  0  0  0
   -2.5457    0.9372  -12.7956 C   0  0  0  0  0  0
   -3.1094    0.5972  -13.8248 O   0  0  0  0  0  0
   -1.3504    1.5431  -12.7959 O   0  0  0  0  0  0
   -9.3056    3.3690  -12.0744 O   0  0  0  0  0  0
  -10.3163    3.2572  -11.1342 C   0  0  0  0  0  0
  -10.4808    2.2915  -10.4002 O   0  0  0  0  0  0
  -11.2262    4.4923  -11.1054 C   0  0  0  0  0  0
  -11.5870    5.0350   -9.6877 C   0  0  0  0  0  0
  -11.6793    6.5602   -9.4989 C   0  0  0  0  0  0
  -11.4268    6.9924   -8.0833 C   0  0  0  0  0  0
  -12.2542    7.0032   -7.1823 O   0  0  0  0  0  0
  -10.1539    7.3643   -7.8796 O   0  0  0  0  0  0
  -12.8540    4.4254   -9.0751 C   0  0  0  0  0  0
  -13.9008    4.3273   -9.6845 O   0  0  0  0  0  0
  -12.7061    3.9013   -7.8402 O   0  0  0  0  0  0
   -0.8872   12.6763  -13.3328 H   0  0  0  0  0  0
   -2.3068   11.9432  -13.5937 H   0  0  0  0  0  0
   -0.1350   12.3226   -8.8943 H   0  0  0  0  0  0
   -1.9647    9.9265   -8.0880 H   0  0  0  0  0  0
   -3.6217    3.2830  -11.5926 H   0  0  0  0  0  0
   -3.7703   -2.4053  -10.8624 H   0  0  0  0  0  0
   -0.9928    1.7442  -13.6962 H   0  0  0  0  0  0
  -10.0839    7.6230   -6.9365 H   0  0  0  0  0  0
  -11.7989    3.9583   -7.4661 H   0  0  0  0  0  0
  1  2  1  0  0  0
  2  3  1  0  0  0
  3  4  1  0  0  0
  4  5  1  0  0  0
  5  6  1  0  0  0
  5  7  1  0  0  0
  7  8  1  0  0  0
  7 39  1  0  0  0
  8  9  1  0  0  0
  8 27  1  0  0  0
  9 10  1  0  0  0
 10 11  1  0  0  0
 10 12  1  0  0  0
 12 13  1  0  0  0
 13 14  1  0  0  0
 13 26  1  0  0  0
 14 15  1  0  0  0
 15 16  1  0  0  0
 16 17  1  0  0  0
 17 18  1  0  0  0
 18 19  1  0  0  0
 18 25  1  0  0  0
 19 20  1  0  0  0
 20 21  1  0  0  0
 20 24  1  0  0  0
 21 22  1  0  0  0
 21 23  1  0  0  0
 23 51  1  0  0  0
 23 52  1  0  0  0
 24 53  1  0  0  0
 25 54  1  0  0  0
 26 55  1  0  0  0
 27 28  1  0  0  0
 28 29  2  0  0  0
 28 30  1  0  0  0
 30 31  1  0  0  0
 31 32  1  0  0  0
 31 36  1  0  0  0
 32 33  1  0  0  0
 33 34  2  0  0  0
 33 35  1  0  0  0
 35 56  1  0  0  0
 36 37  2  0  0  0
 36 38  1  0  0  0
 38 57  1  0  0  0
 39 40  1  0  0  0
 40 41  2  0  0  0
 40 42  1  0  0  0
 42 43  1  0  0  0
 43 44  1  0  0  0
 43 48  1  0  0  0
 44 45  1  0  0  0
 45 46  2  0  0  0
 45 47  1  0  0  0
 47 58  1  0  0  0
 48 49  2  0  0  0
 48 50  1  0  0  0
 50 59  1  0  0  0
M  END
>  <AUTHOR>
    GENERATED BY OPEN BABEL 2.4.1

>  <CHROM.1>
170.48033582,175.31391259,-176.10797229,143.35149967,-165.27293856,75.52733601
-149.75195150,-59.96716728,165.58794940,-68.17504747,-88.16361584,73.76568060
58.25555774,-97.50971834,166.67265742,53.03168173,73.24452596,67.09215493
161.46032542,-41.54945936,150.44102917,67.76440432,-80.48117638,-2.65370269
98.30017116,142.08762862,70.62106123,-16.22323343,83.95295687,5.39338467
-178.52245565,-15.41253652,-135.32213222,142.54660262,-154.64145190,-48.05057460
-83.22486039,-179.73412797,-0.52632285,-5.82949441,4.36459715,-11.06346645
-2.35522195,0.26480983,0.15192961

>  <COMPND>
    UNNAMED

>  <MASTER>
        0    0    0    0    0    0    0    0  109    0  109    0

>  <Name>
FB1.pdb

>  <RI>
0

>  <Rbt.Current_Directory>
/home/fc/tossine/FB1_39/p3/3_clust03

>  <Rbt.Executable>
rbdock/0.1.0

>  <Rbt.Library>
librxdock.so/0.1.0

>  <Rbt.Parameter_File>
/cluster/rxdock/data/scripts/dock.prm

>  <Rbt.Receptor>
rx_3.prm

>  <SCORE>
17.4013

>  <SCORE.INTER>
8.86723

>  <SCORE.INTER.CONST>
1

>  <SCORE.INTER.POLAR>
-2.3442

>  <SCORE.INTER.REPUL>
0.234896

>  <SCORE.INTER.ROT>
32

>  <SCORE.INTER.VDW>
-21.737

>  <SCORE.INTER.norm>
0.177345

>  <SCORE.INTRA>
5.01604

>  <SCORE.INTRA.DIHEDRAL>
5.66962

>  <SCORE.INTRA.DIHEDRAL.0>
47.3121

>  <SCORE.INTRA.POLAR>
1.47808

>  <SCORE.INTRA.POLAR.0>
-1.47808

>  <SCORE.INTRA.REPUL>
0

>  <SCORE.INTRA.REPUL.0>
0

>  <SCORE.INTRA.VDW>
-2.84423

>  <SCORE.INTRA.VDW.0>
-2.78316

>  <SCORE.INTRA.norm>
0.100321

>  <SCORE.RESTR>
3.51806

>  <SCORE.RESTR.CAVITY>
3.51806

>  <SCORE.RESTR.norm>
0.0703613

>  <SCORE.SYSTEM>
0

>  <SCORE.SYSTEM.CONST>
0

>  <SCORE.SYSTEM.DIHEDRAL>
0

>  <SCORE.SYSTEM.norm>
0

>  <SCORE.heavy>
50

>  <SCORE.norm>
0.348027

$$$$
