FB1.pdb
  RxDock  10072018263D
librxdock.so/0.1.0
 59 58  0  0  0  0  0  0  0  0999 V2000
   -8.0573    9.0272   -9.9559 C   0  0  0  0  0  0
   -8.0815    7.5098  -10.1235 C   0  0  0  0  0  0
   -6.9967    7.0274  -11.1006 C   0  0  0  0  0  0
   -5.5581    7.3879  -10.6531 C   0  0  0  0  0  0
   -4.4235    6.9081  -11.6241 C   0  0  0  0  0  0
   -4.3464    7.8994  -12.8082 C   0  0  0  0  0  0
   -3.0100    6.7547  -10.9196 C   0  0  0  0  0  0
   -2.3041    5.3198  -11.0137 C   0  0  0  0  0  0
   -0.7351    5.0668  -10.9645 C   0  0  0  0  0  0
   -0.2135    3.7429  -11.7990 C   0  0  0  0  0  0
    0.9766    4.1530  -12.6647 C   0  0  0  0  0  0
    0.1764    2.4681  -10.9228 C   0  0  0  0  0  0
   -0.8908    1.5689  -10.1037 C   0  0  0  0  0  0
   -2.4391    1.7291  -10.2853 C   0  0  0  0  0  0
   -3.4045    0.8445   -9.3717 C   0  0  0  0  0  0
   -3.8801   -0.6168   -9.7363 C   0  0  0  0  0  0
   -2.8264   -1.7417   -9.9146 C   0  0  0  0  0  0
   -1.8668   -2.0100   -8.6914 C   0  0  0  0  0  0
   -2.4578   -1.7640   -7.2975 C   0  0  0  0  0  0
   -3.5718   -2.7227   -6.7894 C   0  0  0  0  0  0
   -3.2939   -3.7068   -5.6148 C   0  0  0  0  0  0
   -2.1479   -4.6895   -5.8110 C   0  0  0  0  0  0
   -3.1506   -2.9771   -4.3406 N   0  0  0  0  0  0
   -4.6191   -1.8445   -6.3037 O   0  0  0  0  0  0
   -1.4268   -3.3704   -8.7652 O   0  0  0  0  0  0
   -0.6059    0.2138  -10.4901 O   0  0  0  0  0  0
   -2.8299    4.5351   -9.9090 O   0  0  0  0  0  0
   -4.1746    4.3463   -9.8715 C   0  0  0  0  0  0
   -4.9182    4.6481   -8.9575 O   0  0  0  0  0  0
   -4.6143    3.7902  -11.1977 C   0  0  0  0  0  0
   -5.9017    2.9573  -11.0909 C   0  0  0  0  0  0
   -7.1515    3.8269  -10.9033 C   0  0  0  0  0  0
   -8.4043    2.9825  -10.8776 C   0  0  0  0  0  0
   -8.7707    2.3420   -9.8982 O   0  0  0  0  0  0
   -9.0843    3.0000  -12.0336 O   0  0  0  0  0  0
   -6.0034    2.1678  -12.4033 C   0  0  0  0  0  0
   -6.7282    2.5019  -13.3282 O   0  0  0  0  0  0
   -5.2661    1.0491  -12.4342 O   0  0  0  0  0  0
   -2.0925    7.8508  -11.3157 O   0  0  0  0  0  0
   -1.9863    8.9539  -10.4852 C   0  0  0  0  0  0
   -2.6245    9.1122   -9.4527 O   0  0  0  0  0  0
   -0.9663    9.9773  -11.0014 C   0  0  0  0  0  0
   -1.5060   11.4266  -11.2080 C   0  0  0  0  0  0
   -0.5334   12.5992  -10.9854 C   0  0  0  0  0  0
    0.1928   12.5181   -9.6737 C   0  0  0  0  0  0
   -0.2745   12.0975   -8.6243 O   0  0  0  0  0  0
    1.4605   12.9489   -9.7615 O   0  0  0  0  0  0
   -2.1993   11.6628  -12.5555 C   0  0  0  0  0  0
   -3.2780   12.2133  -12.6555 O   0  0  0  0  0  0
   -1.4829   11.3140  -13.6447 O   0  0  0  0  0  0
   -4.0760   -2.7431   -3.9838 H   0  0  0  0  0  0
   -2.7051   -2.0762   -4.5285 H   0  0  0  0  0  0
   -4.2089   -1.3619   -5.5553 H   0  0  0  0  0  0
   -0.8241   -3.4542   -9.5269 H   0  0  0  0  0  0
    0.3087    0.0129  -10.2300 H   0  0  0  0  0  0
   -8.6087    3.3925  -12.7907 H   0  0  0  0  0  0
   -5.5483    0.3908  -13.1167 H   0  0  0  0  0  0
    1.6176   13.1707  -10.7035 H   0  0  0  0  0  0
   -0.5989   10.9264  -13.4591 H   0  0  0  0  0  0
  1  2  1  0  0  0
  2  3  1  0  0  0
  3  4  1  0  0  0
  4  5  1  0  0  0
  5  6  1  0  0  0
  5  7  1  0  0  0
  7  8  1  0  0  0
  7 39  1  0  0  0
  8  9  1  0  0  0
  8 27  1  0  0  0
  9 10  1  0  0  0
 10 11  1  0  0  0
 10 12  1  0  0  0
 12 13  1  0  0  0
 13 14  1  0  0  0
 13 26  1  0  0  0
 14 15  1  0  0  0
 15 16  1  0  0  0
 16 17  1  0  0  0
 17 18  1  0  0  0
 18 19  1  0  0  0
 18 25  1  0  0  0
 19 20  1  0  0  0
 20 21  1  0  0  0
 20 24  1  0  0  0
 21 22  1  0  0  0
 21 23  1  0  0  0
 23 51  1  0  0  0
 23 52  1  0  0  0
 24 53  1  0  0  0
 25 54  1  0  0  0
 26 55  1  0  0  0
 27 28  1  0  0  0
 28 29  2  0  0  0
 28 30  1  0  0  0
 30 31  1  0  0  0
 31 32  1  0  0  0
 31 36  1  0  0  0
 32 33  1  0  0  0
 33 34  2  0  0  0
 33 35  1  0  0  0
 35 56  1  0  0  0
 36 37  2  0  0  0
 36 38  1  0  0  0
 38 57  1  0  0  0
 39 40  1  0  0  0
 40 41  2  0  0  0
 40 42  1  0  0  0
 42 43  1  0  0  0
 43 44  1  0  0  0
 43 48  1  0  0  0
 44 45  1  0  0  0
 45 46  2  0  0  0
 45 47  1  0  0  0
 47 58  1  0  0  0
 48 49  2  0  0  0
 48 50  1  0  0  0
 50 59  1  0  0  0
M  END
>  <AUTHOR>
    GENERATED BY OPEN BABEL 2.4.1

>  <CHROM.1>
60.04653171,179.84422937,79.41101534,123.25637723,152.62375234,96.00324883
-150.38904148,59.02670708,131.92928911,69.04376260,10.32000898,-176.84107387
60.68677403,-87.06963146,60.70925982,56.88647867,31.94323981,68.63500304
69.84417070,111.21281859,-57.92153595,-63.51731809,79.56702285,-122.85328848
153.64714015,74.58354726,176.91261410,-100.45676618,78.53207581,11.95533854
160.19382984,-1.96363738,124.24242563,148.12774752,-50.51822454,132.19634422
-35.73355306,-3.16028658,1.29451417,-3.36640881,4.43536343,-10.23894525,1.45809885
-0.22539518,-0.26140687

>  <COMPND>
    UNNAMED

>  <MASTER>
        0    0    0    0    0    0    0    0  109    0  109    0

>  <Name>
FB1.pdb

>  <RI>
0

>  <Rbt.Current_Directory>
/home/fc/tossine/FB1_39/p3/3_clust03

>  <Rbt.Executable>
rbdock/0.1.0

>  <Rbt.Library>
librxdock.so/0.1.0

>  <Rbt.Parameter_File>
/cluster/rxdock/data/scripts/dock.prm

>  <Rbt.Receptor>
rx_4.prm

>  <SCORE>
30.0584

>  <SCORE.INTER>
8.4299

>  <SCORE.INTER.CONST>
1

>  <SCORE.INTER.POLAR>
-3.44694

>  <SCORE.INTER.REPUL>
0.460984

>  <SCORE.INTER.ROT>
32

>  <SCORE.INTER.VDW>
-19.5554

>  <SCORE.INTER.norm>
0.168598

>  <SCORE.INTRA>
20.2385

>  <SCORE.INTRA.DIHEDRAL>
30.4173

>  <SCORE.INTRA.DIHEDRAL.0>
47.3121

>  <SCORE.INTRA.POLAR>
1.23561

>  <SCORE.INTRA.POLAR.0>
-1.47808

>  <SCORE.INTRA.REPUL>
0

>  <SCORE.INTRA.REPUL.0>
0

>  <SCORE.INTRA.VDW>
0.828825

>  <SCORE.INTRA.VDW.0>
-2.78316

>  <SCORE.INTRA.norm>
0.404771

>  <SCORE.RESTR>
1.39

>  <SCORE.RESTR.CAVITY>
1.39

>  <SCORE.RESTR.norm>
0.0277999

>  <SCORE.SYSTEM>
0

>  <SCORE.SYSTEM.CONST>
0

>  <SCORE.SYSTEM.DIHEDRAL>
0

>  <SCORE.SYSTEM.norm>
0

>  <SCORE.heavy>
50

>  <SCORE.norm>
0.601169

$$$$
