FB1.pdb
  RxDock  10072015033D
librxdock.so/0.1.0
 59 58  0  0  0  0  0  0  0  0999 V2000
   -8.9349    2.1348  -14.9393 C   0  0  0  0  0  0
   -8.8925    3.6161  -14.5715 C   0  0  0  0  0  0
   -8.0766    3.8618  -13.2915 C   0  0  0  0  0  0
   -8.1010    5.3363  -12.8171 C   0  0  0  0  0  0
   -6.8002    6.1542  -13.1323 C   0  0  0  0  0  0
   -7.0196    7.6128  -12.6686 C   0  0  0  0  0  0
   -5.4920    5.5409  -12.4764 C   0  0  0  0  0  0
   -5.4664    5.4267  -10.8787 C   0  0  0  0  0  0
   -4.5511    4.4271  -10.0474 C   0  0  0  0  0  0
   -5.3218    3.0864   -9.4730 C   0  0  0  0  0  0
   -6.3328    2.6220  -10.5201 C   0  0  0  0  0  0
   -4.3871    1.8639   -9.0528 C   0  0  0  0  0  0
   -3.8228    0.7553  -10.0878 C   0  0  0  0  0  0
   -2.6812   -0.2477   -9.7047 C   0  0  0  0  0  0
   -2.2775   -1.3751  -10.7607 C   0  0  0  0  0  0
   -3.3092   -2.3356  -11.4732 C   0  0  0  0  0  0
   -3.1657   -3.8714  -11.3055 C   0  0  0  0  0  0
   -4.1469   -4.7687  -12.1548 C   0  0  0  0  0  0
   -4.0715   -6.2804  -11.9069 C   0  0  0  0  0  0
   -2.9275   -7.0833  -12.5887 C   0  0  0  0  0  0
   -3.2345   -8.0494  -13.7710 C   0  0  0  0  0  0
   -3.0388   -9.5347  -13.5004 C   0  0  0  0  0  0
   -4.5746   -7.7873  -14.3295 N   0  0  0  0  0  0
   -2.0515   -6.0717  -13.1483 O   0  0  0  0  0  0
   -5.4845   -4.3309  -11.8923 O   0  0  0  0  0  0
   -4.9578   -0.0697  -10.4006 O   0  0  0  0  0  0
   -5.1033    6.7438  -10.3829 O   0  0  0  0  0  0
   -4.0280    7.3439  -10.9564 C   0  0  0  0  0  0
   -3.2342    6.8233  -11.7169 O   0  0  0  0  0  0
   -4.0349    8.7985  -10.5748 C   0  0  0  0  0  0
   -2.8237    9.1884   -9.7126 C   0  0  0  0  0  0
   -1.4953    9.0520  -10.4676 C   0  0  0  0  0  0
   -1.5816    9.6784  -11.8400 C   0  0  0  0  0  0
   -1.4671   10.8820  -12.0447 O   0  0  0  0  0  0
   -1.7947    8.7888  -12.8209 O   0  0  0  0  0  0
   -3.0489   10.6512   -9.3058 C   0  0  0  0  0  0
   -3.7047   11.4359   -9.9741 O   0  0  0  0  0  0
   -2.4239   11.0138   -8.1771 O   0  0  0  0  0  0
   -5.1137    4.2641  -13.1295 O   0  0  0  0  0  0
   -4.2778    4.3105  -14.2327 C   0  0  0  0  0  0
   -4.6140    4.0218  -15.3738 O   0  0  0  0  0  0
   -2.8593    4.7705  -13.8715 C   0  0  0  0  0  0
   -1.7837    3.6436  -13.7828 C   0  0  0  0  0  0
   -0.3977    4.0091  -13.2209 C   0  0  0  0  0  0
   -0.1540    5.4901  -13.1782 C   0  0  0  0  0  0
    0.4809    6.1328  -14.0030 O   0  0  0  0  0  0
   -0.7348    6.0754  -12.1197 O   0  0  0  0  0  0
   -2.2473    2.3755  -13.0552 C   0  0  0  0  0  0
   -2.3353    1.2946  -13.6034 O   0  0  0  0  0  0
   -2.4525    2.5111  -11.7282 O   0  0  0  0  0  0
   -4.6719   -8.2864  -15.2126 H   0  0  0  0  0  0
   -4.6370   -6.7975  -14.5780 H   0  0  0  0  0  0
   -1.5764   -5.7015  -12.3747 H   0  0  0  0  0  0
   -5.6844   -4.5089  -10.9549 H   0  0  0  0  0  0
   -5.4804    0.3839  -11.0829 H   0  0  0  0  0  0
   -1.9692    9.1734  -13.7014 H   0  0  0  0  0  0
   -1.9242   10.2848   -7.7327 H   0  0  0  0  0  0
   -0.7430    7.0391  -12.3004 H   0  0  0  0  0  0
   -2.4182    3.4335  -11.3904 H   0  0  0  0  0  0
  1  2  1  0  0  0
  2  3  1  0  0  0
  3  4  1  0  0  0
  4  5  1  0  0  0
  5  6  1  0  0  0
  5  7  1  0  0  0
  7  8  1  0  0  0
  7 39  1  0  0  0
  8  9  1  0  0  0
  8 27  1  0  0  0
  9 10  1  0  0  0
 10 11  1  0  0  0
 10 12  1  0  0  0
 12 13  1  0  0  0
 13 14  1  0  0  0
 13 26  1  0  0  0
 14 15  1  0  0  0
 15 16  1  0  0  0
 16 17  1  0  0  0
 17 18  1  0  0  0
 18 19  1  0  0  0
 18 25  1  0  0  0
 19 20  1  0  0  0
 20 21  1  0  0  0
 20 24  1  0  0  0
 21 22  1  0  0  0
 21 23  1  0  0  0
 23 51  1  0  0  0
 23 52  1  0  0  0
 24 53  1  0  0  0
 25 54  1  0  0  0
 26 55  1  0  0  0
 27 28  1  0  0  0
 28 29  2  0  0  0
 28 30  1  0  0  0
 30 31  1  0  0  0
 31 32  1  0  0  0
 31 36  1  0  0  0
 32 33  1  0  0  0
 33 34  2  0  0  0
 33 35  1  0  0  0
 35 56  1  0  0  0
 36 37  2  0  0  0
 36 38  1  0  0  0
 38 57  1  0  0  0
 39 40  1  0  0  0
 40 41  2  0  0  0
 40 42  1  0  0  0
 42 43  1  0  0  0
 43 44  1  0  0  0
 43 48  1  0  0  0
 44 45  1  0  0  0
 45 46  2  0  0  0
 45 47  1  0  0  0
 47 58  1  0  0  0
 48 49  2  0  0  0
 48 50  1  0  0  0
 50 59  1  0  0  0
M  END
>  <AUTHOR>
    GENERATED BY OPEN BABEL 2.4.1

>  <CHROM.1>
-175.37453829,-103.06590781,176.85955852,-60.29379377,157.38921230,88.85324458
-101.97979960,-48.50019653,37.33618572,-84.12491306,167.01390477,175.30465592
81.37507480,-50.41350294,-121.28151922,-174.38437415,-175.59371853,-79.93942404
-64.95968881,-108.30437110,-112.42573947,74.62355307,168.08313005,-10.35657962
115.52972416,64.85763840,46.96690508,-27.12641214,80.82692978,172.47284503
-2.10178609,-112.14793332,102.57577085,-170.98521091,-15.66966170,116.52826696
-99.08526343,-164.53206082,8.98544779,-3.79648674,2.98394576,-12.01261086
1.60562589,0.15293051,-3.04958278

>  <COMPND>
    UNNAMED

>  <MASTER>
        0    0    0    0    0    0    0    0  109    0  109    0

>  <Name>
FB1.pdb

>  <RI>
0

>  <Rbt.Current_Directory>
/home/fc/tossine/FB1_39/p3/3_clust03

>  <Rbt.Executable>
rbdock/0.1.0

>  <Rbt.Library>
librxdock.so/0.1.0

>  <Rbt.Parameter_File>
/cluster/rxdock/data/scripts/dock.prm

>  <Rbt.Receptor>
rx_0.prm

>  <SCORE>
18.6547

>  <SCORE.INTER>
0.635916

>  <SCORE.INTER.CONST>
1

>  <SCORE.INTER.POLAR>
-2.91293

>  <SCORE.INTER.REPUL>
0.199511

>  <SCORE.INTER.ROT>
32

>  <SCORE.INTER.VDW>
-27.8577

>  <SCORE.INTER.norm>
0.0127183

>  <SCORE.INTRA>
17.2211

>  <SCORE.INTRA.DIHEDRAL>
36.1473

>  <SCORE.INTRA.DIHEDRAL.0>
47.3121

>  <SCORE.INTRA.POLAR>
0.478213

>  <SCORE.INTRA.POLAR.0>
-1.47808

>  <SCORE.INTRA.REPUL>
0

>  <SCORE.INTRA.REPUL.0>
0

>  <SCORE.INTRA.VDW>
-2.47841

>  <SCORE.INTRA.VDW.0>
-2.78316

>  <SCORE.INTRA.norm>
0.344423

>  <SCORE.RESTR>
0.797614

>  <SCORE.RESTR.CAVITY>
0.797614

>  <SCORE.RESTR.norm>
0.0159523

>  <SCORE.SYSTEM>
0

>  <SCORE.SYSTEM.CONST>
0

>  <SCORE.SYSTEM.DIHEDRAL>
0

>  <SCORE.SYSTEM.norm>
0

>  <SCORE.heavy>
50

>  <SCORE.norm>
0.373093

$$$$
