FB1.pdb
  RxDock  10072018283D
librxdock.so/0.1.0
 59 58  0  0  0  0  0  0  0  0999 V2000
   -7.5786    9.4728  -10.1493 C   0  0  0  0  0  0
   -6.9974   10.7093  -10.8308 C   0  0  0  0  0  0
   -6.0868   11.5070   -9.8827 C   0  0  0  0  0  0
   -4.6095   11.0415   -9.9083 C   0  0  0  0  0  0
   -3.9726   10.9400  -11.3382 C   0  0  0  0  0  0
   -2.7234   11.8503  -11.3789 C   0  0  0  0  0  0
   -3.6075    9.4560  -11.7649 C   0  0  0  0  0  0
   -2.3072    8.8063  -11.0914 C   0  0  0  0  0  0
   -2.3113    7.5432  -10.1257 C   0  0  0  0  0  0
   -0.8361    7.1214   -9.5195 C   0  0  0  0  0  0
   -0.9809    6.8745   -8.0188 C   0  0  0  0  0  0
   -0.1283    5.8655  -10.2024 C   0  0  0  0  0  0
   -0.6854    4.3489  -10.1109 C   0  0  0  0  0  0
   -2.2148    4.0112  -10.1634 C   0  0  0  0  0  0
   -2.6482    2.5114  -10.4983 C   0  0  0  0  0  0
   -3.4183    1.5641   -9.4963 C   0  0  0  0  0  0
   -2.6740    0.9901   -8.2618 C   0  0  0  0  0  0
   -2.8080   -0.5626   -8.0161 C   0  0  0  0  0  0
   -2.2219   -1.4751   -9.1007 C   0  0  0  0  0  0
   -2.4709   -3.0061   -8.9899 C   0  0  0  0  0  0
   -1.8220   -3.9892  -10.0087 C   0  0  0  0  0  0
   -0.3430   -3.7813  -10.3029 C   0  0  0  0  0  0
   -2.0932   -5.3899   -9.6331 N   0  0  0  0  0  0
   -1.9136   -3.3770   -7.7031 O   0  0  0  0  0  0
   -2.1714   -0.8694   -6.7710 O   0  0  0  0  0  0
   -0.1134    3.6760  -11.2452 O   0  0  0  0  0  0
   -1.4329    8.4195  -12.1861 O   0  0  0  0  0  0
   -0.1709    8.9222  -12.1747 C   0  0  0  0  0  0
    0.4034    9.4028  -11.2163 O   0  0  0  0  0  0
    0.4445    8.6941  -13.5277 C   0  0  0  0  0  0
    1.4478    7.5297  -13.5313 C   0  0  0  0  0  0
    0.7876    6.1829  -13.2093 C   0  0  0  0  0  0
    1.8132    5.1650  -12.7674 C   0  0  0  0  0  0
    2.1289    4.9845  -11.5963 O   0  0  0  0  0  0
    2.3488    4.4708  -13.7824 O   0  0  0  0  0  0
    2.0494    7.4956  -14.9430 C   0  0  0  0  0  0
    1.6301    8.1807  -15.8634 O   0  0  0  0  0  0
    3.0457    6.6128  -15.0984 O   0  0  0  0  0  0
   -4.7882    8.5640  -11.6642 O   0  0  0  0  0  0
   -4.7147    7.3059  -12.2384 C   0  0  0  0  0  0
   -3.6998    6.8175  -12.7178 O   0  0  0  0  0  0
   -6.0619    6.5720  -12.2111 C   0  0  0  0  0  0
   -5.9933    5.0407  -11.9197 C   0  0  0  0  0  0
   -7.3145    4.2937  -11.6612 C   0  0  0  0  0  0
   -7.9017    4.5903  -10.3116 C   0  0  0  0  0  0
   -9.0789    4.8325  -10.0832 O   0  0  0  0  0  0
   -6.9855    4.5464   -9.3324 O   0  0  0  0  0  0
   -5.2094    4.2285  -12.9580 C   0  0  0  0  0  0
   -5.0158    4.6188  -14.0924 O   0  0  0  0  0  0
   -4.6500    3.0889  -12.5001 O   0  0  0  0  0  0
   -1.6145   -6.0093  -10.2855 H   0  0  0  0  0  0
   -3.0883   -5.5787   -9.7725 H   0  0  0  0  0  0
   -2.2764   -4.2703   -7.5254 H   0  0  0  0  0  0
   -1.3708   -0.3182   -6.6947 H   0  0  0  0  0  0
   -0.0604    2.7282  -11.0372 H   0  0  0  0  0  0
    2.7158    3.5983  -13.5425 H   0  0  0  0  0  0
    3.0665    6.1695  -15.9826 H   0  0  0  0  0  0
   -7.4756    4.4091   -8.4944 H   0  0  0  0  0  0
   -4.9592    2.7961  -11.6142 H   0  0  0  0  0  0
  1  2  1  0  0  0
  2  3  1  0  0  0
  3  4  1  0  0  0
  4  5  1  0  0  0
  5  6  1  0  0  0
  5  7  1  0  0  0
  7  8  1  0  0  0
  7 39  1  0  0  0
  8  9  1  0  0  0
  8 27  1  0  0  0
  9 10  1  0  0  0
 10 11  1  0  0  0
 10 12  1  0  0  0
 12 13  1  0  0  0
 13 14  1  0  0  0
 13 26  1  0  0  0
 14 15  1  0  0  0
 15 16  1  0  0  0
 16 17  1  0  0  0
 17 18  1  0  0  0
 18 19  1  0  0  0
 18 25  1  0  0  0
 19 20  1  0  0  0
 20 21  1  0  0  0
 20 24  1  0  0  0
 21 22  1  0  0  0
 21 23  1  0  0  0
 23 51  1  0  0  0
 23 52  1  0  0  0
 24 53  1  0  0  0
 25 54  1  0  0  0
 26 55  1  0  0  0
 27 28  1  0  0  0
 28 29  2  0  0  0
 28 30  1  0  0  0
 30 31  1  0  0  0
 31 32  1  0  0  0
 31 36  1  0  0  0
 32 33  1  0  0  0
 33 34  2  0  0  0
 33 35  1  0  0  0
 35 56  1  0  0  0
 36 37  2  0  0  0
 36 38  1  0  0  0
 38 57  1  0  0  0
 39 40  1  0  0  0
 40 41  2  0  0  0
 40 42  1  0  0  0
 42 43  1  0  0  0
 43 44  1  0  0  0
 43 48  1  0  0  0
 44 45  1  0  0  0
 45 46  2  0  0  0
 45 47  1  0  0  0
 47 58  1  0  0  0
 48 49  2  0  0  0
 48 50  1  0  0  0
 50 59  1  0  0  0
M  END
>  <AUTHOR>
    GENERATED BY OPEN BABEL 2.4.1

>  <CHROM.1>
88.61677424,51.00003940,122.42241383,-75.24471153,115.89310778,167.76263549
-177.47663560,124.17609491,133.45190652,-66.63827876,38.14248445,162.20308075
154.26813759,115.81867359,-71.61777305,-130.95131048,63.53849632,-173.06857004
-38.20325531,-175.94660464,46.60056571,165.26485688,-176.86564674,18.02508448
-103.50167015,63.59233128,-160.98712062,-8.26727766,91.42717806,-156.18240964
143.83102630,7.33970390,-141.42089477,170.59871686,-73.79705648,-21.89072476
135.48822689,-159.00614497,12.76030344,-2.50950276,5.05455769,-11.11570410
1.62489351,0.31152822,-0.25078050

>  <COMPND>
    UNNAMED

>  <MASTER>
        0    0    0    0    0    0    0    0  109    0  109    0

>  <Name>
FB1.pdb

>  <RI>
0

>  <Rbt.Current_Directory>
/home/fc/tossine/FB1_39/p3/3_clust03

>  <Rbt.Executable>
rbdock/0.1.0

>  <Rbt.Library>
librxdock.so/0.1.0

>  <Rbt.Parameter_File>
/cluster/rxdock/data/scripts/dock.prm

>  <Rbt.Receptor>
rx_4.prm

>  <SCORE>
22.9785

>  <SCORE.INTER>
3.63911

>  <SCORE.INTER.CONST>
1

>  <SCORE.INTER.POLAR>
-3.65343

>  <SCORE.INTER.REPUL>
0.375671

>  <SCORE.INTER.ROT>
32

>  <SCORE.INTER.VDW>
-23.2176

>  <SCORE.INTER.norm>
0.0727822

>  <SCORE.INTRA>
18.03

>  <SCORE.INTRA.DIHEDRAL>
34.1604

>  <SCORE.INTRA.DIHEDRAL.0>
47.3121

>  <SCORE.INTRA.POLAR>
1.4443

>  <SCORE.INTRA.POLAR.0>
-1.47808

>  <SCORE.INTRA.REPUL>
0

>  <SCORE.INTRA.REPUL.0>
0

>  <SCORE.INTRA.VDW>
-3.96087

>  <SCORE.INTRA.VDW.0>
-2.78316

>  <SCORE.INTRA.norm>
0.360599

>  <SCORE.RESTR>
1.30937

>  <SCORE.RESTR.CAVITY>
1.30937

>  <SCORE.RESTR.norm>
0.0261875

>  <SCORE.SYSTEM>
0

>  <SCORE.SYSTEM.CONST>
0

>  <SCORE.SYSTEM.DIHEDRAL>
0

>  <SCORE.SYSTEM.norm>
0

>  <SCORE.heavy>
50

>  <SCORE.norm>
0.459569

$$$$
