FB1.pdb
  RxDock  10072017513D
librxdock.so/0.1.0
 59 58  0  0  0  0  0  0  0  0999 V2000
  -10.8874    2.8375  -11.2351 C   0  0  0  0  0  0
   -9.9400    1.8966  -10.4945 C   0  0  0  0  0  0
   -8.4753    2.3467  -10.6225 C   0  0  0  0  0  0
   -7.4616    1.1775  -10.5514 C   0  0  0  0  0  0
   -6.0959    1.4411  -11.2766 C   0  0  0  0  0  0
   -6.3953    1.9743  -12.6968 C   0  0  0  0  0  0
   -5.1411    2.4329  -10.4877 C   0  0  0  0  0  0
   -3.5778    2.3614  -10.8303 C   0  0  0  0  0  0
   -2.8159    3.3307  -11.8344 C   0  0  0  0  0  0
   -2.9825    4.9404  -11.5146 C   0  0  0  0  0  0
   -2.5078    5.2029  -10.0864 C   0  0  0  0  0  0
   -2.2413    5.9366  -12.5162 C   0  0  0  0  0  0
   -0.7343    5.7184  -13.0637 C   0  0  0  0  0  0
    0.4933    5.5560  -12.1030 C   0  0  0  0  0  0
    0.3609    6.0975  -10.6068 C   0  0  0  0  0  0
    0.1093    7.6101  -10.2282 C   0  0  0  0  0  0
    0.9859    8.7158  -10.8735 C   0  0  0  0  0  0
    0.9676   10.1292  -10.1728 C   0  0  0  0  0  0
    1.5255   11.3004  -10.9911 C   0  0  0  0  0  0
    1.0172   11.4899  -12.4485 C   0  0  0  0  0  0
   -0.5053   11.6318  -12.7435 C   0  0  0  0  0  0
   -1.2852   10.3362  -12.9184 C   0  0  0  0  0  0
   -1.1539   12.5075  -11.7490 N   0  0  0  0  0  0
    1.6021   12.7445  -12.8817 O   0  0  0  0  0  0
   -0.3864   10.4279   -9.8160 O   0  0  0  0  0  0
   -0.7876    4.4937  -13.8146 O   0  0  0  0  0  0
   -2.8771    2.5282   -9.5679 O   0  0  0  0  0  0
   -2.6218    1.4032   -8.8507 C   0  0  0  0  0  0
   -2.2623    1.3562   -7.6897 O   0  0  0  0  0  0
   -2.9562    0.2097   -9.7024 C   0  0  0  0  0  0
   -2.0711   -1.0068   -9.3876 C   0  0  0  0  0  0
   -0.5845   -0.7380   -9.6545 C   0  0  0  0  0  0
   -0.2850   -0.7544  -11.1356 C   0  0  0  0  0  0
   -0.3025   -1.7717  -11.8199 O   0  0  0  0  0  0
    0.0022    0.4564  -11.6360 O   0  0  0  0  0  0
   -2.2903   -1.3143   -7.8998 C   0  0  0  0  0  0
   -3.2669   -0.9278   -7.2758 O   0  0  0  0  0  0
   -1.2948   -2.0029   -7.3248 O   0  0  0  0  0  0
   -5.6559    3.8230  -10.5353 O   0  0  0  0  0  0
   -6.3048    4.3241   -9.4190 C   0  0  0  0  0  0
   -6.5038    3.6947   -8.3882 O   0  0  0  0  0  0
   -6.7570    5.7778   -9.6101 C   0  0  0  0  0  0
   -5.8659    6.6463  -10.5515 C   0  0  0  0  0  0
   -5.7650    6.2370  -12.0323 C   0  0  0  0  0  0
   -7.0961    5.9003  -12.6398 C   0  0  0  0  0  0
   -7.6797    4.8306  -12.5318 O   0  0  0  0  0  0
   -7.6213    6.9266  -13.3263 O   0  0  0  0  0  0
   -6.1761    8.1479  -10.5167 C   0  0  0  0  0  0
   -5.3267    9.0015  -10.6802 O   0  0  0  0  0  0
   -7.4819    8.4672  -10.3980 O   0  0  0  0  0  0
   -1.2496   12.0010  -10.8699 H   0  0  0  0  0  0
   -2.1127   12.6922  -12.0523 H   0  0  0  0  0  0
    1.0306   13.4339  -12.4825 H   0  0  0  0  0  0
   -0.6260    9.8799   -9.0461 H   0  0  0  0  0  0
   -1.4189    4.6151  -14.5434 H   0  0  0  0  0  0
    0.4367    1.0717  -11.0146 H   0  0  0  0  0  0
   -1.3865   -2.1165   -6.3463 H   0  0  0  0  0  0
   -8.4567    6.6014  -13.7233 H   0  0  0  0  0  0
   -7.6962    9.4163  -10.5373 H   0  0  0  0  0  0
  1  2  1  0  0  0
  2  3  1  0  0  0
  3  4  1  0  0  0
  4  5  1  0  0  0
  5  6  1  0  0  0
  5  7  1  0  0  0
  7  8  1  0  0  0
  7 39  1  0  0  0
  8  9  1  0  0  0
  8 27  1  0  0  0
  9 10  1  0  0  0
 10 11  1  0  0  0
 10 12  1  0  0  0
 12 13  1  0  0  0
 13 14  1  0  0  0
 13 26  1  0  0  0
 14 15  1  0  0  0
 15 16  1  0  0  0
 16 17  1  0  0  0
 17 18  1  0  0  0
 18 19  1  0  0  0
 18 25  1  0  0  0
 19 20  1  0  0  0
 20 21  1  0  0  0
 20 24  1  0  0  0
 21 22  1  0  0  0
 21 23  1  0  0  0
 23 51  1  0  0  0
 23 52  1  0  0  0
 24 53  1  0  0  0
 25 54  1  0  0  0
 26 55  1  0  0  0
 27 28  1  0  0  0
 28 29  2  0  0  0
 28 30  1  0  0  0
 30 31  1  0  0  0
 31 32  1  0  0  0
 31 36  1  0  0  0
 32 33  1  0  0  0
 33 34  2  0  0  0
 33 35  1  0  0  0
 35 56  1  0  0  0
 36 37  2  0  0  0
 36 38  1  0  0  0
 38 57  1  0  0  0
 39 40  1  0  0  0
 40 41  2  0  0  0
 40 42  1  0  0  0
 42 43  1  0  0  0
 43 44  1  0  0  0
 43 48  1  0  0  0
 44 45  1  0  0  0
 45 46  2  0  0  0
 45 47  1  0  0  0
 47 58  1  0  0  0
 48 49  2  0  0  0
 48 50  1  0  0  0
 50 59  1  0  0  0
M  END
>  <AUTHOR>
    GENERATED BY OPEN BABEL 2.4.1

>  <CHROM.1>
-151.08949882,154.23639911,-49.28577207,158.43263870,97.46133065,102.18823728
54.74337456,88.69642734,56.70884879,-43.57043121,-56.44313594,-20.90206645
60.85063187,-61.80032690,-48.97864185,-163.41969011,-164.69138312,49.43687506
74.18591450,55.83209235,-85.93511910,-79.59218028,-74.65197292,-166.50352312
148.95067424,-61.76944675,-75.44225700,20.18056246,-70.32513793,30.83238113
173.63746048,-0.97272298,-30.51802745,63.45849086,45.40341244,147.70642801
-81.41269416,176.98390874,-169.48162829,-3.30474507,4.75323134,-10.82601558
1.93610813,0.04188319,2.93461460

>  <COMPND>
    UNNAMED

>  <MASTER>
        0    0    0    0    0    0    0    0  109    0  109    0

>  <Name>
FB1.pdb

>  <RI>
0

>  <Rbt.Current_Directory>
/home/fc/tossine/FB1_39/p3/3_clust03

>  <Rbt.Executable>
rbdock/0.1.0

>  <Rbt.Library>
librxdock.so/0.1.0

>  <Rbt.Parameter_File>
/cluster/rxdock/data/scripts/dock.prm

>  <Rbt.Receptor>
rx_3.prm

>  <SCORE>
26.1124

>  <SCORE.INTER>
10.8478

>  <SCORE.INTER.CONST>
1

>  <SCORE.INTER.POLAR>
-1.79011

>  <SCORE.INTER.REPUL>
0.367656

>  <SCORE.INTER.ROT>
32

>  <SCORE.INTER.VDW>
-22.3041

>  <SCORE.INTER.norm>
0.216956

>  <SCORE.INTRA>
14.5814

>  <SCORE.INTRA.DIHEDRAL>
9.79797

>  <SCORE.INTRA.DIHEDRAL.0>
47.3121

>  <SCORE.INTRA.POLAR>
0.619861

>  <SCORE.INTRA.POLAR.0>
-1.47808

>  <SCORE.INTRA.REPUL>
0

>  <SCORE.INTRA.REPUL.0>
0

>  <SCORE.INTRA.VDW>
7.57488

>  <SCORE.INTRA.VDW.0>
-2.78316

>  <SCORE.INTRA.norm>
0.291628

>  <SCORE.RESTR>
0.683222

>  <SCORE.RESTR.CAVITY>
0.683222

>  <SCORE.RESTR.norm>
0.0136644

>  <SCORE.SYSTEM>
0

>  <SCORE.SYSTEM.CONST>
0

>  <SCORE.SYSTEM.DIHEDRAL>
0

>  <SCORE.SYSTEM.norm>
0

>  <SCORE.heavy>
50

>  <SCORE.norm>
0.522249

$$$$
