FB1.pdb
  RxDock  10072018253D
librxdock.so/0.1.0
 59 58  0  0  0  0  0  0  0  0999 V2000
   -0.3296    3.2391  -12.4705 C   0  0  0  0  0  0
    0.4259    3.3785  -11.1510 C   0  0  0  0  0  0
    0.1761    4.7459  -10.4936 C   0  0  0  0  0  0
   -1.1864    4.8399   -9.7624 C   0  0  0  0  0  0
   -1.7326    6.2971   -9.5659 C   0  0  0  0  0  0
   -0.8226    7.0236   -8.5487 C   0  0  0  0  0  0
   -1.8421    7.1200  -10.9182 C   0  0  0  0  0  0
   -2.8631    6.5686  -12.0226 C   0  0  0  0  0  0
   -2.5257    5.4542  -13.1054 C   0  0  0  0  0  0
   -3.8368    4.7631  -13.8297 C   0  0  0  0  0  0
   -3.3555    3.9517  -15.0315 C   0  0  0  0  0  0
   -4.7532    3.8476  -12.8987 C   0  0  0  0  0  0
   -4.1787    2.8195  -11.7889 C   0  0  0  0  0  0
   -5.1146    2.0305  -10.8103 C   0  0  0  0  0  0
   -4.4892    1.4672   -9.4535 C   0  0  0  0  0  0
   -3.2505    0.4898   -9.3846 C   0  0  0  0  0  0
   -1.9383    0.8651  -10.1227 C   0  0  0  0  0  0
   -1.0698   -0.3326  -10.6708 C   0  0  0  0  0  0
   -1.8429   -1.5133  -11.2713 C   0  0  0  0  0  0
   -1.4916   -2.9482  -10.7854 C   0  0  0  0  0  0
   -2.4205   -4.1499  -11.1296 C   0  0  0  0  0  0
   -3.9165   -3.9170  -10.9708 C   0  0  0  0  0  0
   -2.1097   -4.6879  -12.4677 N   0  0  0  0  0  0
   -0.2277   -3.2546  -11.4277 O   0  0  0  0  0  0
   -0.1833    0.1852  -11.6687 O   0  0  0  0  0  0
   -3.4879    1.8095  -12.5434 O   0  0  0  0  0  0
   -3.9986    6.0294  -11.2930 O   0  0  0  0  0  0
   -5.2333    6.4423  -11.6806 C   0  0  0  0  0  0
   -5.4971    7.0802  -12.6821 O   0  0  0  0  0  0
   -6.2448    5.8912  -10.7138 C   0  0  0  0  0  0
   -7.6551    6.4550  -10.9496 C   0  0  0  0  0  0
   -8.5112    5.5456  -11.8404 C   0  0  0  0  0  0
   -8.1119    4.0966  -11.6836 C   0  0  0  0  0  0
   -7.5539    3.4480  -12.5620 O   0  0  0  0  0  0
   -8.4253    3.5827  -10.4851 O   0  0  0  0  0  0
   -8.2957    6.5836   -9.5607 C   0  0  0  0  0  0
   -7.8538    7.3150   -8.6876 O   0  0  0  0  0  0
   -9.3559    5.7877   -9.3648 O   0  0  0  0  0  0
   -2.0420    8.5652  -10.6509 O   0  0  0  0  0  0
   -3.2938    8.9924  -10.2402 C   0  0  0  0  0  0
   -4.2418    8.2526  -10.0118 O   0  0  0  0  0  0
   -3.3721   10.5181  -10.0973 C   0  0  0  0  0  0
   -4.8104   11.1211  -10.0502 C   0  0  0  0  0  0
   -5.0131   12.5510  -10.5840 C   0  0  0  0  0  0
   -4.6141   12.7017  -12.0236 C   0  0  0  0  0  0
   -3.4802   12.5804  -12.4663 O   0  0  0  0  0  0
   -5.6590   12.9749  -12.8198 O   0  0  0  0  0  0
   -5.8918   10.2415  -10.6897 C   0  0  0  0  0  0
   -5.6688    9.4926  -11.6203 O   0  0  0  0  0  0
   -7.0962   10.2699  -10.0815 O   0  0  0  0  0  0
   -1.4909   -5.4915  -12.3691 H   0  0  0  0  0  0
   -1.5605   -3.9937  -12.9794 H   0  0  0  0  0  0
    0.3963   -2.5849  -11.0763 H   0  0  0  0  0  0
    0.2669   -0.5670  -12.0955 H   0  0  0  0  0  0
   -4.0922    1.4810  -13.2300 H   0  0  0  0  0  0
   -8.9927    4.1468   -9.9254 H   0  0  0  0  0  0
   -9.7212    5.8102   -8.4457 H   0  0  0  0  0  0
   -5.3159   12.9930  -13.7380 H   0  0  0  0  0  0
   -7.2100   10.9773   -9.4085 H   0  0  0  0  0  0
  1  2  1  0  0  0
  2  3  1  0  0  0
  3  4  1  0  0  0
  4  5  1  0  0  0
  5  6  1  0  0  0
  5  7  1  0  0  0
  7  8  1  0  0  0
  7 39  1  0  0  0
  8  9  1  0  0  0
  8 27  1  0  0  0
  9 10  1  0  0  0
 10 11  1  0  0  0
 10 12  1  0  0  0
 12 13  1  0  0  0
 13 14  1  0  0  0
 13 26  1  0  0  0
 14 15  1  0  0  0
 15 16  1  0  0  0
 16 17  1  0  0  0
 17 18  1  0  0  0
 18 19  1  0  0  0
 18 25  1  0  0  0
 19 20  1  0  0  0
 20 21  1  0  0  0
 20 24  1  0  0  0
 21 22  1  0  0  0
 21 23  1  0  0  0
 23 51  1  0  0  0
 23 52  1  0  0  0
 24 53  1  0  0  0
 25 54  1  0  0  0
 26 55  1  0  0  0
 27 28  1  0  0  0
 28 29  2  0  0  0
 28 30  1  0  0  0
 30 31  1  0  0  0
 31 32  1  0  0  0
 31 36  1  0  0  0
 32 33  1  0  0  0
 33 34  2  0  0  0
 33 35  1  0  0  0
 35 56  1  0  0  0
 36 37  2  0  0  0
 36 38  1  0  0  0
 38 57  1  0  0  0
 39 40  1  0  0  0
 40 41  2  0  0  0
 40 42  1  0  0  0
 42 43  1  0  0  0
 43 44  1  0  0  0
 43 48  1  0  0  0
 44 45  1  0  0  0
 45 46  2  0  0  0
 45 47  1  0  0  0
 47 58  1  0  0  0
 48 49  2  0  0  0
 48 50  1  0  0  0
 50 59  1  0  0  0
M  END
>  <AUTHOR>
    GENERATED BY OPEN BABEL 2.4.1

>  <CHROM.1>
78.52861943,-157.48025072,-68.81981647,63.48171208,-85.39732096,-75.73479253
163.31479592,129.52776319,168.01841355,-40.58909594,174.57479158,-158.55175111
-51.66036744,-56.99743441,52.73215612,-148.83711006,38.87083935,-129.88692220
-172.33137835,167.47725438,-43.79628170,62.08849689,97.03602994,10.20104229
172.20119503,94.83959455,29.65363427,62.49636730,-110.80821731,9.57138060
174.87194286,3.97981244,162.87340784,-150.76294038,58.99533795,-30.72196370
-64.95109779,-176.13241189,11.63388016,-4.01717535,4.90601973,-11.15588687
-1.29576458,0.04902712,0.01317641

>  <COMPND>
    UNNAMED

>  <MASTER>
        0    0    0    0    0    0    0    0  109    0  109    0

>  <Name>
FB1.pdb

>  <RI>
0

>  <Rbt.Current_Directory>
/home/fc/tossine/FB1_39/p3/3_clust03

>  <Rbt.Executable>
rbdock/0.1.0

>  <Rbt.Library>
librxdock.so/0.1.0

>  <Rbt.Parameter_File>
/cluster/rxdock/data/scripts/dock.prm

>  <Rbt.Receptor>
rx_4.prm

>  <SCORE>
0.972891

>  <SCORE.INTER>
-6.34765

>  <SCORE.INTER.CONST>
1

>  <SCORE.INTER.POLAR>
-4.64864

>  <SCORE.INTER.REPUL>
0.389812

>  <SCORE.INTER.ROT>
32

>  <SCORE.INTER.VDW>
-29.8913

>  <SCORE.INTER.norm>
-0.126953

>  <SCORE.INTRA>
4.79879

>  <SCORE.INTRA.DIHEDRAL>
8.69147

>  <SCORE.INTRA.DIHEDRAL.0>
47.3121

>  <SCORE.INTRA.POLAR>
0.516877

>  <SCORE.INTRA.POLAR.0>
-1.47808

>  <SCORE.INTRA.REPUL>
0

>  <SCORE.INTRA.REPUL.0>
0

>  <SCORE.INTRA.VDW>
-1.30433

>  <SCORE.INTRA.VDW.0>
-2.78316

>  <SCORE.INTRA.norm>
0.0959757

>  <SCORE.RESTR>
2.52175

>  <SCORE.RESTR.CAVITY>
2.52175

>  <SCORE.RESTR.norm>
0.050435

>  <SCORE.SYSTEM>
0

>  <SCORE.SYSTEM.CONST>
0

>  <SCORE.SYSTEM.DIHEDRAL>
0

>  <SCORE.SYSTEM.norm>
0

>  <SCORE.heavy>
50

>  <SCORE.norm>
0.0194578

$$$$
