FB1.pdb
  RxDock  10072018173D
librxdock.so/0.1.0
 59 58  0  0  0  0  0  0  0  0999 V2000
   -8.2811   10.2427  -10.6725 C   0  0  0  0  0  0
   -7.9035    8.9420  -11.3775 C   0  0  0  0  0  0
   -7.0027    9.1963  -12.5974 C   0  0  0  0  0  0
   -6.0274    8.0311  -12.8985 C   0  0  0  0  0  0
   -4.8136    7.9126  -11.9120 C   0  0  0  0  0  0
   -5.3641    7.6128  -10.4986 C   0  0  0  0  0  0
   -3.7468    6.8220  -12.3487 C   0  0  0  0  0  0
   -4.2910    5.3380  -12.6089 C   0  0  0  0  0  0
   -4.5906    4.2617  -11.4775 C   0  0  0  0  0  0
   -3.4747    3.0537  -11.3482 C   0  0  0  0  0  0
   -3.4325    2.2888  -12.6701 C   0  0  0  0  0  0
   -1.9984    3.5008  -10.9416 C   0  0  0  0  0  0
   -0.7707    2.4728  -10.7078 C   0  0  0  0  0  0
   -0.2899    1.4728  -11.8145 C   0  0  0  0  0  0
   -1.2038    0.2041  -12.1377 C   0  0  0  0  0  0
   -1.2623   -1.0990  -11.2471 C   0  0  0  0  0  0
   -2.6159   -1.8319  -11.0524 C   0  0  0  0  0  0
   -2.6383   -3.0035   -9.9960 C   0  0  0  0  0  0
   -1.3257   -3.7745   -9.8085 C   0  0  0  0  0  0
   -1.2889   -4.9246   -8.7626 C   0  0  0  0  0  0
   -2.3399   -6.0729   -8.8117 C   0  0  0  0  0  0
   -2.7402   -6.5661  -10.1951 C   0  0  0  0  0  0
   -1.9304   -7.1974   -7.9491 N   0  0  0  0  0  0
   -0.0109   -5.5760   -8.9771 O   0  0  0  0  0  0
   -3.0262   -2.4522   -8.7330 O   0  0  0  0  0  0
    0.3664    3.3102  -10.4391 O   0  0  0  0  0  0
   -5.5563    5.4861  -13.3087 O   0  0  0  0  0  0
   -6.6019    4.7464  -12.8560 C   0  0  0  0  0  0
   -6.8316    3.5834  -13.1281 O   0  0  0  0  0  0
   -7.3819    5.5761  -11.8739 C   0  0  0  0  0  0
   -8.0625    4.7241  -10.7907 C   0  0  0  0  0  0
   -7.3158    3.4119  -10.5185 C   0  0  0  0  0  0
   -8.1982    2.2159  -10.7908 C   0  0  0  0  0  0
   -9.0153    1.7790   -9.9876 O   0  0  0  0  0  0
   -8.0045    1.6737  -12.0021 O   0  0  0  0  0  0
   -8.0822    5.5899   -9.5235 C   0  0  0  0  0  0
   -7.3415    5.3960   -8.5716 O   0  0  0  0  0  0
   -9.0164    6.5508   -9.5247 O   0  0  0  0  0  0
   -2.9106    7.3107  -13.4720 O   0  0  0  0  0  0
   -1.9428    8.2651  -13.2065 C   0  0  0  0  0  0
   -1.0906    8.6334  -14.0043 O   0  0  0  0  0  0
   -2.0504    8.8253  -11.7820 C   0  0  0  0  0  0
   -2.7145   10.2315  -11.6556 C   0  0  0  0  0  0
   -3.5362   10.5321  -10.3888 C   0  0  0  0  0  0
   -2.8471   10.1007   -9.1265 C   0  0  0  0  0  0
   -2.5694    8.9486   -8.8231 O   0  0  0  0  0  0
   -2.5320   11.1366   -8.3341 O   0  0  0  0  0  0
   -1.7558   11.4104  -11.8639 C   0  0  0  0  0  0
   -0.9005   11.7165  -11.0568 O   0  0  0  0  0  0
   -1.8500   12.0295  -13.0594 O   0  0  0  0  0  0
   -1.1501   -7.6863   -8.3856 H   0  0  0  0  0  0
   -2.6891   -7.8823   -7.9231 H   0  0  0  0  0  0
   -0.0524   -5.9026   -9.9006 H   0  0  0  0  0  0
   -2.4249   -1.7131   -8.5261 H   0  0  0  0  0  0
    1.1093    2.7367  -10.1868 H   0  0  0  0  0  0
   -7.3350    2.1194  -12.5558 H   0  0  0  0  0  0
   -9.0154    7.1247   -8.7189 H   0  0  0  0  0  0
   -2.0344   10.7681   -7.5739 H   0  0  0  0  0  0
   -1.2293   12.7798  -13.1934 H   0  0  0  0  0  0
  1  2  1  0  0  0
  2  3  1  0  0  0
  3  4  1  0  0  0
  4  5  1  0  0  0
  5  6  1  0  0  0
  5  7  1  0  0  0
  7  8  1  0  0  0
  7 39  1  0  0  0
  8  9  1  0  0  0
  8 27  1  0  0  0
  9 10  1  0  0  0
 10 11  1  0  0  0
 10 12  1  0  0  0
 12 13  1  0  0  0
 13 14  1  0  0  0
 13 26  1  0  0  0
 14 15  1  0  0  0
 15 16  1  0  0  0
 16 17  1  0  0  0
 17 18  1  0  0  0
 18 19  1  0  0  0
 18 25  1  0  0  0
 19 20  1  0  0  0
 20 21  1  0  0  0
 20 24  1  0  0  0
 21 22  1  0  0  0
 21 23  1  0  0  0
 23 51  1  0  0  0
 23 52  1  0  0  0
 24 53  1  0  0  0
 25 54  1  0  0  0
 26 55  1  0  0  0
 27 28  1  0  0  0
 28 29  2  0  0  0
 28 30  1  0  0  0
 30 31  1  0  0  0
 31 32  1  0  0  0
 31 36  1  0  0  0
 32 33  1  0  0  0
 33 34  2  0  0  0
 33 35  1  0  0  0
 35 56  1  0  0  0
 36 37  2  0  0  0
 36 38  1  0  0  0
 38 57  1  0  0  0
 39 40  1  0  0  0
 40 41  2  0  0  0
 40 42  1  0  0  0
 42 43  1  0  0  0
 43 44  1  0  0  0
 43 48  1  0  0  0
 44 45  1  0  0  0
 45 46  2  0  0  0
 45 47  1  0  0  0
 47 58  1  0  0  0
 48 49  2  0  0  0
 48 50  1  0  0  0
 50 59  1  0  0  0
M  END
>  <AUTHOR>
    GENERATED BY OPEN BABEL 2.4.1

>  <CHROM.1>
150.11596487,-74.21339646,63.17789113,-54.39865188,-80.69085199,73.83146806
-105.01172546,-133.12922670,-60.98124413,177.64782710,57.49017777,-73.34388855
173.35951310,-78.10831206,142.67721835,-171.82372142,-30.35563933,179.05670634
-54.41851659,53.43585883,38.45445534,-61.13958462,-72.45227769,-82.48958973
-149.66919191,27.56281586,-120.09885400,-105.74389278,-82.39208279,-0.76428851
-178.49791970,171.06489591,-102.05966497,147.22086574,45.48855258,-71.31105975
-63.91297189,-176.06299878,-179.50100752,-3.98575022,4.21877777,-11.00839124
1.72037884,0.02779887,-0.12907446

>  <COMPND>
    UNNAMED

>  <MASTER>
        0    0    0    0    0    0    0    0  109    0  109    0

>  <Name>
FB1.pdb

>  <RI>
0

>  <Rbt.Current_Directory>
/home/fc/tossine/FB1_39/p3/3_clust03

>  <Rbt.Executable>
rbdock/0.1.0

>  <Rbt.Library>
librxdock.so/0.1.0

>  <Rbt.Parameter_File>
/cluster/rxdock/data/scripts/dock.prm

>  <Rbt.Receptor>
rx_4.prm

>  <SCORE>
46.3343

>  <SCORE.INTER>
10.1211

>  <SCORE.INTER.CONST>
1

>  <SCORE.INTER.POLAR>
-3.35024

>  <SCORE.INTER.REPUL>
1.38008

>  <SCORE.INTER.ROT>
32

>  <SCORE.INTER.VDW>
-22.7885

>  <SCORE.INTER.norm>
0.202423

>  <SCORE.INTRA>
34.6429

>  <SCORE.INTRA.DIHEDRAL>
32.1317

>  <SCORE.INTRA.DIHEDRAL.0>
47.3121

>  <SCORE.INTRA.POLAR>
0.625145

>  <SCORE.INTRA.POLAR.0>
-1.47808

>  <SCORE.INTRA.REPUL>
0

>  <SCORE.INTRA.REPUL.0>
0

>  <SCORE.INTRA.VDW>
16.4516

>  <SCORE.INTRA.VDW.0>
-2.78316

>  <SCORE.INTRA.norm>
0.692859

>  <SCORE.RESTR>
1.57021

>  <SCORE.RESTR.CAVITY>
1.57021

>  <SCORE.RESTR.norm>
0.0314042

>  <SCORE.SYSTEM>
0

>  <SCORE.SYSTEM.CONST>
0

>  <SCORE.SYSTEM.DIHEDRAL>
0

>  <SCORE.SYSTEM.norm>
0

>  <SCORE.heavy>
50

>  <SCORE.norm>
0.926686

$$$$
