FB1.pdb
  RxDock  10072017443D
librxdock.so/0.1.0
 59 58  0  0  0  0  0  0  0  0999 V2000
   -2.1624    2.1229   -9.5936 C   0  0  0  0  0  0
   -0.7792    2.7007   -9.8834 C   0  0  0  0  0  0
   -0.4670    3.9088   -8.9850 C   0  0  0  0  0  0
    0.1356    5.1110   -9.7541 C   0  0  0  0  0  0
   -0.8512    6.3073   -9.9898 C   0  0  0  0  0  0
   -0.9062    7.1533   -8.6968 C   0  0  0  0  0  0
   -0.4691    7.2063  -11.2403 C   0  0  0  0  0  0
    0.3564    6.4994  -12.4171 C   0  0  0  0  0  0
   -0.2802    5.6340  -13.5893 C   0  0  0  0  0  0
   -1.8902    5.3130  -13.4269 C   0  0  0  0  0  0
   -2.2532    4.1648  -14.3671 C   0  0  0  0  0  0
   -2.3945    4.9761  -11.9515 C   0  0  0  0  0  0
   -3.9239    4.6011  -11.5786 C   0  0  0  0  0  0
   -4.3843    4.3157  -10.1080 C   0  0  0  0  0  0
   -5.6145    3.3241   -9.8785 C   0  0  0  0  0  0
   -5.9201    2.0637  -10.7799 C   0  0  0  0  0  0
   -4.8791    0.9166  -10.8687 C   0  0  0  0  0  0
   -4.8681    0.0755  -12.2035 C   0  0  0  0  0  0
   -3.8477   -1.0672  -12.2780 C   0  0  0  0  0  0
   -2.3422   -0.7034  -12.4172 C   0  0  0  0  0  0
   -1.5195   -0.2502  -11.1750 C   0  0  0  0  0  0
   -1.2265   -1.3178  -10.1301 C   0  0  0  0  0  0
   -0.2814    0.4380  -11.5873 N   0  0  0  0  0  0
   -1.7073   -1.9297  -12.8610 O   0  0  0  0  0  0
   -6.1778   -0.4713  -12.3917 O   0  0  0  0  0  0
   -4.6964    5.7380  -11.9997 O   0  0  0  0  0  0
    1.0757    7.5600  -13.1028 O   0  0  0  0  0  0
    2.2480    7.9674  -12.5503 C   0  0  0  0  0  0
    2.9274    7.3399  -11.7604 O   0  0  0  0  0  0
    2.6254    9.2908  -13.1567 C   0  0  0  0  0  0
    1.8216   10.4609  -12.5672 C   0  0  0  0  0  0
    2.4844   11.0616  -11.3209 C   0  0  0  0  0  0
    2.0496   10.3358  -10.0689 C   0  0  0  0  0  0
    2.1285   10.8172   -8.9439 O   0  0  0  0  0  0
    1.5642    9.1079  -10.3044 O   0  0  0  0  0  0
    1.7375   11.5168  -13.6780 C   0  0  0  0  0  0
    1.8826   12.7125  -13.4740 O   0  0  0  0  0  0
    1.4416   11.0238  -14.8885 O   0  0  0  0  0  0
   -1.6521    7.9380  -11.7551 O   0  0  0  0  0  0
   -1.7486    9.2962  -11.5018 C   0  0  0  0  0  0
   -0.8142   10.0087  -11.1587 O   0  0  0  0  0  0
   -3.1745    9.8272  -11.6999 C   0  0  0  0  0  0
   -3.3826   11.3418  -11.3883 C   0  0  0  0  0  0
   -2.7634   11.9063  -10.0966 C   0  0  0  0  0  0
   -3.6035   11.6441   -8.8801 C   0  0  0  0  0  0
   -4.8106   11.4454   -8.8759 O   0  0  0  0  0  0
   -2.8798   11.6278   -7.7504 O   0  0  0  0  0  0
   -2.9896   12.2875  -12.5299 C   0  0  0  0  0  0
   -1.9615   12.1634  -13.1658 O   0  0  0  0  0  0
   -3.9147   13.2130  -12.8602 O   0  0  0  0  0  0
    0.1146   -0.0419  -12.3945 H   0  0  0  0  0  0
    0.4155    0.3277  -10.8473 H   0  0  0  0  0  0
   -2.0899   -2.0986  -13.7478 H   0  0  0  0  0  0
   -6.1680   -1.0120  -13.2029 H   0  0  0  0  0  0
   -4.4351    6.4981  -11.4533 H   0  0  0  0  0  0
    1.2317    8.6335   -9.5183 H   0  0  0  0  0  0
    1.2932   11.7099  -15.5857 H   0  0  0  0  0  0
   -1.9396   11.7061   -8.0175 H   0  0  0  0  0  0
   -3.6798   13.7879  -13.6221 H   0  0  0  0  0  0
  1  2  1  0  0  0
  2  3  1  0  0  0
  3  4  1  0  0  0
  4  5  1  0  0  0
  5  6  1  0  0  0
  5  7  1  0  0  0
  7  8  1  0  0  0
  7 39  1  0  0  0
  8  9  1  0  0  0
  8 27  1  0  0  0
  9 10  1  0  0  0
 10 11  1  0  0  0
 10 12  1  0  0  0
 12 13  1  0  0  0
 13 14  1  0  0  0
 13 26  1  0  0  0
 14 15  1  0  0  0
 15 16  1  0  0  0
 16 17  1  0  0  0
 17 18  1  0  0  0
 18 19  1  0  0  0
 18 25  1  0  0  0
 19 20  1  0  0  0
 20 21  1  0  0  0
 20 24  1  0  0  0
 21 22  1  0  0  0
 21 23  1  0  0  0
 23 51  1  0  0  0
 23 52  1  0  0  0
 24 53  1  0  0  0
 25 54  1  0  0  0
 26 55  1  0  0  0
 27 28  1  0  0  0
 28 29  2  0  0  0
 28 30  1  0  0  0
 30 31  1  0  0  0
 31 32  1  0  0  0
 31 36  1  0  0  0
 32 33  1  0  0  0
 33 34  2  0  0  0
 33 35  1  0  0  0
 35 56  1  0  0  0
 36 37  2  0  0  0
 36 38  1  0  0  0
 38 57  1  0  0  0
 39 40  1  0  0  0
 40 41  2  0  0  0
 40 42  1  0  0  0
 42 43  1  0  0  0
 43 44  1  0  0  0
 43 48  1  0  0  0
 44 45  1  0  0  0
 45 46  2  0  0  0
 45 47  1  0  0  0
 47 58  1  0  0  0
 48 49  2  0  0  0
 48 50  1  0  0  0
 50 59  1  0  0  0
M  END
>  <AUTHOR>
    GENERATED BY OPEN BABEL 2.4.1

>  <CHROM.1>
-134.08571874,105.03053339,80.85227936,26.56917288,83.34614938,105.77030686
-8.02696532,82.38494642,-163.45320047,-178.59429085,-178.25125440,-151.15234990
-65.20891440,34.42979383,61.49558368,-151.90489057,-179.31053699,-71.35852651
-178.46188828,78.96828192,69.87935928,64.64287196,-39.58877975,20.03150986
77.56573324,88.52844896,-87.61507136,-137.82592036,-159.40563218,-176.91692130
173.87443144,17.54479879,178.01998077,-45.32750739,-81.74829392,-44.72855901
-24.32680585,-5.60414570,-176.99315101,-1.46793220,6.57737880,-11.43916381
-1.83585698,0.24040978,0.05328497

>  <COMPND>
    UNNAMED

>  <MASTER>
        0    0    0    0    0    0    0    0  109    0  109    0

>  <Name>
FB1.pdb

>  <RI>
0

>  <Rbt.Current_Directory>
/home/fc/tossine/FB1_39/p3/3_clust03

>  <Rbt.Executable>
rbdock/0.1.0

>  <Rbt.Library>
librxdock.so/0.1.0

>  <Rbt.Parameter_File>
/cluster/rxdock/data/scripts/dock.prm

>  <Rbt.Receptor>
rx_3.prm

>  <SCORE>
22.6295

>  <SCORE.INTER>
6.43246

>  <SCORE.INTER.CONST>
1

>  <SCORE.INTER.POLAR>
-2.75693

>  <SCORE.INTER.REPUL>
0.0182324

>  <SCORE.INTER.ROT>
32

>  <SCORE.INTER.VDW>
-21.6851

>  <SCORE.INTER.norm>
0.128649

>  <SCORE.INTRA>
16.197

>  <SCORE.INTRA.DIHEDRAL>
19.5526

>  <SCORE.INTRA.DIHEDRAL.0>
47.3121

>  <SCORE.INTRA.POLAR>
1.47808

>  <SCORE.INTRA.POLAR.0>
-1.47808

>  <SCORE.INTRA.REPUL>
0.110921

>  <SCORE.INTRA.REPUL.0>
0

>  <SCORE.INTRA.VDW>
0.840701

>  <SCORE.INTRA.VDW.0>
-2.78316

>  <SCORE.INTRA.norm>
0.323941

>  <SCORE.RESTR>
0

>  <SCORE.RESTR.CAVITY>
0

>  <SCORE.RESTR.norm>
0

>  <SCORE.SYSTEM>
0

>  <SCORE.SYSTEM.CONST>
0

>  <SCORE.SYSTEM.DIHEDRAL>
0

>  <SCORE.SYSTEM.norm>
0

>  <SCORE.heavy>
50

>  <SCORE.norm>
0.45259

$$$$
