FB1.pdb
  RxDock  10072015063D
librxdock.so/0.1.0
 59 58  0  0  0  0  0  0  0  0999 V2000
   -9.9159    3.6188  -12.1390 C   0  0  0  0  0  0
  -10.2102    2.8310  -10.8646 C   0  0  0  0  0  0
   -9.2535    1.6388  -10.6984 C   0  0  0  0  0  0
   -7.7867    2.0572  -10.4278 C   0  0  0  0  0  0
   -6.7389    0.8936  -10.5211 C   0  0  0  0  0  0
   -6.7846    0.3128  -11.9533 C   0  0  0  0  0  0
   -5.2649    1.3363  -10.1350 C   0  0  0  0  0  0
   -4.1889    0.1688   -9.9215 C   0  0  0  0  0  0
   -3.5892   -0.2774   -8.5181 C   0  0  0  0  0  0
   -3.4854   -1.9076   -8.2883 C   0  0  0  0  0  0
   -2.0251   -2.3278   -8.4465 C   0  0  0  0  0  0
   -4.0541   -2.4602   -6.9040 C   0  0  0  0  0  0
   -3.6578   -3.8943   -6.2677 C   0  0  0  0  0  0
   -4.6709   -4.7531   -5.4358 C   0  0  0  0  0  0
   -5.3603   -4.0857   -4.1597 C   0  0  0  0  0  0
   -6.3228   -4.8503   -3.1680 C   0  0  0  0  0  0
   -6.1181   -4.7019   -1.6371 C   0  0  0  0  0  0
   -5.1793   -5.7641   -0.9446 C   0  0  0  0  0  0
   -4.3362   -5.2601    0.2333 C   0  0  0  0  0  0
   -3.1241   -4.3343   -0.0702 C   0  0  0  0  0  0
   -1.9246   -4.8532   -0.9172 C   0  0  0  0  0  0
   -0.7122   -3.9370   -1.0070 C   0  0  0  0  0  0
   -1.5300   -6.2100   -0.4934 N   0  0  0  0  0  0
   -3.6819   -3.2393   -0.8406 O   0  0  0  0  0  0
   -5.9981   -6.8461   -0.4878 O   0  0  0  0  0  0
   -3.3076   -4.7147   -7.3951 O   0  0  0  0  0  0
   -4.7906   -1.0411  -10.4567 O   0  0  0  0  0  0
   -4.1390   -1.6538  -11.4791 C   0  0  0  0  0  0
   -3.0882   -1.2986  -11.9781 O   0  0  0  0  0  0
   -4.8828   -2.9125  -11.8312 C   0  0  0  0  0  0
   -4.5388   -4.0827  -10.8960 C   0  0  0  0  0  0
   -5.3632   -5.3404  -11.1991 C   0  0  0  0  0  0
   -5.1661   -5.7901  -12.6282 C   0  0  0  0  0  0
   -5.9505   -5.5321  -13.5347 O   0  0  0  0  0  0
   -4.0444   -6.5014  -12.8147 O   0  0  0  0  0  0
   -3.0460   -4.3689  -11.1100 C   0  0  0  0  0  0
   -2.4251   -3.9773  -12.0865 O   0  0  0  0  0  0
   -2.4867   -5.1291  -10.1585 O   0  0  0  0  0  0
   -4.7650    2.3900  -11.0514 O   0  0  0  0  0  0
   -3.5904    3.0462  -10.7229 C   0  0  0  0  0  0
   -2.9141    2.8086   -9.7306 O   0  0  0  0  0  0
   -3.2157    4.1222  -11.7506 C   0  0  0  0  0  0
   -3.6224    5.5825  -11.3812 C   0  0  0  0  0  0
   -5.0544    5.8276  -10.8715 C   0  0  0  0  0  0
   -6.1073    5.4119  -11.8579 C   0  0  0  0  0  0
   -7.0019    4.6041  -11.6488 O   0  0  0  0  0  0
   -5.9870    6.0456  -13.0345 O   0  0  0  0  0  0
   -2.6684    6.2828  -10.4056 C   0  0  0  0  0  0
   -1.8251    5.6871   -9.7647 O   0  0  0  0  0  0
   -2.7513    7.6295  -10.3804 O   0  0  0  0  0  0
   -2.3410   -6.8250   -0.5444 H   0  0  0  0  0  0
   -1.2816   -6.1833    0.4981 H   0  0  0  0  0  0
   -2.9591   -2.5786   -0.8892 H   0  0  0  0  0  0
   -6.4238   -7.2543   -1.2641 H   0  0  0  0  0  0
   -3.9935   -4.6013   -8.0741 H   0  0  0  0  0  0
   -3.8392   -6.7198  -13.7440 H   0  0  0  0  0  0
   -1.5341   -5.3459  -10.3142 H   0  0  0  0  0  0
   -6.7445    5.7591  -13.5871 H   0  0  0  0  0  0
   -3.4654    8.0165  -10.9339 H   0  0  0  0  0  0
  1  2  1  0  0  0
  2  3  1  0  0  0
  3  4  1  0  0  0
  4  5  1  0  0  0
  5  6  1  0  0  0
  5  7  1  0  0  0
  7  8  1  0  0  0
  7 39  1  0  0  0
  8  9  1  0  0  0
  8 27  1  0  0  0
  9 10  1  0  0  0
 10 11  1  0  0  0
 10 12  1  0  0  0
 12 13  1  0  0  0
 13 14  1  0  0  0
 13 26  1  0  0  0
 14 15  1  0  0  0
 15 16  1  0  0  0
 16 17  1  0  0  0
 17 18  1  0  0  0
 18 19  1  0  0  0
 18 25  1  0  0  0
 19 20  1  0  0  0
 20 21  1  0  0  0
 20 24  1  0  0  0
 21 22  1  0  0  0
 21 23  1  0  0  0
 23 51  1  0  0  0
 23 52  1  0  0  0
 24 53  1  0  0  0
 25 54  1  0  0  0
 26 55  1  0  0  0
 27 28  1  0  0  0
 28 29  2  0  0  0
 28 30  1  0  0  0
 30 31  1  0  0  0
 31 32  1  0  0  0
 31 36  1  0  0  0
 32 33  1  0  0  0
 33 34  2  0  0  0
 33 35  1  0  0  0
 35 56  1  0  0  0
 36 37  2  0  0  0
 36 38  1  0  0  0
 38 57  1  0  0  0
 39 40  1  0  0  0
 40 41  2  0  0  0
 40 42  1  0  0  0
 42 43  1  0  0  0
 43 44  1  0  0  0
 43 48  1  0  0  0
 44 45  1  0  0  0
 45 46  2  0  0  0
 45 47  1  0  0  0
 47 58  1  0  0  0
 48 49  2  0  0  0
 48 50  1  0  0  0
 50 59  1  0  0  0
M  END
>  <AUTHOR>
    GENERATED BY OPEN BABEL 2.4.1

>  <CHROM.1>
67.67010281,-168.98298230,60.51827785,168.33233661,-108.06647904,169.30339047
136.47616826,119.68266115,104.26850982,-160.10523808,-146.11662686,-55.94131077
-46.67177821,-175.64718952,133.40504994,-91.36200436,145.84905809,-72.85029335
62.04422092,-62.96493904,-172.34986575,169.87684851,55.38691212,1.18301233
-81.54600104,176.34817242,57.86587885,-17.86966468,-98.72008372,-173.43546945
177.57910465,1.03618484,97.81961154,-47.11387894,-59.25898828,-14.03358755
122.68281737,-176.26272060,4.89217228,-4.55509968,-1.01530609,-8.48167327
-2.62989303,1.43473477,-2.87381320

>  <COMPND>
    UNNAMED

>  <MASTER>
        0    0    0    0    0    0    0    0  109    0  109    0

>  <Name>
FB1.pdb

>  <RI>
0

>  <Rbt.Current_Directory>
/home/fc/tossine/FB1_39/p3/3_clust03

>  <Rbt.Executable>
rbdock/0.1.0

>  <Rbt.Library>
librxdock.so/0.1.0

>  <Rbt.Parameter_File>
/cluster/rxdock/data/scripts/dock.prm

>  <Rbt.Receptor>
rx_0.prm

>  <SCORE>
25.6457

>  <SCORE.INTER>
15.5997

>  <SCORE.INTER.CONST>
1

>  <SCORE.INTER.POLAR>
-2.81514

>  <SCORE.INTER.REPUL>
1.19826

>  <SCORE.INTER.ROT>
32

>  <SCORE.INTER.VDW>
-18.2201

>  <SCORE.INTER.norm>
0.311995

>  <SCORE.INTRA>
7.23915

>  <SCORE.INTRA.DIHEDRAL>
7.36242

>  <SCORE.INTRA.DIHEDRAL.0>
47.3121

>  <SCORE.INTRA.POLAR>
1.47808

>  <SCORE.INTRA.POLAR.0>
-1.47808

>  <SCORE.INTRA.REPUL>
0.16345

>  <SCORE.INTRA.REPUL.0>
0

>  <SCORE.INTRA.VDW>
-2.28477

>  <SCORE.INTRA.VDW.0>
-2.78316

>  <SCORE.INTRA.norm>
0.144783

>  <SCORE.RESTR>
2.80681

>  <SCORE.RESTR.CAVITY>
2.80681

>  <SCORE.RESTR.norm>
0.0561362

>  <SCORE.SYSTEM>
0

>  <SCORE.SYSTEM.CONST>
0

>  <SCORE.SYSTEM.DIHEDRAL>
0

>  <SCORE.SYSTEM.norm>
0

>  <SCORE.heavy>
50

>  <SCORE.norm>
0.512914

$$$$
