FB1.pdb
  RxDock  10072017063D
librxdock.so/0.1.0
 59 58  0  0  0  0  0  0  0  0999 V2000
   -4.1596  -12.1757    7.6794 C   0  0  0  0  0  0
   -4.9127  -10.9735    8.2440 C   0  0  0  0  0  0
   -4.4633   -9.6592    7.5846 C   0  0  0  0  0  0
   -5.4952   -9.0875    6.5806 C   0  0  0  0  0  0
   -6.6472   -8.2408    7.2259 C   0  0  0  0  0  0
   -7.5541   -7.7106    6.0914 C   0  0  0  0  0  0
   -7.4945   -9.0412    8.3026 C   0  0  0  0  0  0
   -8.9076   -8.4158    8.7249 C   0  0  0  0  0  0
   -9.2244   -6.8614    8.8338 C   0  0  0  0  0  0
  -10.4650   -6.4698    9.8482 C   0  0  0  0  0  0
   -9.8753   -6.0001   11.1770 C   0  0  0  0  0  0
  -11.4987   -5.3818    9.3073 C   0  0  0  0  0  0
  -13.0999   -5.6059    9.2399 C   0  0  0  0  0  0
  -13.9934   -5.6752   10.5255 C   0  0  0  0  0  0
  -13.9905   -7.0252   11.3780 C   0  0  0  0  0  0
  -12.6947   -7.6823   11.9974 C   0  0  0  0  0  0
  -12.1090   -7.1191   13.3192 C   0  0  0  0  0  0
  -11.6867   -8.1770   14.4109 C   0  0  0  0  0  0
  -10.2284   -8.6503   14.3700 C   0  0  0  0  0  0
   -9.7456   -9.4444   13.1232 C   0  0  0  0  0  0
   -8.6676   -8.8454   12.1720 C   0  0  0  0  0  0
   -7.4452   -8.2281   12.8369 C   0  0  0  0  0  0
   -8.2700   -9.8263   11.1444 N   0  0  0  0  0  0
   -9.1421  -10.6472   13.6643 O   0  0  0  0  0  0
  -11.9444   -7.6087   15.6995 O   0  0  0  0  0  0
  -13.5994   -4.4817    8.4960 O   0  0  0  0  0  0
   -9.8763   -8.9139    7.7627 O   0  0  0  0  0  0
  -11.0665   -9.3472    8.2536 C   0  0  0  0  0  0
  -11.2375  -10.3027    8.9865 O   0  0  0  0  0  0
  -12.1383   -8.3848    7.8217 C   0  0  0  0  0  0
  -13.1204   -9.0072    6.8165 C   0  0  0  0  0  0
  -14.5863   -8.7737    7.2040 C   0  0  0  0  0  0
  -15.5198   -9.2352    6.1091 C   0  0  0  0  0  0
  -15.9171   -8.5079    5.2053 O   0  0  0  0  0  0
  -15.8746  -10.5241    6.2174 O   0  0  0  0  0  0
  -12.8215   -8.3406    5.4666 C   0  0  0  0  0  0
  -12.9482   -7.1411    5.2724 O   0  0  0  0  0  0
  -12.4553   -9.1918    4.4984 O   0  0  0  0  0  0
   -7.6098  -10.4738    7.9361 O   0  0  0  0  0  0
   -7.7314  -10.8036    6.5965 C   0  0  0  0  0  0
   -8.3998  -10.1787    5.7834 O   0  0  0  0  0  0
   -6.9263  -12.0568    6.2284 C   0  0  0  0  0  0
   -7.0969  -12.5653    4.7631 C   0  0  0  0  0  0
   -5.9956  -13.4682    4.1780 C   0  0  0  0  0  0
   -5.2402  -14.2286    5.2296 C   0  0  0  0  0  0
   -4.0603  -14.0736    5.5130 O   0  0  0  0  0  0
   -6.0112  -15.1191    5.8722 O   0  0  0  0  0  0
   -8.4407  -13.2468    4.4770 C   0  0  0  0  0  0
   -9.2670  -12.7837    3.7157 O   0  0  0  0  0  0
   -8.6084  -14.4590    5.0460 O   0  0  0  0  0  0
   -8.0427  -10.7106   11.5969 H   0  0  0  0  0  0
   -7.3941   -9.5158   10.7180 H   0  0  0  0  0  0
   -9.8970  -11.1658   14.0146 H   0  0  0  0  0  0
  -12.9006   -7.4308   15.7678 H   0  0  0  0  0  0
  -13.3362   -3.6712    8.9631 H   0  0  0  0  0  0
  -15.4926  -10.9986    6.9805 H   0  0  0  0  0  0
  -12.8455   -8.9956    3.6107 H   0  0  0  0  0  0
   -6.9010  -15.0674    5.4636 H   0  0  0  0  0  0
   -9.4378  -14.9264    4.8013 H   0  0  0  0  0  0
  1  2  1  0  0  0
  2  3  1  0  0  0
  3  4  1  0  0  0
  4  5  1  0  0  0
  5  6  1  0  0  0
  5  7  1  0  0  0
  7  8  1  0  0  0
  7 39  1  0  0  0
  8  9  1  0  0  0
  8 27  1  0  0  0
  9 10  1  0  0  0
 10 11  1  0  0  0
 10 12  1  0  0  0
 12 13  1  0  0  0
 13 14  1  0  0  0
 13 26  1  0  0  0
 14 15  1  0  0  0
 15 16  1  0  0  0
 16 17  1  0  0  0
 17 18  1  0  0  0
 18 19  1  0  0  0
 18 25  1  0  0  0
 19 20  1  0  0  0
 20 21  1  0  0  0
 20 24  1  0  0  0
 21 22  1  0  0  0
 21 23  1  0  0  0
 23 51  1  0  0  0
 23 52  1  0  0  0
 24 53  1  0  0  0
 25 54  1  0  0  0
 26 55  1  0  0  0
 27 28  1  0  0  0
 28 29  2  0  0  0
 28 30  1  0  0  0
 30 31  1  0  0  0
 31 32  1  0  0  0
 31 36  1  0  0  0
 32 33  1  0  0  0
 33 34  2  0  0  0
 33 35  1  0  0  0
 35 56  1  0  0  0
 36 37  2  0  0  0
 36 38  1  0  0  0
 38 57  1  0  0  0
 39 40  1  0  0  0
 40 41  2  0  0  0
 40 42  1  0  0  0
 42 43  1  0  0  0
 43 44  1  0  0  0
 43 48  1  0  0  0
 44 45  1  0  0  0
 45 46  2  0  0  0
 45 47  1  0  0  0
 47 58  1  0  0  0
 48 49  2  0  0  0
 48 50  1  0  0  0
 50 59  1  0  0  0
M  END
>  <AUTHOR>
    GENERATED BY OPEN BABEL 2.4.1

>  <CHROM.1>
105.79253456,83.24394060,178.13795757,-164.11901263,-34.49574835,-36.29723119
-155.53127042,136.12485990,99.96269791,126.15511224,69.95776854,-77.46606688
-58.29132383,57.16918971,79.70292727,134.91409955,91.86451245,-64.53499536
61.39963722,114.52549161,46.17141953,70.07248925,-50.00903962,-64.91130532
112.21741495,130.91741642,172.50008345,-62.06430811,-91.04273879,0.09805856
139.18820267,-39.61039334,175.34421183,158.82417516,25.87338799,114.16306564
-113.63004873,1.59839148,-175.12340095,-9.82526803,-9.43276018,8.33530406
-0.77792504,-0.43828556,1.17381305

>  <COMPND>
    UNNAMED

>  <MASTER>
        0    0    0    0    0    0    0    0  109    0  109    0

>  <Name>
FB1.pdb

>  <RI>
0

>  <Rbt.Current_Directory>
/home/fc/tossine/FB1_39/p3/3_clust03

>  <Rbt.Executable>
rbdock/0.1.0

>  <Rbt.Library>
librxdock.so/0.1.0

>  <Rbt.Parameter_File>
/cluster/rxdock/data/scripts/dock.prm

>  <Rbt.Receptor>
rx_2.prm

>  <SCORE>
46.9469

>  <SCORE.INTER>
11.2854

>  <SCORE.INTER.CONST>
1

>  <SCORE.INTER.POLAR>
-0.849851

>  <SCORE.INTER.REPUL>
1.03405

>  <SCORE.INTER.ROT>
32

>  <SCORE.INTER.VDW>
-28.3953

>  <SCORE.INTER.norm>
0.225709

>  <SCORE.INTRA>
34.9082

>  <SCORE.INTRA.DIHEDRAL>
63.3725

>  <SCORE.INTRA.DIHEDRAL.0>
47.3121

>  <SCORE.INTRA.POLAR>
0.444072

>  <SCORE.INTRA.POLAR.0>
-1.47808

>  <SCORE.INTRA.REPUL>
0.01601

>  <SCORE.INTRA.REPUL.0>
0

>  <SCORE.INTRA.VDW>
1.63203

>  <SCORE.INTRA.VDW.0>
-2.78316

>  <SCORE.INTRA.norm>
0.698163

>  <SCORE.RESTR>
0.753331

>  <SCORE.RESTR.CAVITY>
0.753331

>  <SCORE.RESTR.norm>
0.0150666

>  <SCORE.SYSTEM>
0

>  <SCORE.SYSTEM.CONST>
0

>  <SCORE.SYSTEM.DIHEDRAL>
0

>  <SCORE.SYSTEM.norm>
0

>  <SCORE.heavy>
50

>  <SCORE.norm>
0.938938

$$$$
