FB1.pdb
  RxDock  09132004293D
librxdock.so/0.1.0
 59 58  0  0  0  0  0  0  0  0999 V2000
   -7.2076    9.8607  -10.6414 C   0  0  0  0  0  0
   -7.0337    8.3454  -10.5703 C   0  0  0  0  0  0
   -6.1407    7.8208  -11.7068 C   0  0  0  0  0  0
   -4.6725    8.3058  -11.6125 C   0  0  0  0  0  0
   -3.7419    7.8288  -12.7817 C   0  0  0  0  0  0
   -2.4820    8.7250  -12.7958 C   0  0  0  0  0  0
   -3.3462    6.2949  -12.6906 C   0  0  0  0  0  0
   -2.2156    5.8990  -11.6270 C   0  0  0  0  0  0
   -0.6543    5.8554  -11.9247 C   0  0  0  0  0  0
   -0.0969    4.4247  -12.5278 C   0  0  0  0  0  0
    1.3516    4.6177  -12.9737 C   0  0  0  0  0  0
   -0.1933    3.1655  -11.5532 C   0  0  0  0  0  0
   -0.4843    1.6533  -12.0501 C   0  0  0  0  0  0
   -1.9188    1.0224  -12.0262 C   0  0  0  0  0  0
   -2.1003   -0.4214  -11.3692 C   0  0  0  0  0  0
   -1.6357   -0.7972   -9.9072 C   0  0  0  0  0  0
   -0.3507   -1.6434   -9.7071 C   0  0  0  0  0  0
   -0.4128   -3.1449  -10.1876 C   0  0  0  0  0  0
   -1.6156   -3.9641   -9.7032 C   0  0  0  0  0  0
   -3.0317   -3.3314   -9.8150 C   0  0  0  0  0  0
   -4.1151   -3.9731  -10.7315 C   0  0  0  0  0  0
   -5.3479   -3.1272  -11.0178 C   0  0  0  0  0  0
   -3.5156   -4.4721  -11.9837 N   0  0  0  0  0  0
   -3.5780   -3.4135   -8.4738 O   0  0  0  0  0  0
   -0.4051   -3.1512  -11.6192 O   0  0  0  0  0  0
   -0.0900    1.6362  -13.4324 O   0  0  0  0  0  0
   -2.3459    6.8394  -10.5264 O   0  0  0  0  0  0
   -1.5331    6.6509   -9.4545 C   0  0  0  0  0  0
   -0.9988    5.6070   -9.1315 O   0  0  0  0  0  0
   -1.3170    7.9784   -8.7817 C   0  0  0  0  0  0
   -1.0168    9.1055   -9.7826 C   0  0  0  0  0  0
   -1.4481   10.4834   -9.2642 C   0  0  0  0  0  0
   -2.9231   10.7158   -9.4960 C   0  0  0  0  0  0
   -3.7524   10.7616   -8.5939 O   0  0  0  0  0  0
   -3.2429   10.8703  -10.7893 O   0  0  0  0  0  0
    0.5018    9.0794  -10.0043 C   0  0  0  0  0  0
    1.0130    8.9057  -11.1002 O   0  0  0  0  0  0
    1.2265    9.2141   -8.8851 O   0  0  0  0  0  0
   -4.5502    5.4379  -12.5646 O   0  0  0  0  0  0
   -4.3946    4.0649  -12.6582 C   0  0  0  0  0  0
   -3.3215    3.4939  -12.8023 O   0  0  0  0  0  0
   -5.7313    3.3179  -12.5601 C   0  0  0  0  0  0
   -5.6828    1.9343  -11.8405 C   0  0  0  0  0  0
   -5.7379    1.9168  -10.3020 C   0  0  0  0  0  0
   -4.6849    1.0407   -9.6872 C   0  0  0  0  0  0
   -4.7755   -0.1663   -9.5093 O   0  0  0  0  0  0
   -3.5799    1.7242   -9.3523 O   0  0  0  0  0  0
   -6.7161    0.9180  -12.3423 C   0  0  0  0  0  0
   -7.6583    1.2265  -13.0450 O   0  0  0  0  0  0
   -6.4542   -0.3712  -12.0412 O   0  0  0  0  0  0
   -2.6807   -5.0129  -11.7621 H   0  0  0  0  0  0
   -3.1763   -3.6734  -12.5244 H   0  0  0  0  0  0
   -2.9868   -2.8495   -7.9318 H   0  0  0  0  0  0
   -0.4568   -4.0772  -11.9197 H   0  0  0  0  0  0
   -0.0444    0.7092  -13.7207 H   0  0  0  0  0  0
   -4.1978   10.9549  -10.9751 H   0  0  0  0  0  0
    2.2055    9.2057   -9.0270 H   0  0  0  0  0  0
   -3.7376    2.6572   -9.6092 H   0  0  0  0  0  0
   -5.6421   -0.5211  -11.5082 H   0  0  0  0  0  0
  1  2  1  0  0  0
  2  3  1  0  0  0
  3  4  1  0  0  0
  4  5  1  0  0  0
  5  6  1  0  0  0
  5  7  1  0  0  0
  7  8  1  0  0  0
  7 39  1  0  0  0
  8  9  1  0  0  0
  8 27  1  0  0  0
  9 10  1  0  0  0
 10 11  1  0  0  0
 10 12  1  0  0  0
 12 13  1  0  0  0
 13 14  1  0  0  0
 13 26  1  0  0  0
 14 15  1  0  0  0
 15 16  1  0  0  0
 16 17  1  0  0  0
 17 18  1  0  0  0
 18 19  1  0  0  0
 18 25  1  0  0  0
 19 20  1  0  0  0
 20 21  1  0  0  0
 20 24  1  0  0  0
 21 22  1  0  0  0
 21 23  1  0  0  0
 23 51  1  0  0  0
 23 52  1  0  0  0
 24 53  1  0  0  0
 25 54  1  0  0  0
 26 55  1  0  0  0
 27 28  1  0  0  0
 28 29  2  0  0  0
 28 30  1  0  0  0
 30 31  1  0  0  0
 31 32  1  0  0  0
 31 36  1  0  0  0
 32 33  1  0  0  0
 33 34  2  0  0  0
 33 35  1  0  0  0
 35 56  1  0  0  0
 36 37  2  0  0  0
 36 38  1  0  0  0
 38 57  1  0  0  0
 39 40  1  0  0  0
 40 41  2  0  0  0
 40 42  1  0  0  0
 42 43  1  0  0  0
 43 44  1  0  0  0
 43 48  1  0  0  0
 44 45  1  0  0  0
 45 46  2  0  0  0
 45 47  1  0  0  0
 47 58  1  0  0  0
 48 49  2  0  0  0
 48 50  1  0  0  0
 50 59  1  0  0  0
M  END
>  <AUTHOR>
    GENERATED BY OPEN BABEL 2.4.1

>  <CHROM.1>
65.92706502,-178.08145789,162.44354213,-77.14790732,-89.99488185,171.26977842
-87.36996562,176.22774313,170.70370468,145.82329622,-96.71381298,-130.72612703
166.75173986,54.15323884,-104.06926229,-68.32706905,-49.99346167,46.88492297
-179.17362902,116.53875057,-166.81669107,63.44613460,47.53493904,-22.81794383
-44.90455428,152.50006174,-82.23140964,120.72456753,110.54523520,175.58740876
-179.47471824,2.12495785,-145.45926102,82.53107189,-132.07611899,-13.69719323
-84.72819137,-0.53489416,1.75942522,-2.87654020,3.66109482,-10.99602637,1.51372691
-0.12666332,0.01779614

>  <COMPND>
    UNNAMED

>  <MASTER>
        0    0    0    0    0    0    0    0  109    0  109    0

>  <Name>
FB1.pdb

>  <RI>
0

>  <Rbt.Current_Directory>
/home/fc/tossine/FB1_39/p3/3_clust03

>  <Rbt.Executable>
rbdock/0.1.0

>  <Rbt.Library>
librxdock.so/0.1.0

>  <Rbt.Parameter_File>
/cluster/rxdock/data/scripts/dock.prm

>  <Rbt.Receptor>
rx_0.prm

>  <SCORE>
11.3547

>  <SCORE.INTER>
3.08082

>  <SCORE.INTER.CONST>
1

>  <SCORE.INTER.POLAR>
-2.31898

>  <SCORE.INTER.REPUL>
0.218563

>  <SCORE.INTER.ROT>
32

>  <SCORE.INTER.VDW>
-27.5275

>  <SCORE.INTER.norm>
0.0616164

>  <SCORE.INTRA>
8.16035

>  <SCORE.INTRA.DIHEDRAL>
12.4401

>  <SCORE.INTRA.DIHEDRAL.0>
47.3121

>  <SCORE.INTRA.POLAR>
1.47808

>  <SCORE.INTRA.POLAR.0>
-1.47808

>  <SCORE.INTRA.REPUL>
0

>  <SCORE.INTRA.REPUL.0>
0

>  <SCORE.INTRA.VDW>
-3.08518

>  <SCORE.INTRA.VDW.0>
-2.78316

>  <SCORE.INTRA.norm>
0.163207

>  <SCORE.RESTR>
0.113534

>  <SCORE.RESTR.CAVITY>
0.113534

>  <SCORE.RESTR.norm>
0.00227067

>  <SCORE.SYSTEM>
0

>  <SCORE.SYSTEM.CONST>
0

>  <SCORE.SYSTEM.DIHEDRAL>
0

>  <SCORE.SYSTEM.norm>
0

>  <SCORE.heavy>
50

>  <SCORE.norm>
0.227094

$$$$
