FB1.pdb
  RxDock  10072017503D
librxdock.so/0.1.0
 59 58  0  0  0  0  0  0  0  0999 V2000
   -8.1719    0.7583  -11.0397 C   0  0  0  0  0  0
   -7.3727   -0.0600  -12.0511 C   0  0  0  0  0  0
   -5.8728   -0.0754  -11.7130 C   0  0  0  0  0  0
   -4.9655   -0.3377  -12.9409 C   0  0  0  0  0  0
   -3.4537    0.0269  -12.7364 C   0  0  0  0  0  0
   -2.7652    0.0373  -14.1207 C   0  0  0  0  0  0
   -3.2311    1.4047  -11.9814 C   0  0  0  0  0  0
   -1.7178    1.9004  -11.8070 C   0  0  0  0  0  0
   -1.2202    2.9594  -10.7304 C   0  0  0  0  0  0
   -0.7508    4.4158  -11.3469 C   0  0  0  0  0  0
   -0.4195    5.3504  -10.1846 C   0  0  0  0  0  0
    0.4703    4.3844  -12.3729 C   0  0  0  0  0  0
    0.9020    5.6322  -13.3084 C   0  0  0  0  0  0
    1.0070    7.0965  -12.7600 C   0  0  0  0  0  0
    1.8305    8.1669  -13.6117 C   0  0  0  0  0  0
    2.0966    9.6541  -13.1512 C   0  0  0  0  0  0
    1.0925   10.7685  -13.5477 C   0  0  0  0  0  0
   -0.4084   10.5537  -13.1116 C   0  0  0  0  0  0
   -0.6492   10.2655  -11.6245 C   0  0  0  0  0  0
   -2.1107   10.0365  -11.1450 C   0  0  0  0  0  0
   -3.0190   11.2448  -10.7700 C   0  0  0  0  0  0
   -2.5105   12.1564   -9.6620 C   0  0  0  0  0  0
   -3.3794   12.0236  -11.9700 N   0  0  0  0  0  0
   -2.7722    9.4047  -12.2706 O   0  0  0  0  0  0
   -1.1456   11.7267  -13.4727 O   0  0  0  0  0  0
    2.2246    5.3083  -13.7692 O   0  0  0  0  0  0
   -0.9296    0.7106  -11.5323 O   0  0  0  0  0  0
   -1.2856   -0.0289  -10.4499 C   0  0  0  0  0  0
   -2.3875   -0.0682   -9.9363 O   0  0  0  0  0  0
   -0.1116   -0.8774  -10.0461 C   0  0  0  0  0  0
   -0.3416   -2.3723  -10.3201 C   0  0  0  0  0  0
   -1.5172   -2.9438   -9.5173 C   0  0  0  0  0  0
   -1.6448   -4.4352   -9.7242 C   0  0  0  0  0  0
   -1.3572   -5.2657   -8.8690 O   0  0  0  0  0  0
   -2.1067   -4.7686  -10.9384 O   0  0  0  0  0  0
   -0.6275   -2.4864  -11.8238 C   0  0  0  0  0  0
   -1.1791   -1.6060  -12.4665 O   0  0  0  0  0  0
   -0.2658   -3.6563  -12.3683 O   0  0  0  0  0  0
   -4.1017    2.4678  -12.5397 O   0  0  0  0  0  0
   -4.5330    3.4775  -11.6954 C   0  0  0  0  0  0
   -4.1057    3.6695  -10.5645 O   0  0  0  0  0  0
   -5.6221    4.3484  -12.3355 C   0  0  0  0  0  0
   -5.8734    5.7289  -11.6532 C   0  0  0  0  0  0
   -5.0388    6.9326  -12.1273 C   0  0  0  0  0  0
   -3.5626    6.6579  -12.1311 C   0  0  0  0  0  0
   -2.8141    6.7664  -11.1696 O   0  0  0  0  0  0
   -3.1202    6.2470  -13.3293 O   0  0  0  0  0  0
   -7.3410    6.1740  -11.6362 C   0  0  0  0  0  0
   -8.1140    5.9352  -12.5429 O   0  0  0  0  0  0
   -7.7552    6.7610  -10.4937 O   0  0  0  0  0  0
   -4.2867   11.7099  -12.3118 H   0  0  0  0  0  0
   -2.7219   11.7934  -12.7184 H   0  0  0  0  0  0
   -3.6931    9.2608  -11.9665 H   0  0  0  0  0  0
   -1.1638   11.7870  -14.4456 H   0  0  0  0  0  0
    2.1756    4.4706  -14.2594 H   0  0  0  0  0  0
   -2.1090   -5.7251  -11.1351 H   0  0  0  0  0  0
   -0.5301   -3.7670  -13.3152 H   0  0  0  0  0  0
   -3.8851    6.2893  -13.9413 H   0  0  0  0  0  0
   -7.0675    6.8569   -9.7979 H   0  0  0  0  0  0
  1  2  1  0  0  0
  2  3  1  0  0  0
  3  4  1  0  0  0
  4  5  1  0  0  0
  5  6  1  0  0  0
  5  7  1  0  0  0
  7  8  1  0  0  0
  7 39  1  0  0  0
  8  9  1  0  0  0
  8 27  1  0  0  0
  9 10  1  0  0  0
 10 11  1  0  0  0
 10 12  1  0  0  0
 12 13  1  0  0  0
 13 14  1  0  0  0
 13 26  1  0  0  0
 14 15  1  0  0  0
 15 16  1  0  0  0
 16 17  1  0  0  0
 17 18  1  0  0  0
 18 19  1  0  0  0
 18 25  1  0  0  0
 19 20  1  0  0  0
 20 21  1  0  0  0
 20 24  1  0  0  0
 21 22  1  0  0  0
 21 23  1  0  0  0
 23 51  1  0  0  0
 23 52  1  0  0  0
 24 53  1  0  0  0
 25 54  1  0  0  0
 26 55  1  0  0  0
 27 28  1  0  0  0
 28 29  2  0  0  0
 28 30  1  0  0  0
 30 31  1  0  0  0
 31 32  1  0  0  0
 31 36  1  0  0  0
 32 33  1  0  0  0
 33 34  2  0  0  0
 33 35  1  0  0  0
 35 56  1  0  0  0
 36 37  2  0  0  0
 36 38  1  0  0  0
 38 57  1  0  0  0
 39 40  1  0  0  0
 40 41  2  0  0  0
 40 42  1  0  0  0
 42 43  1  0  0  0
 43 44  1  0  0  0
 43 48  1  0  0  0
 44 45  1  0  0  0
 45 46  2  0  0  0
 45 47  1  0  0  0
 47 58  1  0  0  0
 48 49  2  0  0  0
 48 50  1  0  0  0
 50 59  1  0  0  0
M  END
>  <AUTHOR>
    GENERATED BY OPEN BABEL 2.4.1

>  <CHROM.1>
-155.42718592,163.76862362,-166.46480762,-176.41296690,-159.66781200,149.61661375
-110.32308655,-57.76732029,175.20410064,167.48648584,45.15847114,162.47073954
59.52574459,-176.27491975,-90.54025286,56.61463420,53.30146720,-179.59337375
66.33148415,-85.33309682,-58.42877154,179.98184605,95.38830982,24.50866907
-110.38264528,-62.40588632,-175.39722550,-31.12875750,107.84124987,173.71487543
174.20592341,10.64821512,-162.96381876,88.80760678,-51.58573097,-35.24102795
-84.71840766,3.96754376,1.09155704,-2.45157618,3.85832279,-11.76440525,1.61005701
-0.08353345,3.05114190

>  <COMPND>
    UNNAMED

>  <MASTER>
        0    0    0    0    0    0    0    0  109    0  109    0

>  <Name>
FB1.pdb

>  <RI>
0

>  <Rbt.Current_Directory>
/home/fc/tossine/FB1_39/p3/3_clust03

>  <Rbt.Executable>
rbdock/0.1.0

>  <Rbt.Library>
librxdock.so/0.1.0

>  <Rbt.Parameter_File>
/cluster/rxdock/data/scripts/dock.prm

>  <Rbt.Receptor>
rx_3.prm

>  <SCORE>
9.76528

>  <SCORE.INTER>
5.68402

>  <SCORE.INTER.CONST>
1

>  <SCORE.INTER.POLAR>
-3.58214

>  <SCORE.INTER.REPUL>
2.09566

>  <SCORE.INTER.ROT>
32

>  <SCORE.INTER.VDW>
-30.015

>  <SCORE.INTER.norm>
0.11368

>  <SCORE.INTRA>
0.285208

>  <SCORE.INTRA.DIHEDRAL>
-1.06987

>  <SCORE.INTRA.DIHEDRAL.0>
47.3121

>  <SCORE.INTRA.POLAR>
0.478077

>  <SCORE.INTRA.POLAR.0>
-1.47808

>  <SCORE.INTRA.REPUL>
0

>  <SCORE.INTRA.REPUL.0>
0

>  <SCORE.INTRA.VDW>
-0.805318

>  <SCORE.INTRA.VDW.0>
-2.78316

>  <SCORE.INTRA.norm>
0.00570417

>  <SCORE.RESTR>
3.79605

>  <SCORE.RESTR.CAVITY>
3.79605

>  <SCORE.RESTR.norm>
0.075921

>  <SCORE.SYSTEM>
0

>  <SCORE.SYSTEM.CONST>
0

>  <SCORE.SYSTEM.DIHEDRAL>
0

>  <SCORE.SYSTEM.norm>
0

>  <SCORE.heavy>
50

>  <SCORE.norm>
0.195306

$$$$
