FB1.pdb
  RxDock  10072017043D
librxdock.so/0.1.0
 59 58  0  0  0  0  0  0  0  0999 V2000
   -3.0181   11.5913  -10.4930 C   0  0  0  0  0  0
   -3.8505   10.3114  -10.4760 C   0  0  0  0  0  0
   -3.0255    9.0897  -10.9132 C   0  0  0  0  0  0
   -2.2886    8.3914   -9.7431 C   0  0  0  0  0  0
   -1.4309    7.1435  -10.1522 C   0  0  0  0  0  0
   -0.9872    6.4154   -8.8624 C   0  0  0  0  0  0
   -2.1855    6.1505  -11.1333 C   0  0  0  0  0  0
   -1.2812    5.1113  -11.9508 C   0  0  0  0  0  0
    0.1827    5.4049  -12.4977 C   0  0  0  0  0  0
    0.2914    6.6534  -13.5704 C   0  0  0  0  0  0
   -0.3075    7.9016  -12.9242 C   0  0  0  0  0  0
    1.7524    6.9838  -14.1191 C   0  0  0  0  0  0
    2.6377    5.9663  -15.0132 C   0  0  0  0  0  0
    3.9331    6.4212  -15.7688 C   0  0  0  0  0  0
    4.9031    7.4648  -15.0483 C   0  0  0  0  0  0
    5.8223    7.1166  -13.8121 C   0  0  0  0  0  0
    6.9661    6.0813  -13.9774 C   0  0  0  0  0  0
    8.4256    6.6608  -14.1300 C   0  0  0  0  0  0
    8.5410    8.1843  -14.2655 C   0  0  0  0  0  0
    9.9136    8.8496  -13.9629 C   0  0  0  0  0  0
   10.4251    8.9775  -12.4975 C   0  0  0  0  0  0
   11.8378    9.5154  -12.3176 C   0  0  0  0  0  0
    9.4645    9.7310  -11.6694 N   0  0  0  0  0  0
   10.8865    8.0039  -14.6277 O   0  0  0  0  0  0
    9.1867    6.2467  -12.9903 O   0  0  0  0  0  0
    3.0763    4.9521  -14.0936 O   0  0  0  0  0  0
   -1.1181    3.9507  -11.0913 O   0  0  0  0  0  0
   -1.2622    2.7299  -11.6693 C   0  0  0  0  0  0
   -1.1038    2.4681  -12.8465 O   0  0  0  0  0  0
   -1.5538    1.7238  -10.5903 C   0  0  0  0  0  0
   -0.5743    0.5394  -10.6074 C   0  0  0  0  0  0
   -0.4679   -0.1561   -9.2441 C   0  0  0  0  0  0
   -1.7745   -0.8130   -8.8638 C   0  0  0  0  0  0
   -1.9381   -2.0278   -8.8292 O   0  0  0  0  0  0
   -2.7452    0.0625   -8.5638 O   0  0  0  0  0  0
   -1.1164   -0.4413  -11.6564 C   0  0  0  0  0  0
   -2.1817   -0.2803  -12.2322 O   0  0  0  0  0  0
   -0.3463   -1.5198  -11.8554 O   0  0  0  0  0  0
   -3.3190    5.4811  -10.4500 O   0  0  0  0  0  0
   -4.4064    5.0852  -11.2109 C   0  0  0  0  0  0
   -4.4845    5.2013  -12.4270 O   0  0  0  0  0  0
   -5.5248    4.4736  -10.3570 C   0  0  0  0  0  0
   -6.2211    3.2120  -10.9555 C   0  0  0  0  0  0
   -6.0175    2.9152  -12.4525 C   0  0  0  0  0  0
   -7.3087    2.7107  -13.1909 C   0  0  0  0  0  0
   -8.1009    3.5901  -13.5002 O   0  0  0  0  0  0
   -7.5181    1.4249  -13.5122 O   0  0  0  0  0  0
   -5.9450    1.9097  -10.1940 C   0  0  0  0  0  0
   -4.8540    1.3747  -10.1746 O   0  0  0  0  0  0
   -6.9709    1.4444   -9.4509 O   0  0  0  0  0  0
    9.7292   10.7150  -11.6626 H   0  0  0  0  0  0
    9.5604    9.4257  -10.6983 H   0  0  0  0  0  0
   10.7672    7.1213  -14.2178 H   0  0  0  0  0  0
    8.6862    6.4835  -12.1878 H   0  0  0  0  0  0
    2.4904    4.1830  -14.1922 H   0  0  0  0  0  0
   -3.6231   -0.3304   -8.3952 H   0  0  0  0  0  0
    0.5351   -1.4826  -11.4074 H   0  0  0  0  0  0
   -6.7069    0.9359  -13.2587 H   0  0  0  0  0  0
   -6.7585    0.6752   -8.8770 H   0  0  0  0  0  0
  1  2  1  0  0  0
  2  3  1  0  0  0
  3  4  1  0  0  0
  4  5  1  0  0  0
  5  6  1  0  0  0
  5  7  1  0  0  0
  7  8  1  0  0  0
  7 39  1  0  0  0
  8  9  1  0  0  0
  8 27  1  0  0  0
  9 10  1  0  0  0
 10 11  1  0  0  0
 10 12  1  0  0  0
 12 13  1  0  0  0
 13 14  1  0  0  0
 13 26  1  0  0  0
 14 15  1  0  0  0
 15 16  1  0  0  0
 16 17  1  0  0  0
 17 18  1  0  0  0
 18 19  1  0  0  0
 18 25  1  0  0  0
 19 20  1  0  0  0
 20 21  1  0  0  0
 20 24  1  0  0  0
 21 22  1  0  0  0
 21 23  1  0  0  0
 23 51  1  0  0  0
 23 52  1  0  0  0
 24 53  1  0  0  0
 25 54  1  0  0  0
 26 55  1  0  0  0
 27 28  1  0  0  0
 28 29  2  0  0  0
 28 30  1  0  0  0
 30 31  1  0  0  0
 31 32  1  0  0  0
 31 36  1  0  0  0
 32 33  1  0  0  0
 33 34  2  0  0  0
 33 35  1  0  0  0
 35 56  1  0  0  0
 36 37  2  0  0  0
 36 38  1  0  0  0
 38 57  1  0  0  0
 39 40  1  0  0  0
 40 41  2  0  0  0
 40 42  1  0  0  0
 42 43  1  0  0  0
 43 44  1  0  0  0
 43 48  1  0  0  0
 44 45  1  0  0  0
 45 46  2  0  0  0
 45 47  1  0  0  0
 47 58  1  0  0  0
 48 49  2  0  0  0
 48 50  1  0  0  0
 50 59  1  0  0  0
M  END
>  <AUTHOR>
    GENERATED BY OPEN BABEL 2.4.1

>  <CHROM.1>
88.60381842,-179.74590149,-169.50624961,161.93592941,-34.42305207,151.40320377
-60.38721005,135.80706521,55.19939131,63.82511703,167.50860769,38.41115557
99.04071013,71.80796834,64.15372024,101.96083329,-6.99770421,160.66082641
-51.58390068,-73.31069533,174.06278377,-59.51569111,-93.51534979,24.35710892
-125.45803873,156.19384929,65.49344866,-5.34461927,109.97331142,174.54670352
-8.83547475,2.90715835,-138.81981897,-15.95351562,-127.88469433,-68.75449299
73.98927078,-5.89913749,-172.67059286,0.07748529,4.76926522,-11.93121239
2.72417932,-0.14926981,3.04188351

>  <COMPND>
    UNNAMED

>  <MASTER>
        0    0    0    0    0    0    0    0  109    0  109    0

>  <Name>
FB1.pdb

>  <RI>
0

>  <Rbt.Current_Directory>
/home/fc/tossine/FB1_39/p3/3_clust03

>  <Rbt.Executable>
rbdock/0.1.0

>  <Rbt.Library>
librxdock.so/0.1.0

>  <Rbt.Parameter_File>
/cluster/rxdock/data/scripts/dock.prm

>  <Rbt.Receptor>
rx_2.prm

>  <SCORE>
20.6975

>  <SCORE.INTER>
3.38289

>  <SCORE.INTER.CONST>
1

>  <SCORE.INTER.POLAR>
-4.24675

>  <SCORE.INTER.REPUL>
0.931023

>  <SCORE.INTER.ROT>
32

>  <SCORE.INTER.VDW>
-24.2333

>  <SCORE.INTER.norm>
0.0676578

>  <SCORE.INTRA>
15.3432

>  <SCORE.INTRA.DIHEDRAL>
19.4945

>  <SCORE.INTRA.DIHEDRAL.0>
47.3121

>  <SCORE.INTRA.POLAR>
1.05204

>  <SCORE.INTRA.POLAR.0>
-1.47808

>  <SCORE.INTRA.REPUL>
0

>  <SCORE.INTRA.REPUL.0>
0

>  <SCORE.INTRA.VDW>
2.01904

>  <SCORE.INTRA.VDW.0>
-2.78316

>  <SCORE.INTRA.norm>
0.306864

>  <SCORE.RESTR>
1.97145

>  <SCORE.RESTR.CAVITY>
1.97145

>  <SCORE.RESTR.norm>
0.039429

>  <SCORE.SYSTEM>
0

>  <SCORE.SYSTEM.CONST>
0

>  <SCORE.SYSTEM.DIHEDRAL>
0

>  <SCORE.SYSTEM.norm>
0

>  <SCORE.heavy>
50

>  <SCORE.norm>
0.413951

$$$$
