FB1.pdb
  RxDock  10072016033D
librxdock.so/0.1.0
 59 58  0  0  0  0  0  0  0  0999 V2000
   -2.0860   10.8814  -11.7056 C   0  0  0  0  0  0
   -2.0098    9.4575  -12.2514 C   0  0  0  0  0  0
   -3.3469    8.7149  -12.0935 C   0  0  0  0  0  0
   -3.2425    7.1920  -12.3574 C   0  0  0  0  0  0
   -2.0565    6.4733  -11.6243 C   0  0  0  0  0  0
   -2.2552    6.6404  -10.1001 C   0  0  0  0  0  0
   -1.9069    4.9421  -12.0126 C   0  0  0  0  0  0
   -3.1302    3.9766  -11.6421 C   0  0  0  0  0  0
   -3.3767    3.3181  -10.2159 C   0  0  0  0  0  0
   -2.6145    1.8759   -9.9702 C   0  0  0  0  0  0
   -3.1725    1.2431   -8.6965 C   0  0  0  0  0  0
   -2.6938    0.8256  -11.1683 C   0  0  0  0  0  0
   -1.4772   -0.1486  -11.6034 C   0  0  0  0  0  0
   -1.7178   -1.5635  -12.2329 C   0  0  0  0  0  0
   -0.6099   -2.6909  -12.0080 C   0  0  0  0  0  0
   -0.2983   -3.3651  -10.6141 C   0  0  0  0  0  0
   -1.3417   -4.3203   -9.9766 C   0  0  0  0  0  0
   -0.8161   -5.2841   -8.8434 C   0  0  0  0  0  0
   -1.7782   -6.3900   -8.3918 C   0  0  0  0  0  0
   -2.0261   -7.5886   -9.3510 C   0  0  0  0  0  0
   -0.8546   -8.5291   -9.7614 C   0  0  0  0  0  0
    0.0520   -9.0120   -8.6379 C   0  0  0  0  0  0
   -1.3483   -9.6635  -10.5651 N   0  0  0  0  0  0
   -2.9605   -8.4407   -8.6407 O   0  0  0  0  0  0
    0.3925   -5.8946   -9.3082 O   0  0  0  0  0  0
   -0.7528    0.5884  -12.6026 O   0  0  0  0  0  0
   -4.3412    4.7373  -11.9012 O   0  0  0  0  0  0
   -4.9079    4.5960  -13.1277 C   0  0  0  0  0  0
   -4.3560    4.1900  -14.1327 O   0  0  0  0  0  0
   -6.3699    4.9303  -13.0179 C   0  0  0  0  0  0
   -7.1694    3.8461  -12.2777 C   0  0  0  0  0  0
   -8.0572    4.4239  -11.1681 C   0  0  0  0  0  0
   -7.2254    4.9303  -10.0127 C   0  0  0  0  0  0
   -7.1524    6.1129   -9.6965 O   0  0  0  0  0  0
   -6.5709    3.9590   -9.3592 O   0  0  0  0  0  0
   -8.0379    3.1616  -13.3423 C   0  0  0  0  0  0
   -7.9423    1.9757  -13.6194 O   0  0  0  0  0  0
   -8.8801    3.9848  -13.9818 O   0  0  0  0  0  0
   -1.4869    4.7868  -13.4266 O   0  0  0  0  0  0
   -0.1450    4.9350  -13.7356 C   0  0  0  0  0  0
    0.2953    5.0991  -14.8659 O   0  0  0  0  0  0
    0.7510    4.8719  -12.4916 C   0  0  0  0  0  0
    2.0236    5.7739  -12.5270 C   0  0  0  0  0  0
    2.7621    5.9306  -13.8688 C   0  0  0  0  0  0
    4.2323    6.1865  -13.7029 C   0  0  0  0  0  0
    5.1205    5.3555  -13.8343 O   0  0  0  0  0  0
    4.4997    7.4667  -13.4030 O   0  0  0  0  0  0
    1.8233    7.1821  -11.9532 C   0  0  0  0  0  0
    0.9790    7.9506  -12.3692 O   0  0  0  0  0  0
    2.5785    7.4814  -10.8755 O   0  0  0  0  0  0
   -1.5798  -10.4374   -9.9437 H   0  0  0  0  0  0
   -0.5812  -10.0115  -11.1447 H   0  0  0  0  0  0
   -3.8004   -7.9348   -8.6349 H   0  0  0  0  0  0
    0.9413   -6.1123   -8.5323 H   0  0  0  0  0  0
   -1.2416    0.5203  -13.4398 H   0  0  0  0  0  0
   -6.5063    3.1080   -9.8338 H   0  0  0  0  0  0
   -8.4800    4.8458  -14.2598 H   0  0  0  0  0  0
    3.6368    7.9053  -13.2471 H   0  0  0  0  0  0
    2.4665    8.3928  -10.5246 H   0  0  0  0  0  0
  1  2  1  0  0  0
  2  3  1  0  0  0
  3  4  1  0  0  0
  4  5  1  0  0  0
  5  6  1  0  0  0
  5  7  1  0  0  0
  7  8  1  0  0  0
  7 39  1  0  0  0
  8  9  1  0  0  0
  8 27  1  0  0  0
  9 10  1  0  0  0
 10 11  1  0  0  0
 10 12  1  0  0  0
 12 13  1  0  0  0
 13 14  1  0  0  0
 13 26  1  0  0  0
 14 15  1  0  0  0
 15 16  1  0  0  0
 16 17  1  0  0  0
 17 18  1  0  0  0
 18 19  1  0  0  0
 18 25  1  0  0  0
 19 20  1  0  0  0
 20 21  1  0  0  0
 20 24  1  0  0  0
 21 22  1  0  0  0
 21 23  1  0  0  0
 23 51  1  0  0  0
 23 52  1  0  0  0
 24 53  1  0  0  0
 25 54  1  0  0  0
 26 55  1  0  0  0
 27 28  1  0  0  0
 28 29  2  0  0  0
 28 30  1  0  0  0
 30 31  1  0  0  0
 31 32  1  0  0  0
 31 36  1  0  0  0
 32 33  1  0  0  0
 33 34  2  0  0  0
 33 35  1  0  0  0
 35 56  1  0  0  0
 36 37  2  0  0  0
 36 38  1  0  0  0
 38 57  1  0  0  0
 39 40  1  0  0  0
 40 41  2  0  0  0
 40 42  1  0  0  0
 42 43  1  0  0  0
 43 44  1  0  0  0
 43 48  1  0  0  0
 44 45  1  0  0  0
 45 46  2  0  0  0
 45 47  1  0  0  0
 47 58  1  0  0  0
 48 49  2  0  0  0
 48 50  1  0  0  0
 50 59  1  0  0  0
M  END
>  <AUTHOR>
    GENERATED BY OPEN BABEL 2.4.1

>  <CHROM.1>
-168.05012762,48.00473295,61.15729259,-62.77802149,-82.50047520,80.94740209
-87.25487781,93.04480039,-168.40721374,142.11102596,149.64086646,-151.75892536
-78.45559542,68.53386709,69.55418958,161.94853404,-169.53060750,72.65583251
152.17026216,62.09413940,46.40562178,69.45241609,-90.66659287,-20.24972115
-72.31917268,130.32929316,-70.11486918,118.53512645,113.97423598,16.04534239
44.31886334,-164.61739065,-146.16366485,-37.05210042,-151.05569787,-56.69829118
101.16767869,7.42209135,178.37949004,-2.08777969,2.31679303,-11.57829696
1.58285155,0.07005935,-0.20186490

>  <COMPND>
    UNNAMED

>  <MASTER>
        0    0    0    0    0    0    0    0  109    0  109    0

>  <Name>
FB1.pdb

>  <RI>
0

>  <Rbt.Current_Directory>
/home/fc/tossine/FB1_39/p3/3_clust03

>  <Rbt.Executable>
rbdock/0.1.0

>  <Rbt.Library>
librxdock.so/0.1.0

>  <Rbt.Parameter_File>
/cluster/rxdock/data/scripts/dock.prm

>  <Rbt.Receptor>
rx_1.prm

>  <SCORE>
36.6864

>  <SCORE.INTER>
10.7488

>  <SCORE.INTER.CONST>
1

>  <SCORE.INTER.POLAR>
-1.70735

>  <SCORE.INTER.REPUL>
0.0183963

>  <SCORE.INTER.ROT>
32

>  <SCORE.INTER.VDW>
-20.9382

>  <SCORE.INTER.norm>
0.214976

>  <SCORE.INTRA>
19.6996

>  <SCORE.INTRA.DIHEDRAL>
23.8479

>  <SCORE.INTRA.DIHEDRAL.0>
47.3121

>  <SCORE.INTRA.POLAR>
1.47808

>  <SCORE.INTRA.POLAR.0>
-1.47808

>  <SCORE.INTRA.REPUL>
0

>  <SCORE.INTRA.REPUL.0>
0

>  <SCORE.INTRA.VDW>
2.75016

>  <SCORE.INTRA.VDW.0>
-2.78316

>  <SCORE.INTRA.norm>
0.393992

>  <SCORE.RESTR>
6.23801

>  <SCORE.RESTR.CAVITY>
6.23801

>  <SCORE.RESTR.norm>
0.12476

>  <SCORE.SYSTEM>
0

>  <SCORE.SYSTEM.CONST>
0

>  <SCORE.SYSTEM.DIHEDRAL>
0

>  <SCORE.SYSTEM.norm>
0

>  <SCORE.heavy>
50

>  <SCORE.norm>
0.733728

$$$$
