FB1.pdb
  RxDock  10072017473D
librxdock.so/0.1.0
 59 58  0  0  0  0  0  0  0  0999 V2000
    4.1176    6.0183  -15.4002 C   0  0  0  0  0  0
    2.8357    5.9609  -14.5727 C   0  0  0  0  0  0
    2.0574    7.2855  -14.6359 C   0  0  0  0  0  0
    0.8480    7.3379  -13.6693 C   0  0  0  0  0  0
    1.2048    7.1559  -12.1528 C   0  0  0  0  0  0
    2.2900    8.1927  -11.7815 C   0  0  0  0  0  0
   -0.0494    7.2771  -11.1882 C   0  0  0  0  0  0
   -1.1043    6.0718  -11.2147 C   0  0  0  0  0  0
   -1.0891    4.8207  -10.2336 C   0  0  0  0  0  0
   -0.7322    3.3767  -10.9469 C   0  0  0  0  0  0
   -0.5548    2.3257   -9.8523 C   0  0  0  0  0  0
   -1.7784    2.8499  -12.0298 C   0  0  0  0  0  0
   -2.0180    1.2872  -12.3751 C   0  0  0  0  0  0
   -2.5079    0.2553  -11.3021 C   0  0  0  0  0  0
   -3.0041   -1.1780  -11.8009 C   0  0  0  0  0  0
   -4.5210   -1.5820  -11.9753 C   0  0  0  0  0  0
   -5.3871   -0.8596  -13.0409 C   0  0  0  0  0  0
   -6.2736    0.3424  -12.5327 C   0  0  0  0  0  0
   -7.2861    0.0198  -11.4266 C   0  0  0  0  0  0
   -8.4117    1.0520  -11.1335 C   0  0  0  0  0  0
   -9.5331    1.3187  -12.1807 C   0  0  0  0  0  0
  -10.4781    2.4742  -11.8819 C   0  0  0  0  0  0
   -8.9672    1.4377  -13.5379 N   0  0  0  0  0  0
   -9.1009    0.5241   -9.9715 O   0  0  0  0  0  0
   -5.3957    1.3699  -12.0601 O   0  0  0  0  0  0
   -3.0360    1.2849  -13.3901 O   0  0  0  0  0  0
   -2.4123    6.6722  -11.0119 O   0  0  0  0  0  0
   -3.4843    5.9942  -11.4982 C   0  0  0  0  0  0
   -3.4715    4.8766  -11.9778 O   0  0  0  0  0  0
   -4.7190    6.8170  -11.2530 C   0  0  0  0  0  0
   -5.8638    6.4652  -12.2165 C   0  0  0  0  0  0
   -6.6432    5.2199  -11.7749 C   0  0  0  0  0  0
   -6.9588    4.3281  -12.9532 C   0  0  0  0  0  0
   -8.0910    4.1617  -13.3938 O   0  0  0  0  0  0
   -5.8774    3.7326  -13.4775 O   0  0  0  0  0  0
   -6.7921    7.6875  -12.2327 C   0  0  0  0  0  0
   -7.6652    7.8729  -11.3987 O   0  0  0  0  0  0
   -6.5992    8.5147  -13.2693 O   0  0  0  0  0  0
    0.3687    7.6175   -9.8065 O   0  0  0  0  0  0
    0.4251    8.9532   -9.4452 C   0  0  0  0  0  0
    1.2145    9.4230   -8.6361 O   0  0  0  0  0  0
   -0.6232    9.8010  -10.1777 C   0  0  0  0  0  0
   -0.3706   10.0227  -11.7014 C   0  0  0  0  0  0
   -1.5288    9.7393  -12.6754 C   0  0  0  0  0  0
   -2.8614   10.1872  -12.1482 C   0  0  0  0  0  0
   -3.7786    9.4518  -11.8097 O   0  0  0  0  0  0
   -2.9557   11.5227  -12.0595 O   0  0  0  0  0  0
    0.1952   11.4025  -12.0598 C   0  0  0  0  0  0
    1.1536   11.5533  -12.7916 O   0  0  0  0  0  0
   -0.5079   12.4559  -11.5938 O   0  0  0  0  0  0
   -9.7117    1.6806  -14.1901 H   0  0  0  0  0  0
   -8.6437    0.5156  -13.8389 H   0  0  0  0  0  0
   -8.5331    0.7753   -9.2127 H   0  0  0  0  0  0
   -5.0393    1.8449  -12.8333 H   0  0  0  0  0  0
   -2.6889    1.7575  -14.1651 H   0  0  0  0  0  0
   -5.0302    3.9510  -13.0438 H   0  0  0  0  0  0
   -5.8537    8.2570  -13.8664 H   0  0  0  0  0  0
   -3.8380   11.7178  -11.6790 H   0  0  0  0  0  0
   -0.2776   13.3240  -11.9932 H   0  0  0  0  0  0
  1  2  1  0  0  0
  2  3  1  0  0  0
  3  4  1  0  0  0
  4  5  1  0  0  0
  5  6  1  0  0  0
  5  7  1  0  0  0
  7  8  1  0  0  0
  7 39  1  0  0  0
  8  9  1  0  0  0
  8 27  1  0  0  0
  9 10  1  0  0  0
 10 11  1  0  0  0
 10 12  1  0  0  0
 12 13  1  0  0  0
 13 14  1  0  0  0
 13 26  1  0  0  0
 14 15  1  0  0  0
 15 16  1  0  0  0
 16 17  1  0  0  0
 17 18  1  0  0  0
 18 19  1  0  0  0
 18 25  1  0  0  0
 19 20  1  0  0  0
 20 21  1  0  0  0
 20 24  1  0  0  0
 21 22  1  0  0  0
 21 23  1  0  0  0
 23 51  1  0  0  0
 23 52  1  0  0  0
 24 53  1  0  0  0
 25 54  1  0  0  0
 26 55  1  0  0  0
 27 28  1  0  0  0
 28 29  2  0  0  0
 28 30  1  0  0  0
 30 31  1  0  0  0
 31 32  1  0  0  0
 31 36  1  0  0  0
 32 33  1  0  0  0
 33 34  2  0  0  0
 33 35  1  0  0  0
 35 56  1  0  0  0
 36 37  2  0  0  0
 36 38  1  0  0  0
 38 57  1  0  0  0
 39 40  1  0  0  0
 40 41  2  0  0  0
 40 42  1  0  0  0
 42 43  1  0  0  0
 43 44  1  0  0  0
 43 48  1  0  0  0
 44 45  1  0  0  0
 45 46  2  0  0  0
 45 47  1  0  0  0
 47 58  1  0  0  0
 48 49  2  0  0  0
 48 50  1  0  0  0
 50 59  1  0  0  0
M  END
>  <AUTHOR>
    GENERATED BY OPEN BABEL 2.4.1

>  <CHROM.1>
-172.56366065,59.42658219,53.83797314,71.50608840,93.67656783,91.97224636
-112.14879735,154.82294057,171.73437756,-152.35703857,60.60902309,167.39990291
61.96412872,-99.98556832,64.72153792,-96.55390451,-58.17812461,-165.18796609
78.12546076,67.79677345,-172.10548826,79.72038520,-175.80119697,7.25613429
156.76241602,81.40545086,-138.09741447,-84.27237391,-110.83443647,-0.46207312
-2.94627795,-148.22118090,-70.63284926,129.92348345,39.42590384,131.65736847
-111.31216325,-177.98203996,-166.04555781,-3.15427493,5.43025827,-11.96386624
-0.83037295,-0.02529788,-3.09864932

>  <COMPND>
    UNNAMED

>  <MASTER>
        0    0    0    0    0    0    0    0  109    0  109    0

>  <Name>
FB1.pdb

>  <RI>
0

>  <Rbt.Current_Directory>
/home/fc/tossine/FB1_39/p3/3_clust03

>  <Rbt.Executable>
rbdock/0.1.0

>  <Rbt.Library>
librxdock.so/0.1.0

>  <Rbt.Parameter_File>
/cluster/rxdock/data/scripts/dock.prm

>  <Rbt.Receptor>
rx_3.prm

>  <SCORE>
13.4949

>  <SCORE.INTER>
7.53647

>  <SCORE.INTER.CONST>
1

>  <SCORE.INTER.POLAR>
-2.84824

>  <SCORE.INTER.REPUL>
1.0069

>  <SCORE.INTER.ROT>
32

>  <SCORE.INTER.VDW>
-25.214

>  <SCORE.INTER.norm>
0.150729

>  <SCORE.INTRA>
5.91209

>  <SCORE.INTRA.DIHEDRAL>
15.3307

>  <SCORE.INTRA.DIHEDRAL.0>
47.3121

>  <SCORE.INTRA.POLAR>
-0.159905

>  <SCORE.INTRA.POLAR.0>
-1.47808

>  <SCORE.INTRA.REPUL>
0.017724

>  <SCORE.INTRA.REPUL.0>
0

>  <SCORE.INTRA.VDW>
-1.29821

>  <SCORE.INTRA.VDW.0>
-2.78316

>  <SCORE.INTRA.norm>
0.118242

>  <SCORE.RESTR>
0.0463099

>  <SCORE.RESTR.CAVITY>
0.0463099

>  <SCORE.RESTR.norm>
0.000926198

>  <SCORE.SYSTEM>
0

>  <SCORE.SYSTEM.CONST>
0

>  <SCORE.SYSTEM.DIHEDRAL>
0

>  <SCORE.SYSTEM.norm>
0

>  <SCORE.heavy>
50

>  <SCORE.norm>
0.269897

$$$$
