FB1.pdb
  RxDock  09132006053D
librxdock.so/0.1.0
 59 58  0  0  0  0  0  0  0  0999 V2000
   -5.0402   -1.6534  -12.1453 C   0  0  0  0  0  0
   -5.3649   -0.6781  -13.2743 C   0  0  0  0  0  0
   -6.6555    0.1090  -12.9932 C   0  0  0  0  0  0
   -6.4767    1.2335  -11.9428 C   0  0  0  0  0  0
   -5.9979    2.6102  -12.5225 C   0  0  0  0  0  0
   -7.2452    3.4152  -12.9545 C   0  0  0  0  0  0
   -5.1047    3.4464  -11.5121 C   0  0  0  0  0  0
   -3.6089    2.9285  -11.2661 C   0  0  0  0  0  0
   -2.6795    3.3602  -10.0503 C   0  0  0  0  0  0
   -1.5244    4.4797  -10.4160 C   0  0  0  0  0  0
   -0.1873    3.9980   -9.8554 C   0  0  0  0  0  0
   -1.3581    4.8395  -11.9612 C   0  0  0  0  0  0
   -0.4399    6.0502  -12.5175 C   0  0  0  0  0  0
   -0.9906    7.5058  -12.7025 C   0  0  0  0  0  0
   -1.3918    8.3351  -11.3985 C   0  0  0  0  0  0
   -0.4114    8.6284  -10.1953 C   0  0  0  0  0  0
    0.7249    9.6701  -10.3714 C   0  0  0  0  0  0
    0.3157   11.1886  -10.2449 C   0  0  0  0  0  0
   -1.0589   11.5710  -10.8076 C   0  0  0  0  0  0
   -2.3268   11.0994  -10.0404 C   0  0  0  0  0  0
   -2.9333   11.9722   -8.9021 C   0  0  0  0  0  0
   -4.3157   11.5727   -8.4055 C   0  0  0  0  0  0
   -1.9864   12.1021   -7.7783 N   0  0  0  0  0  0
   -3.3636   11.0286  -11.0523 O   0  0  0  0  0  0
    0.3540   11.5424   -8.8582 O   0  0  0  0  0  0
    0.6289    6.1718  -11.5638 O   0  0  0  0  0  0
   -3.6923    1.4814  -11.1591 O   0  0  0  0  0  0
   -2.5204    0.8016  -11.0608 C   0  0  0  0  0  0
   -1.4318    1.1853  -11.4441 O   0  0  0  0  0  0
   -2.7715   -0.4726  -10.3026 C   0  0  0  0  0  0
   -1.4807   -1.0890   -9.7401 C   0  0  0  0  0  0
   -0.5208   -1.5531  -10.8430 C   0  0  0  0  0  0
   -0.9951   -2.8429  -11.4713 C   0  0  0  0  0  0
   -1.2991   -3.8401  -10.8258 O   0  0  0  0  0  0
   -1.0547   -2.7947  -12.8103 O   0  0  0  0  0  0
   -0.8203    0.0110   -8.8975 C   0  0  0  0  0  0
   -1.4118    1.0142   -8.5286 O   0  0  0  0  0  0
    0.4785   -0.1949   -8.6392 O   0  0  0  0  0  0
   -5.1443    4.8937  -11.8341 O   0  0  0  0  0  0
   -4.4111    5.3481  -12.9177 C   0  0  0  0  0  0
   -4.0681    4.6548  -13.8663 O   0  0  0  0  0  0
   -4.0665    6.8391  -12.8055 C   0  0  0  0  0  0
   -5.2630    7.7888  -12.4879 C   0  0  0  0  0  0
   -6.6392    7.4431  -13.0854 C   0  0  0  0  0  0
   -7.6781    8.4918  -12.8109 C   0  0  0  0  0  0
   -8.5778    8.4063  -11.9864 O   0  0  0  0  0  0
   -7.5150    9.5866  -13.5692 O   0  0  0  0  0  0
   -5.4750    8.0701  -10.9952 C   0  0  0  0  0  0
   -4.8739    8.9392  -10.3952 O   0  0  0  0  0  0
   -6.4575    7.3574  -10.4051 O   0  0  0  0  0  0
   -1.0847   11.7162   -8.0549 H   0  0  0  0  0  0
   -2.3049   11.5046   -7.0121 H   0  0  0  0  0  0
   -4.0271   10.4085  -10.6826 H   0  0  0  0  0  0
    1.2355   11.3138   -8.5101 H   0  0  0  0  0  0
    0.2346    6.3131  -10.6868 H   0  0  0  0  0  0
   -1.3808   -3.6074  -13.2423 H   0  0  0  0  0  0
    0.8925    0.4849   -8.0516 H   0  0  0  0  0  0
   -8.3123   10.1417  -13.4370 H   0  0  0  0  0  0
   -6.6358    7.5862   -9.4659 H   0  0  0  0  0  0
  1  2  1  0  0  0
  2  3  1  0  0  0
  3  4  1  0  0  0
  4  5  1  0  0  0
  5  6  1  0  0  0
  5  7  1  0  0  0
  7  8  1  0  0  0
  7 39  1  0  0  0
  8  9  1  0  0  0
  8 27  1  0  0  0
  9 10  1  0  0  0
 10 11  1  0  0  0
 10 12  1  0  0  0
 12 13  1  0  0  0
 13 14  1  0  0  0
 13 26  1  0  0  0
 14 15  1  0  0  0
 15 16  1  0  0  0
 16 17  1  0  0  0
 17 18  1  0  0  0
 18 19  1  0  0  0
 18 25  1  0  0  0
 19 20  1  0  0  0
 20 21  1  0  0  0
 20 24  1  0  0  0
 21 22  1  0  0  0
 21 23  1  0  0  0
 23 51  1  0  0  0
 23 52  1  0  0  0
 24 53  1  0  0  0
 25 54  1  0  0  0
 26 55  1  0  0  0
 27 28  1  0  0  0
 28 29  2  0  0  0
 28 30  1  0  0  0
 30 31  1  0  0  0
 31 32  1  0  0  0
 31 36  1  0  0  0
 32 33  1  0  0  0
 33 34  2  0  0  0
 33 35  1  0  0  0
 35 56  1  0  0  0
 36 37  2  0  0  0
 36 38  1  0  0  0
 38 57  1  0  0  0
 39 40  1  0  0  0
 40 41  2  0  0  0
 40 42  1  0  0  0
 42 43  1  0  0  0
 43 44  1  0  0  0
 43 48  1  0  0  0
 44 45  1  0  0  0
 45 46  2  0  0  0
 45 47  1  0  0  0
 47 58  1  0  0  0
 48 49  2  0  0  0
 48 50  1  0  0  0
 50 59  1  0  0  0
M  END
>  <AUTHOR>
    GENERATED BY OPEN BABEL 2.4.1

>  <CHROM.1>
75.73965666,87.06337320,87.53045002,73.19973102,-163.27259865,-75.95450261
-102.18645796,174.52663207,-131.75454525,171.05502777,-88.89141402,67.11664350
-56.20781227,56.42728855,73.42785435,79.51877375,-36.39670734,71.46437759
54.26596754,88.46615955,168.11764663,157.61814904,8.97683399,-23.80294916
-161.40832159,-65.17162999,-75.75790789,15.71268987,-51.17375885,-178.45413429
-176.53554400,23.64383295,-50.43055620,-35.01997699,-174.90541499,84.77957728
-104.22227921,170.51142893,-175.69828646,-3.11597253,4.94691537,-11.15257460
1.51547002,0.37677018,-3.05814666

>  <COMPND>
    UNNAMED

>  <MASTER>
        0    0    0    0    0    0    0    0  109    0  109    0

>  <Name>
FB1.pdb

>  <RI>
0

>  <Rbt.Current_Directory>
/home/fc/tossine/FB1_39/p3/3_clust03

>  <Rbt.Executable>
rbdock/0.1.0

>  <Rbt.Library>
librxdock.so/0.1.0

>  <Rbt.Parameter_File>
/cluster/rxdock/data/scripts/dock.prm

>  <Rbt.Receptor>
rx_3.prm

>  <SCORE>
19.3354

>  <SCORE.INTER>
11.6631

>  <SCORE.INTER.CONST>
1

>  <SCORE.INTER.POLAR>
-1.75578

>  <SCORE.INTER.REPUL>
0.545733

>  <SCORE.INTER.ROT>
32

>  <SCORE.INTER.VDW>
-22.4959

>  <SCORE.INTER.norm>
0.233262

>  <SCORE.INTRA>
6.44665

>  <SCORE.INTRA.DIHEDRAL>
12.5603

>  <SCORE.INTRA.DIHEDRAL.0>
47.3121

>  <SCORE.INTRA.POLAR>
-0.521923

>  <SCORE.INTRA.POLAR.0>
-1.47808

>  <SCORE.INTRA.REPUL>
0

>  <SCORE.INTRA.REPUL.0>
0

>  <SCORE.INTRA.VDW>
1.94105

>  <SCORE.INTRA.VDW.0>
-2.78316

>  <SCORE.INTRA.norm>
0.128933

>  <SCORE.RESTR>
1.22566

>  <SCORE.RESTR.CAVITY>
1.22566

>  <SCORE.RESTR.norm>
0.0245133

>  <SCORE.SYSTEM>
0

>  <SCORE.SYSTEM.CONST>
0

>  <SCORE.SYSTEM.DIHEDRAL>
0

>  <SCORE.SYSTEM.norm>
0

>  <SCORE.heavy>
50

>  <SCORE.norm>
0.386709

$$$$
