FB1.pdb
  RxDock  10072015093D
librxdock.so/0.1.0
 59 58  0  0  0  0  0  0  0  0999 V2000
    0.6227    8.5081   -9.8702 C   0  0  0  0  0  0
   -0.5231    7.7816   -9.1697 C   0  0  0  0  0  0
   -0.8208    6.4228   -9.8248 C   0  0  0  0  0  0
   -2.1822    5.8176   -9.4004 C   0  0  0  0  0  0
   -3.1782    5.5380  -10.5795 C   0  0  0  0  0  0
   -3.3493    6.8434  -11.3904 C   0  0  0  0  0  0
   -2.7274    4.3414  -11.5190 C   0  0  0  0  0  0
   -3.1954    2.8694  -11.0942 C   0  0  0  0  0  0
   -2.7553    2.1175   -9.7641 C   0  0  0  0  0  0
   -1.2692    1.4039   -9.8230 C   0  0  0  0  0  0
   -0.2180    2.4900  -10.0458 C   0  0  0  0  0  0
   -0.8638    0.5184   -8.5595 C   0  0  0  0  0  0
   -1.9288   -0.2001   -7.5755 C   0  0  0  0  0  0
   -2.0067   -1.7572   -7.4152 C   0  0  0  0  0  0
   -2.9361   -2.3542   -6.2623 C   0  0  0  0  0  0
   -2.4682   -2.5782   -4.7705 C   0  0  0  0  0  0
   -1.5980   -3.8139   -4.4195 C   0  0  0  0  0  0
   -1.3580   -4.0951   -2.8857 C   0  0  0  0  0  0
   -0.2162   -3.3148   -2.2225 C   0  0  0  0  0  0
    0.4861   -3.9441   -0.9859 C   0  0  0  0  0  0
    2.0369   -3.9019   -0.8500 C   0  0  0  0  0  0
    2.5895   -3.2300    0.3993 C   0  0  0  0  0  0
    2.6167   -5.2471   -1.0255 N   0  0  0  0  0  0
   -0.0108   -3.1843    0.1453 O   0  0  0  0  0  0
   -2.5736   -3.8034   -2.1877 O   0  0  0  0  0  0
   -1.6136    0.2968   -6.2639 O   0  0  0  0  0  0
   -4.6465    2.9094  -11.0216 O   0  0  0  0  0  0
   -5.3020    1.7238  -11.1206 C   0  0  0  0  0  0
   -6.3176    1.4116  -10.5285 O   0  0  0  0  0  0
   -4.6187    0.8881  -12.1676 C   0  0  0  0  0  0
   -5.3783   -0.4128  -12.4729 C   0  0  0  0  0  0
   -5.4799   -1.3356  -11.2516 C   0  0  0  0  0  0
   -4.1509   -1.9880  -10.9493 C   0  0  0  0  0  0
   -3.2759   -1.4617  -10.2703 O   0  0  0  0  0  0
   -4.0170   -3.2057  -11.4951 O   0  0  0  0  0  0
   -6.7811    0.0144  -12.9266 C   0  0  0  0  0  0
   -7.0421    1.1436  -13.3127 O   0  0  0  0  0  0
   -7.7128   -0.9427  -12.8181 O   0  0  0  0  0  0
   -3.0344    4.6319  -12.9407 O   0  0  0  0  0  0
   -2.1436    4.1994  -13.9090 C   0  0  0  0  0  0
   -2.4501    3.9128  -15.0589 O   0  0  0  0  0  0
   -0.7047    4.1152  -13.3827 C   0  0  0  0  0  0
    0.1804    5.3769  -13.6262 C   0  0  0  0  0  0
    0.0205    6.5690  -12.6651 C   0  0  0  0  0  0
   -0.5610    7.7838  -13.3290 C   0  0  0  0  0  0
   -1.6493    8.2825  -13.0770 O   0  0  0  0  0  0
    0.2615    8.3083  -14.2503 O   0  0  0  0  0  0
    1.6822    5.0890  -13.7447 C   0  0  0  0  0  0
    2.1606    3.9884  -13.5536 O   0  0  0  0  0  0
    2.4367    6.1186  -14.1828 O   0  0  0  0  0  0
    2.5376   -5.7618   -0.1495 H   0  0  0  0  0  0
    3.6221   -5.1512   -1.1848 H   0  0  0  0  0  0
    0.3305   -3.6606    0.9314 H   0  0  0  0  0  0
   -2.6464   -2.8356   -2.0949 H   0  0  0  0  0  0
   -0.7480   -0.0622   -6.0063 H   0  0  0  0  0  0
   -3.5049   -3.2358  -12.3260 H   0  0  0  0  0  0
   -8.6034   -0.6894  -13.1666 H   0  0  0  0  0  0
    1.0774    7.7647  -14.2411 H   0  0  0  0  0  0
    3.3928    5.9201  -14.2954 H   0  0  0  0  0  0
  1  2  1  0  0  0
  2  3  1  0  0  0
  3  4  1  0  0  0
  4  5  1  0  0  0
  5  6  1  0  0  0
  5  7  1  0  0  0
  7  8  1  0  0  0
  7 39  1  0  0  0
  8  9  1  0  0  0
  8 27  1  0  0  0
  9 10  1  0  0  0
 10 11  1  0  0  0
 10 12  1  0  0  0
 12 13  1  0  0  0
 13 14  1  0  0  0
 13 26  1  0  0  0
 14 15  1  0  0  0
 15 16  1  0  0  0
 16 17  1  0  0  0
 17 18  1  0  0  0
 18 19  1  0  0  0
 18 25  1  0  0  0
 19 20  1  0  0  0
 20 21  1  0  0  0
 20 24  1  0  0  0
 21 22  1  0  0  0
 21 23  1  0  0  0
 23 51  1  0  0  0
 23 52  1  0  0  0
 24 53  1  0  0  0
 25 54  1  0  0  0
 26 55  1  0  0  0
 27 28  1  0  0  0
 28 29  2  0  0  0
 28 30  1  0  0  0
 30 31  1  0  0  0
 31 32  1  0  0  0
 31 36  1  0  0  0
 32 33  1  0  0  0
 33 34  2  0  0  0
 33 35  1  0  0  0
 35 56  1  0  0  0
 36 37  2  0  0  0
 36 38  1  0  0  0
 38 57  1  0  0  0
 39 40  1  0  0  0
 40 41  2  0  0  0
 40 42  1  0  0  0
 42 43  1  0  0  0
 43 44  1  0  0  0
 43 48  1  0  0  0
 44 45  1  0  0  0
 45 46  2  0  0  0
 45 47  1  0  0  0
 47 58  1  0  0  0
 48 49  2  0  0  0
 48 50  1  0  0  0
 50 59  1  0  0  0
M  END
>  <AUTHOR>
    GENERATED BY OPEN BABEL 2.4.1

>  <CHROM.1>
-165.14197248,121.34407171,-53.78136943,87.83775932,-63.90169380,143.62329915
-80.74370406,158.64799507,62.06175030,25.68776689,117.17399506,170.93653810
-68.25399064,-86.52460708,-78.57371367,-170.76511000,-83.70968259,-153.07929058
-77.73002790,136.71043854,122.26178834,172.19567049,-81.35433655,144.14826313
-173.44618807,-62.21447921,-73.30304113,18.48387703,85.26285153,99.31481172
-176.07230433,151.50318782,-93.87183149,80.61145132,-113.18388924,-5.92272179
114.39197796,-1.73078612,-177.44677831,-1.94747627,1.59777845,-9.40461956
-1.68585053,0.67946414,2.36037618

>  <COMPND>
    UNNAMED

>  <MASTER>
        0    0    0    0    0    0    0    0  109    0  109    0

>  <Name>
FB1.pdb

>  <RI>
0

>  <Rbt.Current_Directory>
/home/fc/tossine/FB1_39/p3/3_clust03

>  <Rbt.Executable>
rbdock/0.1.0

>  <Rbt.Library>
librxdock.so/0.1.0

>  <Rbt.Parameter_File>
/cluster/rxdock/data/scripts/dock.prm

>  <Rbt.Receptor>
rx_0.prm

>  <SCORE>
40.4675

>  <SCORE.INTER>
-0.739607

>  <SCORE.INTER.CONST>
1

>  <SCORE.INTER.POLAR>
-4.12714

>  <SCORE.INTER.REPUL>
0.643306

>  <SCORE.INTER.ROT>
32

>  <SCORE.INTER.VDW>
-27.3238

>  <SCORE.INTER.norm>
-0.0147921

>  <SCORE.INTRA>
41.0796

>  <SCORE.INTRA.DIHEDRAL>
55.0612

>  <SCORE.INTRA.DIHEDRAL.0>
47.3121

>  <SCORE.INTRA.POLAR>
0.478077

>  <SCORE.INTRA.POLAR.0>
-1.47808

>  <SCORE.INTRA.REPUL>
0

>  <SCORE.INTRA.REPUL.0>
0

>  <SCORE.INTRA.VDW>
11.9236

>  <SCORE.INTRA.VDW.0>
-2.78316

>  <SCORE.INTRA.norm>
0.821592

>  <SCORE.RESTR>
0.127492

>  <SCORE.RESTR.CAVITY>
0.127492

>  <SCORE.RESTR.norm>
0.00254984

>  <SCORE.SYSTEM>
0

>  <SCORE.SYSTEM.CONST>
0

>  <SCORE.SYSTEM.DIHEDRAL>
0

>  <SCORE.SYSTEM.norm>
0

>  <SCORE.heavy>
50

>  <SCORE.norm>
0.80935

$$$$
