@<TRIPOS>MOLECULE
dna.pdb
 1946 2185 0 0 0
SMALL
GASTEIGER

@<TRIPOS>ATOM
      1  O5'       12.8480   -8.2040   11.4380 O.3     1  DA1        -0.2176
      2  C5'       12.2770   -7.0340   12.0440 C.3     1  DA1         0.2140
      3  C4'       12.9410   -5.8890   11.3320 C.3     1  DA1         0.1776
      4  O4'       14.3470   -5.9710   11.4750 O.3     1  DA1        -0.3326
      5  C3'       12.7610   -5.8440    9.8230 C.3     1  DA1         0.1559
      6  O3'       11.4330   -5.5380    9.4430 O.3     1  DA1        -0.3138
      7  C2'       13.8800   -4.9090    9.4210 C.3     1  DA1         0.0865
      8  C1'       14.9840   -5.3350   10.3640 C.3     1  DA1         0.2094
      9  N9        16.0060   -6.1830    9.8710 N.ar    1  DA1        -0.2714
     10  C8        15.9510   -7.5450   10.0060 C.ar    1  DA1         0.1815
     11  N7        16.9900   -8.1690    9.5020 N.ar    1  DA1        -0.2193
     12  C5        17.7800   -7.1460    9.0020 C.ar    1  DA1         0.1518
     13  C6        19.0220   -7.1450    8.3430 C.ar    1  DA1         0.1919
     14  N6        19.7120   -8.2540    8.0650 N.pl3   1  DA1        -0.1054
     15  N1        19.5360   -5.9520    7.9750 N.ar    1  DA1        -0.2040
     16  C2        18.8450   -4.8420    8.2550 C.ar    1  DA1         0.2016
     17  N3        17.6710   -4.7140    8.8690 N.ar    1  DA1        -0.2048
     18  C4        17.1870   -5.9170    9.2210 C.ar    1  DA1         0.1691
     19  P         10.6200   -6.5190    7.9340 P.3     2  DT2         0.2141
     20  OP1       10.5960   -5.7390    6.6740 O.2     2  DT2        -0.5172
     21  OP2        9.4950   -6.4100    8.8640 O.3     2  DT2        -0.4373
     22  O5'       10.7690   -8.0530    7.5490 O.3     2  DT2        -0.3114
     23  C5'        9.7180   -8.7430    6.8650 C.3     2  DT2         0.1811
     24  C4'        9.3640   -9.9950    7.6140 C.3     2  DT2         0.1746
     25  O4'        9.1290   -9.6430    8.9950 O.3     2  DT2        -0.3327
     26  C3'        8.0760  -10.6470    7.1540 C.3     2  DT2         0.1558
     27  O3'        8.2960  -11.5350    6.0750 O.3     2  DT2        -0.3138
     28  C2'        7.5600  -11.3230    8.4200 C.3     2  DT2         0.0866
     29  C1'        7.9730  -10.3110    9.4800 C.3     2  DT2         0.2106
     30  N1         6.7640   -9.1620    9.5280 N.ar    2  DT2        -0.2559
     31  C2         5.4570   -9.4050    9.9080 C.ar    2  DT2         0.3545
     32  O2         4.9720  -10.5220    9.9400 O.2     2  DT2        -0.2443
     33  N3         4.7350   -8.2880   10.2510 N.ar    2  DT2        -0.1533
     34  C4         5.1770   -6.9810   10.2520 C.ar    2  DT2         0.2804
     35  O4         4.4090   -6.0820   10.5860 O.2     2  DT2        -0.2654
     36  C5         6.5440   -6.8110    9.8440 C.ar    2  DT2         0.0534
     37  C6         7.2690   -7.8800    9.5060 C.ar    2  DT2         0.0824
     38  C7         7.1190   -5.4260    9.8110 C.3     2  DT2         0.0377
     39  P          7.1260  -11.7160    4.9210 P.3     3  DA3         0.2141
     40  OP1        7.8230  -12.5170    3.8950 O.2     3  DA3        -0.5172
     41  OP2        7.0260  -10.2350    4.8010 O.3     3  DA3        -0.4373
     42  O5'        5.6500  -12.3230    5.0580 O.3     3  DA3        -0.3114
     43  C5'        5.4240  -13.5310    5.8030 C.3     3  DA3         0.1811
     44  C4'        3.9490  -13.6270    6.1030 C.3     3  DA3         0.1746
     45  O4'        3.6620  -12.8070    7.2530 O.3     3  DA3        -0.3327
     46  C3'        3.0680  -13.0190    5.0280 C.3     3  DA3         0.1558
     47  O3'        2.8930  -13.9150    3.9460 O.3     3  DA3        -0.3138
     48  C2'        1.7900  -12.7450    5.8130 C.3     3  DA3         0.0865
     49  C1'        2.3830  -12.2090    7.1090 C.3     3  DA3         0.2094
     50  N9         2.4410  -10.6780    7.0820 N.ar    3  DA3        -0.2714
     51  C8         3.5640   -9.8960    7.0130 C.ar    3  DA3         0.1815
     52  N7         3.3220   -8.6110    7.1190 N.ar    3  DA3        -0.2193
     53  C5         1.9450   -8.5440    7.2650 C.ar    3  DA3         0.1518
     54  C6         1.0620   -7.4610    7.4240 C.ar    3  DA3         0.1919
     55  N6         1.4560   -6.1860    7.4650 N.pl3   3  DA3        -0.1054
     56  N1        -0.2540   -7.7380    7.5420 N.ar    3  DA3        -0.2040
     57  C2        -0.6470   -9.0170    7.5030 C.ar    3  DA3         0.2016
     58  N3         0.0870  -10.1180    7.3580 N.ar    3  DA3        -0.2048
     59  C4         1.3890   -9.8090    7.2430 C.ar    3  DA3         0.1691
     60  P          2.8810  -13.3560    2.4540 P.3     4  DC4         0.2141
     61  OP1        3.2300  -14.5410    1.6380 O.2     4  DC4        -0.5172
     62  OP2        3.3580  -12.0100    2.0640 O.3     4  DC4        -0.4373
     63  O5'        1.2920  -13.2060    2.5300 O.3     4  DC4        -0.3114
     64  C5'        0.5830  -14.0650    3.4140 C.3     4  DC4         0.1811
     65  C4'       -0.7990  -13.5430    3.7120 C.3     4  DC4         0.1746
     66  O4'       -0.7430  -12.5560    4.7680 O.3     4  DC4        -0.3327
     67  C3'       -1.4860  -12.8440    2.5540 C.3     4  DC4         0.1558
     68  O3'       -2.1090  -13.7840    1.6950 O.3     4  DC4        -0.3138
     69  C2'       -2.4340  -11.8650    3.2410 C.3     4  DC4         0.0866
     70  C1'       -1.6670  -11.5210    4.5180 C.3     4  DC4         0.2106
     71  N1        -1.0140  -10.2740    4.5480 N.ar    4  DC4        -0.2556
     72  C2        -1.6680   -9.1580    5.0820 C.ar    4  DC4         0.3531
     73  O2        -2.7800   -9.3150    5.6150 O.2     4  DC4        -0.2443
     74  N3        -1.0720   -7.9440    5.0030 N.ar    4  DC4        -0.1739
     75  C4         0.1220   -7.8240    4.4220 C.ar    4  DC4         0.1759
     76  N4         0.6700   -6.6070    4.3670 N.pl3   4  DC4        -0.1070
     77  C5         0.8010   -8.9420    3.8740 C.ar    4  DC4         0.0566
     78  C6         0.2100  -10.1390    3.9550 C.ar    4  DC4         0.0849
     79  P         -3.0490  -13.2990    0.3890 P.3     5  DC5         0.2141
     80  OP1       -3.5790  -14.4570   -0.3940 O.2     5  DC5        -0.5172
     81  OP2       -1.8830  -12.5600   -0.1620 O.3     5  DC5        -0.4373
     82  O5'       -4.2320  -12.2440    0.7120 O.3     5  DC5        -0.3114
     83  C5'       -5.5500  -12.7310    0.9050 C.3     5  DC5         0.1811
     84  C4'       -6.4260  -11.8190    1.7350 C.3     5  DC5         0.1744
     85  O4'       -5.6920  -11.1050    2.7510 O.3     5  DC5        -0.3348
     86  C3'       -7.0200  -10.7120    0.9140 C.3     5  DC5         0.1555
     87  O3'       -8.1240  -11.1570    0.2480 O.3     5  DC5        -0.3139
     88  C2'       -7.4130   -9.6380    1.9180 C.3     5  DC5         0.0836
     89  C1'       -6.3260   -9.8490    2.9650 C.3     5  DC5         0.1999
     90  N1        -5.1540   -8.8810    2.8700 N.pl3   5  DC5        -0.2132
     91  C2        -5.2500   -7.5750    3.3640 C.2     5  DC5         0.4331
     92  O2        -6.3140   -7.2120    3.8930 O.2     5  DC5        -0.2850
     93  N3        -4.1840   -6.7470    3.2490 N.2     5  DC5         0.0237
     94  C4        -3.0620   -7.1800    2.6730 C.2     5  DC5         0.4172
     95  N4        -2.0370   -6.3290    2.5830 N.pl3   5  DC5         0.2162
     96  C5        -2.9450   -8.5000    2.1670 C.2     5  DC5         0.0937
     97  C6        -4.0000   -9.3140    2.2810 C.3     5  DC5         0.1340
     98  P         -8.4150  -10.2810   -0.8680 P.3     6  DA6         0.2141
     99  OP1       -8.6000  -10.7720   -2.2490 O.2     6  DA6        -0.5172
    100  OP2       -7.4160   -9.2140   -0.5980 O.3     6  DA6        -0.4373
    101  O5'       -9.8340   -9.8110   -0.2980 O.3     6  DA6        -0.3114
    102  C5'      -10.0330   -8.4610    0.0580 C.3     6  DA6         0.1811
    103  C4'      -11.4580   -8.2130    0.5140 C.3     6  DA6         0.1746
    104  O4'      -11.5040   -8.1570    1.9650 O.3     6  DA6        -0.3327
    105  C3'      -12.0480   -6.8960    0.0350 C.3     6  DA6         0.1558
    106  O3'      -12.7440   -7.0730   -1.1800 O.3     6  DA6        -0.3138
    107  C2'      -12.9640   -6.4990    1.1810 C.3     6  DA6         0.0865
    108  C1'      -12.1530   -6.9670    2.3800 C.3     6  DA6         0.2094
    109  N9       -11.0930   -5.9590    2.9190 N.ar    6  DA6        -0.2714
    110  C8        -9.7340   -5.8260    2.7990 C.ar    6  DA6         0.1815
    111  N7        -9.2570   -4.7430    3.3670 N.ar    6  DA6        -0.2193
    112  C5       -10.3790   -4.1240    3.8940 C.ar    6  DA6         0.1518
    113  C6       -10.5470   -2.9320    4.6210 C.ar    6  DA6         0.1919
    114  N6        -9.5400   -2.1200    4.9540 N.pl3   6  DA6        -0.1054
    115  N1       -11.8000   -2.5990    4.9980 N.ar    6  DA6        -0.2040
    116  C2       -12.8080   -3.4130    4.6640 C.ar    6  DA6         0.2016
    117  N3       -12.7750   -4.5580    3.9860 N.ar    6  DA6        -0.2048
    118  C4       -11.5170   -4.8600    3.6260 C.ar    6  DA6         0.1691
    119  P        -12.1610   -6.4360   -2.5650 P.3     7  DG7         0.2141
    120  OP1      -13.1750   -6.8640   -3.5550 O.2     7  DG7        -0.5172
    121  OP2      -10.7230   -6.7230   -2.7710 O.3     7  DG7        -0.4373
    122  O5'      -12.2280   -4.8430   -2.4520 O.3     7  DG7        -0.3114
    123  C5'      -13.4320   -4.2170   -2.0530 C.3     7  DG7         0.1811
    124  C4'      -13.1480   -2.8390   -1.5220 C.3     7  DG7         0.1746
    125  O4'      -12.3670   -2.9150   -0.3010 O.3     7  DG7        -0.3327
    126  C3'      -12.2930   -1.9660   -2.4170 C.3     7  DG7         0.1558
    127  O3'      -12.9990   -1.4440   -3.5250 O.3     7  DG7        -0.3138
    128  C2'      -11.7890   -0.9120   -1.4400 C.3     7  DG7         0.0865
    129  C1'      -11.5340   -1.7770   -0.2060 C.3     7  DG7         0.2094
    130  N9       -10.1560   -2.2240   -0.2510 N.ar    7  DG7        -0.2713
    131  C8        -9.8110   -3.5260   -0.5250 C.ar    7  DG7         0.1816
    132  N7        -8.5560   -3.7890   -0.2810 N.ar    7  DG7        -0.2173
    133  C5        -8.0390   -2.5940    0.1840 C.ar    7  DG7         0.1748
    134  C6        -6.7270   -2.2580    0.6070 C.ar    7  DG7         0.3023
    135  O6        -5.7280   -2.9860    0.6560 O.2     7  DG7        -0.2633
    136  N1        -6.6330   -0.9260    1.0010 N.ar    7  DG7        -0.1709
    137  C2        -7.6730   -0.0290    0.9890 C.ar    7  DG7         0.2606
    138  N2        -7.3880    1.2120    1.4080 N.pl3   7  DG7        -0.0859
    139  N3        -8.8970   -0.3260    0.5980 N.ar    7  DG7        -0.1918
    140  C4        -9.0120   -1.6130    0.2100 C.ar    7  DG7         0.1722
    141  P        -12.3550   -1.7530   -4.8650 P.3     8  DC8         0.2141
    142  OP1      -13.4330   -1.6070   -5.8720 O.2     8  DC8        -0.5172
    143  OP2      -11.4680   -2.9400   -4.9070 O.3     8  DC8        -0.4373
    144  O5'      -11.4710   -0.4210   -4.8300 O.3     8  DC8        -0.3114
    145  C5'      -12.0930    0.8390   -4.5540 C.3     8  DC8         0.1811
    146  C4'      -11.0780    1.8750   -4.1390 C.3     8  DC8         0.1746
    147  O4'      -10.4560    1.5110   -2.8810 O.3     8  DC8        -0.3327
    148  C3'       -9.9040    2.1590   -5.0580 C.3     8  DC8         0.1558
    149  O3'      -10.2570    3.0210   -6.1090 O.3     8  DC8        -0.3138
    150  C2'       -8.9240    2.8440   -4.1150 C.3     8  DC8         0.0866
    151  C1'       -9.1510    2.0660   -2.8250 C.3     8  DC8         0.2106
    152  N1        -8.1530    0.9570   -2.7340 N.ar    8  DC8        -0.2556
    153  C2        -6.8090    1.2540   -2.4790 C.ar    8  DC8         0.3531
    154  O2        -6.4730    2.4450   -2.3560 O.2     8  DC8        -0.2443
    155  N3        -5.9180    0.2400   -2.3770 N.ar    8  DC8        -0.1739
    156  C4        -6.3240   -1.0220   -2.5170 C.ar    8  DC8         0.1759
    157  N4        -5.4090   -1.9880   -2.4080 N.pl3   8  DC8        -0.1070
    158  C5        -7.6810   -1.3440   -2.7750 C.ar    8  DC8         0.0566
    159  C6        -8.5580   -0.3400   -2.8760 C.ar    8  DC8         0.0849
    160  P         -9.3970    3.0920   -7.1050 P.3     9  DT9         0.2141
    161  OP1      -10.1240    3.7500   -8.2190 O.2     9  DT9        -0.5172
    162  OP2       -8.7420    1.7800   -7.3340 O.3     9  DT9        -0.4373
    163  O5'       -8.3100    4.1100   -6.5330 O.3     9  DT9        -0.3114
    164  C5'       -8.7200    5.2440   -5.7700 C.3     9  DT9         0.1811
    165  C4'       -7.5840    5.7460   -4.9070 C.3     9  DT9         0.1746
    166  O4'       -7.1870    4.7250   -3.9540 O.3     9  DT9        -0.3327
    167  C3'       -6.2960    6.0740   -5.6380 C.3     9  DT9         0.1558
    168  O3'       -6.3630    7.3680   -6.2190 O.3     9  DT9        -0.3138
    169  C2'       -5.2670    6.0100   -4.5140 C.3     9  DT9         0.0866
    170  C1'       -5.8030    4.8490   -3.6720 C.3     9  DT9         0.2106
    171  N1        -5.2460    3.5710   -3.8260 N.ar    9  DT9        -0.2559
    172  C2        -4.1940    3.1930   -3.0130 C.ar    9  DT9         0.3545
    173  O2        -3.8100    3.8630   -2.0700 O.2     9  DT9        -0.2443
    174  N3        -3.6040    1.9980   -3.3430 N.ar    9  DT9        -0.1533
    175  C4        -3.9510    1.1600   -4.3830 C.ar    9  DT9         0.2804
    176  O4        -3.3270    0.1160   -4.5530 O.2     9  DT9        -0.2654
    177  C5        -5.0510    1.6220   -5.1820 C.ar    9  DT9         0.0534
    178  C6        -5.6430    2.7810   -4.8830 C.ar    9  DT9         0.0824
    179  C7        -5.5040    0.7810   -6.3380 C.3     9  DT9         0.0377
    180  P         -5.1330    7.9160   -7.3430 P.3    10  DT10        0.2141
    181  OP1       -5.6750    9.1090   -8.0380 O.2    10  DT10       -0.5172
    182  OP2       -4.1400    7.0290   -7.9960 O.3    10  DT10       -0.4373
    183  O5'       -4.4690    8.3080   -5.9380 O.3    10  DT10       -0.3114
    184  C5'       -3.4790    9.3050   -5.7840 C.3    10  DT10        0.1811
    185  C4'       -2.7210    9.0870   -4.5060 C.3    10  DT10        0.1746
    186  O4'       -3.0100    7.7680   -3.9800 O.3    10  DT10       -0.3327
    187  C3'       -1.2200    9.0630   -4.6880 C.3    10  DT10        0.1558
    188  O3'       -0.6590   10.3510   -4.7820 O.3    10  DT10       -0.3138
    189  C2'       -0.7360    8.2550   -3.4970 C.3    10  DT10        0.0866
    190  C1'       -1.8410    7.2090   -3.4120 C.3    10  DT10        0.2106
    191  N1        -1.4690    6.0150   -4.0810 N.ar   10  DT10       -0.2559
    192  C2        -0.4520    5.2540   -3.5370 C.ar   10  DT10        0.3545
    193  O2         0.1920    5.6040   -2.5640 O.2    10  DT10       -0.2443
    194  N3        -0.2130    4.0610   -4.1760 N.ar   10  DT10       -0.1533
    195  C4        -0.8750    3.5650   -5.2790 C.ar   10  DT10        0.2804
    196  O4        -0.5470    2.4750   -5.7410 O.2    10  DT10       -0.2654
    197  C5        -1.9160    4.4130   -5.7860 C.ar   10  DT10        0.0534
    198  C6        -2.1700    5.5780   -5.1840 C.ar   10  DT10        0.0824
    199  C7        -2.6940    3.9610   -6.9860 C.3    10  DT10        0.0377
    200  P          0.1100   10.4810   -5.9220 P.3    11  DA11        0.2141
    201  OP1        0.3200   11.9160   -6.2120 O.3    11  DA11       -0.4373
    202  OP2       -0.6120    9.6340   -6.8950 O.2    11  DA11       -0.5172
    203  O5'        1.5240    9.8040   -5.6540 O.3    11  DA11       -0.3114
    204  C5'        2.4080   10.3150   -4.6440 C.3    11  DA11        0.1811
    205  C4'        3.5250    9.3350   -4.3910 C.3    11  DA11        0.1746
    206  O4'        2.9660    8.0960   -3.8850 O.3    11  DA11       -0.3327
    207  C3'        4.3230    8.9070   -5.6140 C.3    11  DA11        0.1558
    208  O3'        5.3260    9.8620   -5.9410 O.3    11  DA11       -0.3138
    209  C2'        4.9060    7.5790   -5.1530 C.3    11  DA11        0.0865
    210  C1'        3.7320    7.0020   -4.3580 C.3    11  DA11        0.2094
    211  N9         2.8580    6.1410   -5.1650 N.ar   11  DA11       -0.2714
    212  C8         1.6840    6.4870   -5.7810 C.ar   11  DA11        0.1815
    213  N7         1.0800    5.4820   -6.3710 N.ar   11  DA11       -0.2193
    214  C5         1.9160    4.4040   -6.1270 C.ar   11  DA11        0.1518
    215  C6         1.8380    3.0470   -6.4860 C.ar   11  DA11        0.1919
    216  N6         0.8360    2.5270   -7.1980 N.pl3  11  DA11       -0.1054
    217  N1         2.8380    2.2340   -6.0840 N.ar   11  DA11       -0.2040
    218  C2         3.8410    2.7560   -5.3690 C.ar   11  DA11        0.2016
    219  N3         4.0250    4.0120   -4.9690 N.ar   11  DA11       -0.2048
    220  C4         3.0150    4.7940   -5.3860 C.ar   11  DA11        0.1691
    221  P          5.8300   10.0930   -7.5840 P.3    12  DT12        0.2141
    222  OP1        6.8790   11.1560   -7.5770 O.3    12  DT12       -0.4373
    223  OP2        4.7830   10.0890   -8.6410 O.2    12  DT12       -0.5172
    224  O5'        6.5120    8.6430   -7.4860 O.3    12  DT12       -0.3114
    225  C5'        7.5870    8.4030   -6.5820 C.3    12  DT12        0.1811
    226  C4'        8.0060    6.9310   -6.5410 C.3    12  DT12        0.1746
    227  O4'        6.9740    6.1060   -5.9450 O.3    12  DT12       -0.3327
    228  C3'        8.3920    6.1620   -7.7980 C.3    12  DT12        0.1558
    229  O3'        9.6880    6.4620   -8.2600 O.3    12  DT12       -0.3138
    230  C2'        8.3330    4.7180   -7.3160 C.3    12  DT12        0.0866
    231  C1'        7.1300    4.7640   -6.3820 C.3    12  DT12        0.2106
    232  N1         5.8550    4.4470   -7.1030 N.ar   12  DT12       -0.2559
    233  C2         5.7700    3.1720   -7.6300 C.ar   12  DT12        0.3545
    234  O2         6.6440    2.3360   -7.4910 O.2    12  DT12       -0.2443
    235  N3         4.6180    2.9090   -8.3320 N.ar   12  DT12       -0.1533
    236  C4         3.5670    3.7740   -8.5550 C.ar   12  DT12        0.2804
    237  O4         2.5970    3.3930   -9.2050 O.2    12  DT12       -0.2654
    238  C5         3.7310    5.0780   -7.9770 C.ar   12  DT12        0.0534
    239  C6         4.8410    5.3600   -7.2890 C.ar   12  DT12        0.0824
    240  C7         2.6410    6.0910   -8.1650 C.3    12  DT12        0.0377
    241  P          9.8220    6.9320   -9.6280 P.3    13  DT13        0.2141
    242  OP1       10.4780    8.2290   -9.9070 O.3    13  DT13       -0.4373
    243  OP2        8.7560    6.4660  -10.5430 O.2    13  DT13       -0.5172
    244  O5'       10.9240    5.7760   -9.5050 O.3    13  DT13       -0.3114
    245  C5'       11.4650    5.2380  -10.6910 C.3    13  DT13        0.1811
    246  C4'       11.1570    3.7620  -10.8730 C.3    13  DT13        0.1746
    247  O4'        9.9900    3.3110  -10.1410 O.3    13  DT13       -0.3327
    248  C3'       10.7710    3.3460  -12.2820 C.3    13  DT13        0.1558
    249  O3'       11.8400    3.5120  -13.1910 O.3    13  DT13       -0.3138
    250  C2'       10.3530    1.9010  -12.0080 C.3    13  DT13        0.0866
    251  C1'        9.4230    2.2060  -10.8390 C.3    13  DT13        0.2106
    252  N1         8.0650    2.6310  -11.4900 N.ar   13  DT13       -0.2559
    253  C2         7.1730    1.7220  -12.0270 C.ar   13  DT13        0.3545
    254  O2         7.4850    0.5830  -12.3250 O.2    13  DT13       -0.2443
    255  N3         5.8960    2.1980  -12.2050 N.ar   13  DT13       -0.1533
    256  C4         5.4330    3.4620  -11.9070 C.ar   13  DT13        0.2804
    257  O4         4.2560    3.7410  -12.1230 O.2    13  DT13       -0.2654
    258  C5         6.4190    4.3470  -11.3540 C.ar   13  DT13        0.0534
    259  C6         7.6680    3.9110  -11.1700 C.ar   13  DT13        0.0824
    260  C7         6.0130    5.7460  -10.9970 C.3    13  DT13        0.0377
    261  P         11.7550    4.5440  -14.3760 P.3    14  DC14        0.2141
    262  OP1       13.1250    4.8150  -14.8700 O.2    14  DC14       -0.5172
    263  OP2       10.6710    5.5250  -14.6200 O.3    14  DC14       -0.4373
    264  O5'       11.2930    3.1130  -14.9380 O.3    14  DC14       -0.3114
    265  C5'       12.1710    2.3250  -15.7430 C.3    14  DC14        0.1811
    266  C4'       11.4070    1.2200  -16.4530 C.3    14  DC14        0.1746
    267  O4'       10.3860    0.6820  -15.5750 O.3    14  DC14       -0.3327
    268  C3'       10.6340    1.6600  -17.6870 C.3    14  DC14        0.1558
    269  O3'       11.4700    1.6910  -18.8290 O.3    14  DC14       -0.3138
    270  C2'        9.5820    0.5650  -17.8030 C.3    14  DC14        0.0866
    271  C1'        9.2420    0.3340  -16.3330 C.3    14  DC14        0.2106
    272  N1         8.0350    1.1180  -15.9280 N.ar   14  DC14       -0.2556
    273  C2         6.7600    0.6230  -16.2280 C.ar   14  DC14        0.3531
    274  O2         6.6650   -0.4770  -16.7990 O.2    14  DC14       -0.2443
    275  N3         5.6720    1.3550  -15.8890 N.ar   14  DC14       -0.1739
    276  C4         5.8220    2.5300  -15.2780 C.ar   14  DC14        0.1759
    277  N4         4.7210    3.2160  -14.9630 N.pl3  14  DC14       -0.1070
    278  C5         7.1050    3.0490  -14.9650 C.ar   14  DC14        0.0566
    279  C6         8.1770    2.3230  -15.3020 C.ar   14  DC14        0.0849
    280  P         11.1370    2.6860  -19.9690 P.3    15  DA15        0.2141
    281  OP1       11.7340    3.2610  -21.1980 O.2    15  DA15       -0.5172
    282  OP2       10.7300    3.6490  -18.9200 O.3    15  DA15       -0.4373
    283  O5'        9.9280    1.7430  -20.4050 O.3    15  DA15       -0.3114
    284  C5'       10.1460    0.6000  -21.2310 C.3    15  DA15        0.1811
    285  C4'        8.8530    0.1890  -21.8950 C.3    15  DA15        0.1746
    286  O4'        7.8670   -0.0650  -20.8600 O.3    15  DA15       -0.3327
    287  C3'        8.2150    1.2800  -22.7310 C.3    15  DA15        0.1558
    288  O3'        8.7320    1.3530  -24.0520 O.3    15  DA15       -0.3138
    289  C2'        6.7550    0.8890  -22.7120 C.3    15  DA15        0.0865
    290  C1'        6.6090    0.4500  -21.2570 C.3    15  DA15        0.2094
    291  N9         6.2290    1.5790  -20.4250 N.ar   15  DA15       -0.2714
    292  C8         7.0690    2.4480  -19.7800 C.ar   15  DA15        0.1815
    293  N7         6.4450    3.3800  -19.0990 N.ar   15  DA15       -0.2193
    294  C5         5.1040    3.1040  -19.3120 C.ar   15  DA15        0.1518
    295  C6         3.9270    3.7270  -18.8610 C.ar   15  DA15        0.1919
    296  N6         3.9160    4.8010  -18.0680 N.pl3  15  DA15       -0.1054
    297  N1         2.7480    3.2020  -19.2570 N.ar   15  DA15       -0.2040
    298  C2         2.7600    2.1240  -20.0510 C.ar   15  DA15        0.2016
    299  N3         3.7990    1.4510  -20.5390 N.ar   15  DA15       -0.2048
    300  C4         4.9550    1.9990  -20.1280 C.ar   15  DA15        0.1691
    301  P          9.2580    2.7700  -24.5970 P.3    16  DA16        0.2141
    302  OP1       10.0260    2.5480  -25.8450 O.2    16  DA16       -0.5172
    303  OP2        9.3860    4.0350  -23.8340 O.3    16  DA16       -0.4373
    304  O5'        7.7030    2.6610  -24.9430 O.3    16  DA16       -0.3114
    305  C5'        7.3230    1.6840  -25.8980 C.3    16  DA16        0.1811
    306  C4'        5.8860    1.2580  -25.7490 C.3    16  DA16        0.1746
    307  O4'        5.5090    1.1660  -24.3500 O.3    16  DA16       -0.3327
    308  C3'        4.8460    2.1910  -26.3400 C.3    16  DA16        0.1558
    309  O3'        4.7540    2.0770  -27.7450 O.3    16  DA16       -0.3138
    310  C2'        3.5890    1.7380  -25.6180 C.3    16  DA16        0.0865
    311  C1'        4.1400    1.4830  -24.2130 C.3    16  DA16        0.2094
    312  N9         4.0660    2.6910  -23.3120 N.ar   16  DA16       -0.2714
    313  C8         5.1530    3.4390  -22.9410 C.ar   16  DA16        0.1815
    314  N7         4.8890    4.3350  -22.0190 N.ar   16  DA16       -0.2193
    315  C5         3.5360    4.1640  -21.7690 C.ar   16  DA16        0.1518
    316  C6         2.6480    4.8100  -20.8910 C.ar   16  DA16        0.1919
    317  N6         3.0090    5.7980  -20.0690 N.pl3  16  DA16       -0.1054
    318  N1         1.3620    4.3990  -20.8870 N.ar   16  DA16       -0.2040
    319  C2         1.0020    3.4080  -21.7100 C.ar   16  DA16        0.2016
    320  N3         1.7440    2.7240  -22.5770 N.ar   16  DA16       -0.2048
    321  C4         3.0160    3.1560  -22.5580 C.ar   16  DA16        0.1691
    322  P          4.8090    3.4010  -28.6230 P.3    17  DT17        0.2141
    323  OP1        4.8190    3.0650  -30.0630 O.2    17  DT17       -0.5172
    324  OP2        5.7370    4.4240  -28.0910 O.3    17  DT17       -0.4373
    325  O5'        3.3450    3.9020  -28.1890 O.3    17  DT17       -0.3114
    326  C5'        2.2190    3.0680  -28.4390 C.3    17  DT17        0.1811
    327  C4'        0.9540    3.5360  -27.7570 C.3    17  DT17        0.1746
    328  O4'        1.1330    3.5880  -26.3180 O.3    17  DT17       -0.3327
    329  C3'        0.4880    4.9370  -28.0980 C.3    17  DT17        0.1558
    330  O3'       -0.1470    5.0210  -29.3560 O.3    17  DT17       -0.3138
    331  C2'       -0.4220    5.2710  -26.9270 C.3    17  DT17        0.0866
    332  C1'        0.3700    4.6510  -25.7850 C.3    17  DT17        0.2106
    333  N1         1.2770    5.6240  -25.1790 N.ar   17  DT17       -0.2559
    334  C2         0.8060    6.4460  -24.1730 C.ar   17  DT17        0.3545
    335  O2        -0.3520    6.4370  -23.7950 O.2    17  DT17       -0.2443
    336  N3         1.7440    7.2860  -23.6230 N.ar   17  DT17       -0.1533
    337  C4         3.0750    7.3840  -23.9710 C.ar   17  DT17        0.2804
    338  O4         3.7960    8.1880  -23.3840 O.2    17  DT17       -0.2654
    339  C5         3.4870    6.4990  -25.0230 C.ar   17  DT17        0.0534
    340  C6         2.5950    5.6710  -25.5760 C.ar   17  DT17        0.0824
    341  C7         4.9170    6.5310  -25.4730 C.3    17  DT17        0.0377
    342  P          0.1380    6.2500  -30.2040 P.3    18  DT18        0.2141
    343  OP1       -0.0710    5.6700  -31.5510 O.2    18  DT18       -0.5172
    344  OP2        1.4300    6.8920  -29.8740 O.3    18  DT18       -0.4373
    345  O5'       -0.9390    7.4020  -29.9580 O.3    18  DT18       -0.3114
    346  C5'       -2.2840    7.0290  -29.7010 C.3    18  DT18        0.1812
    347  C4'       -2.9090    7.8630  -28.6100 C.3    18  DT18        0.1775
    348  O4'       -2.3290    7.5360  -27.3200 O.3    18  DT18       -0.3326
    349  C3'       -2.7160    9.3680  -28.7200 C.3    18  DT18        0.1859
    350  O3'       -3.5970    9.9700  -29.6480 O.3    18  DT18       -0.2202
    351  C2'       -2.9580    9.8320  -27.2940 C.3    18  DT18        0.0895
    352  C1'       -2.3600    8.6780  -26.4890 C.3    18  DT18        0.2107
    353  N1        -1.0300    8.9480  -25.9820 N.ar   18  DT18       -0.2559
    354  C2        -0.8740    9.4550  -24.7050 C.ar   18  DT18        0.3545
    355  O2        -1.8130    9.7010  -23.9690 O.2    18  DT18       -0.2443
    356  N3         0.4280    9.6660  -24.3190 N.ar   18  DT18       -0.1533
    357  C4         1.5630    9.4260  -25.0640 C.ar   18  DT18        0.2804
    358  O4         2.6670    9.6650  -24.5800 O.2    18  DT18       -0.2654
    359  C5         1.3180    8.9010  -26.3780 C.ar   18  DT18        0.0534
    360  C6         0.0620    8.6870  -26.7790 C.ar   18  DT18        0.0824
    361  C7         2.4900    8.6070  -27.2670 C.3    18  DT18        0.0377
    362  P         -3.2220   11.3970  -30.3040 P.3    19  DA19        0.4149
    363  OP1       -4.4610   11.6490  -31.0860 O.3    19  DA19       -0.1481
    364  OP2       -2.1210   12.3870  -30.3330 O.2    19  DA19       -0.2668
    365  O5'       -3.6330   11.1540  -28.7860 O.3    19  DA19       -0.2177
    366  C5'       -4.9980   11.3050  -28.3530 C.3    19  DA19        0.2140
    367  C4'       -5.0580   12.2160  -27.1530 C.3    19  DA19        0.1776
    368  O4'       -4.2020   11.6730  -26.1130 O.3    19  DA19       -0.3326
    369  C3'       -4.5170   13.6160  -27.3860 C.3    19  DA19        0.1559
    370  O3'       -5.5100   14.4630  -27.9600 O.3    19  DA19       -0.3138
    371  C2'       -4.0950   14.0420  -25.9860 C.3    19  DA19        0.0865
    372  C1'       -3.5400   12.7290  -25.4370 C.3    19  DA19        0.2094
    373  N9        -2.1250   12.6740  -25.6700 N.ar   19  DA19       -0.2714
    374  C8        -1.4410   12.0020  -26.6490 C.ar   19  DA19        0.1815
    375  N7        -0.1510   12.2450  -26.6550 N.ar   19  DA19       -0.2193
    376  C5         0.0230   13.1370  -25.6100 C.ar   19  DA19        0.1518
    377  C6         1.1630   13.7790  -25.0940 C.ar   19  DA19        0.1919
    378  N6         2.3930   13.6090  -25.5850 N.pl3  19  DA19       -0.1054
    379  N1         0.9930   14.6100  -24.0440 N.ar   19  DA19       -0.2040
    380  C2        -0.2400   14.7790  -23.5520 C.ar   19  DA19        0.2016
    381  N3        -1.3860   14.2320  -23.9490 N.ar   19  DA19       -0.2048
    382  C4        -1.1830   13.4120  -24.9940 C.ar   19  DA19        0.1691
    383  P         -5.1290   15.5960  -28.8920 P.3    20  DA20        0.2141
    384  OP1       -6.5110   15.9760  -29.2590 O.3    20  DA20       -0.4373
    385  OP2       -4.1930   15.1120  -29.9330 O.2    20  DA20       -0.5172
    386  O5'       -4.3740   16.8390  -28.2150 O.3    20  DA20       -0.3114
    387  C5'       -4.9810   17.5150  -27.1210 C.3    20  DA20        0.1811
    388  C4'       -4.0030   17.8940  -26.0320 C.3    20  DA20        0.1746
    389  O4'       -3.1570   16.7610  -25.6890 O.3    20  DA20       -0.3327
    390  C3'       -3.0040   19.0030  -26.3500 C.3    20  DA20        0.1558
    391  O3'       -3.5460   20.3110  -26.2900 O.3    20  DA20       -0.3138
    392  C2'       -1.9230   18.7610  -25.3050 C.3    20  DA20        0.0865
    393  C1'       -1.8940   17.2310  -25.2540 C.3    20  DA20        0.2094
    394  N9        -0.8370   16.7910  -26.0560 N.ar   20  DA20       -0.2714
    395  C8        -0.9860   16.2400  -27.3020 C.ar   20  DA20        0.1815
    396  N7         0.1340   15.7960  -27.8220 N.ar   20  DA20       -0.2193
    397  C5         1.0830   16.0740  -26.8510 C.ar   20  DA20        0.1518
    398  C6         2.4700   15.8490  -26.7920 C.ar   20  DA20        0.1919
    399  N6         3.1670   15.2670  -27.7700 N.pl3  20  DA20       -0.1054
    400  N1         3.1220   16.2490  -25.6790 N.ar   20  DA20       -0.2040
    401  C2         2.4230   16.8320  -24.6990 C.ar   20  DA20        0.2016
    402  N3         1.1200   17.0960  -24.6380 N.ar   20  DA20       -0.2048
    403  C4         0.5000   16.6880  -25.7590 C.ar   20  DA20        0.1691
    404  P         -2.7670   21.5630  -27.1330 P.3    21  DT21        0.2141
    405  OP1       -3.3630   22.8470  -26.6880 O.3    21  DT21       -0.4373
    406  OP2       -2.6500   21.3360  -28.6020 O.2    21  DT21       -0.5172
    407  O5'       -1.3460   21.4370  -26.4050 O.3    21  DT21       -0.3114
    408  C5'       -1.1310   22.2060  -25.2370 C.3    21  DT21        0.1811
    409  C4'        0.3380   22.3410  -24.9160 C.3    21  DT21        0.1746
    410  O4'        0.8980   21.0110  -24.6690 O.3    21  DT21       -0.3327
    411  C3'        1.1930   22.9700  -26.0210 C.3    21  DT21        0.1558
    412  O3'        1.1310   24.4210  -26.1090 O.3    21  DT21       -0.3138
    413  C2'        2.5670   22.3820  -25.6750 C.3    21  DT21        0.0866
    414  C1'        2.1810   20.9320  -25.2820 C.3    21  DT21        0.2106
    415  N1         2.1620   20.0620  -26.5280 N.ar   21  DT21       -0.2559
    416  C2         3.3750   19.6090  -27.0120 C.ar   21  DT21        0.3545
    417  O2         4.4460   19.9380  -26.5340 O.2    21  DT21       -0.2443
    418  N3         3.2890   18.7520  -28.0830 N.ar   21  DT21       -0.1533
    419  C4         2.1390   18.3130  -28.7050 C.ar   21  DT21        0.2804
    420  O4         2.2230   17.5420  -29.6570 O.2    21  DT21       -0.2654
    421  C5         0.9210   18.8290  -28.1450 C.ar   21  DT21        0.0534
    422  C6         0.9750   19.6630  -27.1030 C.ar   21  DT21        0.0824
    423  C7        -0.3850   18.4110  -28.7530 C.3    21  DT21        0.0377
    424  P          0.9020   25.1060  -27.5280 P.3    22  DC22        0.2141
    425  OP1        0.3610   26.4820  -27.4220 O.3    22  DC22       -0.4373
    426  OP2        0.2120   24.1150  -28.3950 O.2    22  DC22       -0.5172
    427  O5'        2.4430   25.2100  -27.9550 O.3    22  DC22       -0.3114
    428  C5'        3.2430   26.3340  -27.5660 C.3    22  DC22        0.1811
    429  C4'        4.7170   25.9740  -27.5460 C.3    22  DC22        0.1746
    430  O4'        4.8500   24.5850  -27.1450 O.3    22  DC22       -0.3327
    431  C3'        5.5060   26.0620  -28.8490 C.3    22  DC22        0.1558
    432  O3'        6.0230   27.3640  -29.0960 O.3    22  DC22       -0.3138
    433  C2'        6.6510   25.0860  -28.6040 C.3    22  DC22        0.0866
    434  C1'        5.9490   23.9880  -27.8130 C.3    22  DC22        0.2106
    435  N1         5.5390   22.9070  -28.7060 N.ar   22  DC22       -0.2556
    436  C2         6.4750   22.0410  -29.2850 C.ar   22  DC22        0.3531
    437  O2         7.6830   22.2400  -29.0740 O.2    22  DC22       -0.2443
    438  N3         6.0370   21.0170  -30.0550 N.ar   22  DC22       -0.1739
    439  C4         4.7300   20.8430  -30.2540 C.ar   22  DC22        0.1759
    440  N4         4.3450   19.8190  -31.0200 N.pl3  22  DC22       -0.1070
    441  C5         3.7660   21.7090  -29.6770 C.ar   22  DC22        0.0566
    442  C6         4.2030   22.7200  -28.9170 C.ar   22  DC22        0.0849
    443  P          6.3340   27.7550  -30.5500 P.3    23  DG23        0.2141
    444  OP1        6.9020   29.1200  -30.5160 O.3    23  DG23       -0.4373
    445  OP2        5.0660   27.5020  -31.2540 O.2    23  DG23       -0.5172
    446  O5'        7.4320   26.7520  -31.1380 O.3    23  DG23       -0.3114
    447  C5'        8.7980   27.1360  -31.1130 C.3    23  DG23        0.1811
    448  C4'        9.7220   25.9380  -31.1890 C.3    23  DG23        0.1746
    449  O4'        9.1600   24.8120  -30.4700 O.3    23  DG23       -0.3327
    450  C3'        9.9500   25.3970  -32.5870 C.3    23  DG23        0.1558
    451  O3'       10.9080   26.1750  -33.2700 O.3    23  DG23       -0.3138
    452  C2'       10.4470   23.9940  -32.2730 C.3    23  DG23        0.0865
    453  C1'        9.4670   23.6160  -31.1670 C.3    23  DG23        0.2094
    454  N9         8.1870   22.9930  -31.6990 N.ar   23  DG23       -0.2713
    455  C8         6.9150   23.4750  -31.5120 C.ar   23  DG23        0.1816
    456  N7         5.9890   22.6830  -31.9820 N.ar   23  DG23       -0.2173
    457  C5         6.6880   21.6130  -32.5080 C.ar   23  DG23        0.1748
    458  C6         6.2280   20.4380  -33.1560 C.ar   23  DG23        0.3023
    459  O6         5.0610   20.1050  -33.3980 O.2    23  DG23       -0.2633
    460  N1         7.2780   19.6080  -33.5380 N.ar   23  DG23       -0.1709
    461  C2         8.6080   19.8770  -33.3210 C.ar   23  DG23        0.2606
    462  N2         9.4760   18.9550  -33.7600 N.pl3  23  DG23       -0.0859
    463  N3         9.0520   20.9640  -32.7210 N.ar   23  DG23       -0.1918
    464  C4         8.0490   21.7850  -32.3430 C.ar   23  DG23        0.1722
    465  P         10.5090   26.4950  -34.3660 P.3    24  DC24        0.2141
    466  OP1       11.6020   27.4720  -34.6050 O.2    24  DC24       -0.5172
    467  OP2        9.1000   26.9780  -34.2770 O.3    24  DC24       -0.4373
    468  O5'       10.6190   25.3570  -35.4880 O.3    24  DC24       -0.3114
    469  C5'       11.8930   24.7960  -35.8020 C.3    24  DC24        0.1811
    470  C4'       11.7750   23.6230  -36.7550 C.3    24  DC24        0.1746
    471  O4'       11.0570   22.5330  -36.1090 O.3    24  DC24       -0.3327
    472  C3'       10.9820   23.8570  -38.0320 C.3    24  DC24        0.1558
    473  O3'       11.7170   24.5480  -39.0370 O.3    24  DC24       -0.3138
    474  C2'       10.6210   22.4350  -38.4360 C.3    24  DC24        0.0866
    475  C1'       10.3080   21.8160  -37.0800 C.3    24  DC24        0.2106
    476  N1         8.9270   21.8600  -36.7700 N.ar   24  DC24       -0.2556
    477  C2         8.0590   20.9320  -37.3560 C.ar   24  DC24        0.3531
    478  O2         8.5330   20.0610  -38.1070 O.2    24  DC24       -0.2443
    479  N3         6.7330   21.0090  -37.0900 N.ar   24  DC24       -0.1739
    480  C4         6.2700   21.9610  -36.2800 C.ar   24  DC24        0.1759
    481  N4         4.9560   21.9980  -36.0470 N.pl3  24  DC24       -0.1070
    482  C5         7.1330   22.9110  -35.6760 C.ar   24  DC24        0.0566
    483  C6         8.4410   22.8310  -35.9410 C.ar   24  DC24        0.0849
    484  P         10.9100   25.3130  -40.2750 P.3    25  DA25        0.2141
    485  OP1       11.7500   25.9180  -41.3340 O.2    25  DA25       -0.5172
    486  OP2        9.8480   26.1270  -39.6440 O.3    25  DA25       -0.4373
    487  O5'       10.2350   23.9720  -40.8350 O.3    25  DA25       -0.3114
    488  C5'       10.9770   23.0850  -41.6660 C.3    25  DA25        0.1811
    489  C4'       10.1020   21.9770  -42.2280 C.3    25  DA25        0.1746
    490  O4'        9.3110   21.3870  -41.1640 O.3    25  DA25       -0.3327
    491  C3'        9.0630   22.4120  -43.2500 C.3    25  DA25        0.1558
    492  O3'        9.6350   22.5540  -44.5430 O.3    25  DA25       -0.3138
    493  C2'        8.0920   21.2420  -43.1810 C.3    25  DA25        0.0865
    494  C1'        8.0510   20.9930  -41.6730 C.3    25  DA25        0.2094
    495  N9         6.9910   21.8270  -41.0330 N.ar   25  DA25       -0.2714
    496  C8         7.0900   23.0580  -40.4380 C.ar   25  DA25        0.1815
    497  N7         5.9460   23.5270  -39.9980 N.ar   25  DA25       -0.2193
    498  C5         5.0340   22.5370  -40.3270 C.ar   25  DA25        0.1518
    499  C6         3.6460   22.4270  -40.1310 C.ar   25  DA25        0.1919
    500  N6         2.9080   23.3630  -39.5300 N.pl3  25  DA25       -0.1054
    501  N1         3.0370   21.3090  -40.5800 N.ar   25  DA25       -0.2040
    502  C2         3.7770   20.3710  -41.1820 C.ar   25  DA25        0.2016
    503  N3         5.0860   20.3600  -41.4230 N.ar   25  DA25       -0.2048
    504  C4         5.6620   21.4850  -40.9660 C.ar   25  DA25        0.1691
    505  P          9.0990   23.7240  -45.5150 P.3    26  DT26        0.2141
    506  OP1       10.4610   23.4520  -46.0130 O.2    26  DT26       -0.5172
    507  OP2        8.7350   25.0870  -45.0260 O.3    26  DT26       -0.4373
    508  O5'        8.0370   23.3330  -46.6450 O.3    26  DT26       -0.3114
    509  C5'        7.7750   21.9810  -46.9620 C.3    26  DT26        0.1811
    510  C4'        6.3000   21.7630  -47.2630 C.3    26  DT26        0.1746
    511  O4'        5.6510   21.1970  -46.1040 O.3    26  DT26       -0.3327
    512  C3'        5.4600   22.9940  -47.5560 C.3    26  DT26        0.1558
    513  O3'        5.6110   23.3920  -48.8890 O.3    26  DT26       -0.3138
    514  C2'        4.0690   22.4290  -47.3410 C.3    26  DT26        0.0866
    515  C1'        4.2920   21.5810  -46.0980 C.3    26  DT26        0.2106
    516  N1         4.0130   22.3430  -44.8800 N.ar   26  DT26       -0.2559
    517  C2         2.7400   22.2940  -44.3450 C.ar   26  DT26        0.3545
    518  O2         1.8370   21.6410  -44.8380 O.2    26  DT26       -0.2443
    519  N3         2.5590   23.0410  -43.2060 N.ar   26  DT26       -0.1533
    520  C4         3.5030   23.8150  -42.5630 C.ar   26  DT26        0.2804
    521  O4         3.1900   24.4290  -41.5460 O.2    26  DT26       -0.2654
    522  C5         4.7990   23.8150  -43.1800 C.ar   26  DT26        0.0534
    523  C6         5.0030   23.0980  -44.2880 C.ar   26  DT26        0.0824
    524  C7         5.8940   24.6280  -42.5550 C.3    26  DT26        0.0377
    525  P          5.1800   24.7490  -49.1910 P.3    27  DT27        0.2141
    526  OP1        5.4390   24.7290  -50.6430 O.2    27  DT27       -0.5172
    527  OP2        5.9180   25.6440  -48.2760 O.3    27  DT27       -0.4373
    528  O5'        3.6430   25.1030  -49.0240 O.3    27  DT27       -0.3114
    529  C5'        2.6510   24.4230  -49.7460 C.3    27  DT27        0.1811
    530  C4'        1.3830   24.4630  -48.9180 C.3    27  DT27        0.1746
    531  O4'        1.6900   24.0060  -47.5850 O.3    27  DT27       -0.3327
    532  C3'        0.7810   25.8500  -48.7240 C.3    27  DT27        0.1558
    533  O3'       -0.0460   26.1820  -49.8360 O.3    27  DT27       -0.3138
    534  C2'       -0.0020   25.6500  -47.4350 C.3    27  DT27        0.0866
    535  C1'        0.8910   24.6980  -46.6500 C.3    27  DT27        0.2106
    536  N1         1.8060   25.1830  -45.6490 N.ar   27  DT27       -0.2574
    537  C2         1.3180   25.5500  -44.4090 C.ar   27  DT27        0.3310
    538  O2         0.1450   25.4420  -44.0990 O.3    27  DT27       -0.3352
    539  N3         2.2560   26.0510  -43.5400 N.ar   27  DT27       -0.1549
    540  C4         3.6040   26.2200  -43.7810 C.ar   27  DT27        0.2804
    541  O4         4.3230   26.6830  -42.8990 O.2    27  DT27       -0.2654
    542  C5         4.0330   25.8170  -45.0910 C.ar   27  DT27        0.0534
    543  C6         3.1420   25.3260  -45.9550 C.ar   27  DT27        0.0824
    544  C7         5.4820   25.9620  -45.4500 C.3    27  DT27        0.0377
    545  P          0.0850   27.5240  -50.6110 P.3    28  DA28        0.2141
    546  OP1       -0.1280   27.8720  -52.0430 O.2    28  DA28       -0.5172
    547  OP2        1.2770   28.0490  -49.9030 O.3    28  DA28       -0.4373
    548  O5'       -1.1810   28.0020  -49.7760 O.3    28  DA28       -0.3114
    549  C5'       -2.4910   27.5730  -50.1230 C.3    28  DA28        0.1811
    550  C4'       -3.4540   27.8800  -49.0050 C.3    28  DA28        0.1744
    551  O4'       -3.4280   26.8500  -47.9730 O.3    28  DA28       -0.3349
    552  C3'       -3.2140   29.2170  -48.3170 C.3    28  DA28        0.1555
    553  O3'       -4.3540   30.0620  -48.3010 O.3    28  DA28       -0.3139
    554  C2'       -2.7370   28.8370  -46.9190 C.3    28  DA28        0.0835
    555  C1'       -3.3470   27.4530  -46.7000 C.3    28  DA28        0.1973
    556  N9        -2.6540   26.6930  -46.0230 N.pl3  28  DA28       -0.2475
    557  C8        -1.3090   26.5180  -46.2210 C.3    28  DA28        0.2422
    558  N7        -0.5930   26.6380  -45.1280 N.4    28  DA28       -0.1654
    559  C5        -1.5320   26.9120  -44.1460 C.ar   28  DA28        0.1614
    560  C6        -1.4140   27.1460  -42.7650 C.ar   28  DA28        0.1927
    561  N6        -0.2500   27.1400  -42.1100 N.pl3  28  DA28       -0.1054
    562  N1        -2.5470   27.3900  -42.0720 N.ar   28  DA28       -0.2040
    563  C2        -3.7130   27.3950  -42.7280 C.ar   28  DA28        0.2014
    564  N3        -3.9500   27.1880  -44.0220 N.ar   28  DA28       -0.2072
    565  C4        -2.8050   26.9500  -44.6820 C.ar   28  DA28        0.1582
    566  P         -4.0970   31.7450  -47.9640 P.3    29  DC29        0.2141
    567  OP1       -4.9780   32.4760  -48.9150 O.2    29  DC29       -0.5172
    568  OP2       -2.6490   32.0730  -47.9120 O.3    29  DC29       -0.4373
    569  O5'       -4.7150   31.8810  -46.4960 O.3    29  DC29       -0.3114
    570  C5'       -6.1450   31.8450  -46.2940 C.3    29  DC29        0.1811
    571  C4'       -6.4960   31.4010  -44.8860 C.3    29  DC29        0.1746
    572  O4'       -5.7700   30.1870  -44.5570 O.3    29  DC29       -0.3327
    573  C3'       -6.2080   32.3570  -43.7370 C.3    29  DC29        0.1558
    574  O3'       -7.2880   33.2650  -43.5660 O.3    29  DC29       -0.3138
    575  C2'       -6.1210   31.4150  -42.5450 C.3    29  DC29        0.0866
    576  C1'       -5.5010   30.1580  -43.1650 C.3    29  DC29        0.2106
    577  N1        -4.0550   30.1670  -43.0130 N.ar   29  DC29       -0.2556
    578  C2        -3.4870   29.7420  -41.8060 C.ar   29  DC29        0.3531
    579  O2        -4.2370   29.3280  -40.9050 O.2    29  DC29       -0.2443
    580  N3        -2.1420   29.7940  -41.6560 N.ar   29  DC29       -0.1739
    581  C4        -1.3760   30.2460  -42.6500 C.ar   29  DC29        0.1759
    582  N4        -0.0560   30.2790  -42.4560 N.pl3  29  DC29       -0.1070
    583  C5        -1.9320   30.6810  -43.8800 C.ar   29  DC29        0.0566
    584  C6        -3.2610   30.6280  -44.0250 C.ar   29  DC29        0.0849
    585  P         -7.1120   34.1030  -42.7210 P.3    30  DC30        0.2141
    586  OP1       -8.4240   34.6930  -43.0650 O.2    30  DC30       -0.5172
    587  OP2       -5.9020   34.9420  -42.7660 O.3    30  DC30       -0.4373
    588  O5'       -7.1730   33.5080  -41.2320 O.3    30  DC30       -0.3114
    589  C5'       -8.4110   33.4030  -40.4940 C.3    30  DC30        0.1811
    590  C4'       -8.1760   32.7750  -39.1220 C.3    30  DC30        0.1746
    591  O4'       -7.1700   31.7290  -39.2620 O.3    30  DC30       -0.3327
    592  C3'       -7.6410   33.6730  -38.0040 C.3    30  DC30        0.1558
    593  O3'       -8.6970   34.3500  -37.3010 O.3    30  DC30       -0.3138
    594  C2'       -6.9080   32.6820  -37.0960 C.3    30  DC30        0.0866
    595  C1'       -6.3500   31.6830  -38.1070 C.3    30  DC30        0.2106
    596  N1        -5.0430   32.0070  -38.3270 N.ar   30  DC30       -0.2556
    597  C2        -4.0330   31.5660  -37.4640 C.ar   30  DC30        0.3531
    598  O2        -4.3540   30.9470  -36.4350 O.2    30  DC30       -0.2443
    599  N3        -2.7410   31.8270  -37.7740 N.ar   30  DC30       -0.1739
    600  C4        -2.4440   32.4960  -38.8880 C.ar   30  DC30        0.1759
    601  N4        -1.1560   32.7300  -39.1520 N.pl3  30  DC30       -0.1070
    602  C5        -3.4530   32.9520  -39.7760 C.ar   30  DC30        0.0566
    603  C6        -4.7280   32.6920  -39.4660 C.ar   30  DC30        0.0849
    604  P         -8.3600   35.5140  -36.5500 P.3    31  DT31        0.2141
    605  OP1       -9.7610   35.7870  -36.9800 O.2    31  DT31       -0.5172
    606  OP2       -7.4370   36.6470  -36.2960 O.3    31  DT31       -0.4373
    607  O5'       -8.3880   34.5800  -35.2570 O.3    31  DT31       -0.3114
    608  C5'       -7.1660   34.2190  -34.5890 C.3    31  DT31        0.1812
    609  C4'       -7.4230   33.1560  -33.5490 C.3    31  DT31        0.1775
    610  O4'       -8.3170   33.6930  -32.5340 O.3    31  DT31       -0.3326
    611  C3'       -8.0740   31.8630  -34.0460 C.3    31  DT31        0.1864
    612  O3'       -7.6130   30.7630  -33.2610 O.3    31  DT31       -0.2133
    613  C2'       -9.5410   32.0900  -33.7000 C.3    31  DT31        0.0895
    614  C1'       -9.4060   32.8160  -32.3680 C.3    31  DT31        0.2107
    615  N1       -10.5680   33.7030  -31.7650 N.ar   31  DT31       -0.2559
    616  C2       -11.1970   33.2560  -30.6180 C.ar   31  DT31        0.3545
    617  O2       -10.9000   32.2130  -30.0620 O.2    31  DT31       -0.2443
    618  N3       -12.1910   34.0760  -30.1420 N.ar   31  DT31       -0.1533
    619  C4       -12.6110   35.2720  -30.6860 C.ar   31  DT31        0.2804
    620  O4       -13.5180   35.8980  -30.1440 O.2    31  DT31       -0.2654
    621  C5       -11.9110   35.6680  -31.8760 C.ar   31  DT31        0.0534
    622  C6       -10.9400   34.8890  -32.3600 C.ar   31  DT31        0.0824
    623  C7       -12.2960   36.9550  -32.5440 C.3    31  DT31        0.0377
    624  P         -6.3180   29.1740  -33.8020 P.3    32  DT32        0.3939
    625  OP1       -7.2020   29.5130  -32.6580 O.3    32  DT32       -0.1496
    626  OP2       -5.1810   28.2400  -33.6060 O.3    32  DT32       -0.1425
    627  O5'       -7.3070   28.6380  -34.9580 O.3    32  DT32       -0.2926
    628  C5'       -7.1520   27.3630  -35.5630 C.3    32  DT32        0.1828
    629  C4'       -7.1120   27.4960  -37.0730 C.3    32  DT32        0.1747
    630  O4'       -6.2030   28.5430  -37.5120 O.3    32  DT32       -0.3327
    631  C3'       -6.5470   26.2890  -37.8040 C.3    32  DT32        0.1558
    632  O3'       -7.4120   25.1610  -37.7560 O.3    32  DT32       -0.3138
    633  C2'       -6.3670   26.8950  -39.1910 C.3    32  DT32        0.0866
    634  C1'       -5.6390   28.1780  -38.7700 C.3    32  DT32        0.2106
    635  N1        -4.0300   27.9870  -38.2700 N.ar   32  DT32       -0.2559
    636  C2        -3.0660   27.6950  -39.2160 C.ar   32  DT32        0.3545
    637  O2        -3.3350   27.3260  -40.3460 O.2    32  DT32       -0.2443
    638  N3        -1.7690   27.8510  -38.7910 N.ar   32  DT32       -0.1533
    639  C4        -1.3480   28.2600  -37.5430 C.ar   32  DT32        0.2804
    640  O4        -0.1450   28.3540  -37.3110 O.2    32  DT32       -0.2654
    641  C5        -2.4080   28.5430  -36.6160 C.ar   32  DT32        0.0534
    642  C6        -3.6780   28.4000  -37.0030 C.ar   32  DT32        0.0824
    643  C7        -2.0520   28.9950  -35.2310 C.3    32  DT32        0.0377
    644  P         -6.8260   24.1570  -37.3690 P.3    33  DA33        0.2141
    645  OP1       -7.8430   23.6400  -36.4060 O.3    33  DA33       -0.4373
    646  OP2       -5.4790   24.5780  -36.9150 O.2    33  DA33       -0.5172
    647  O5'       -6.6550   23.4470  -38.7880 O.3    33  DA33       -0.3114
    648  C5'       -7.7000   23.3160  -39.7230 C.3    33  DA33        0.1811
    649  C4'       -7.1760   22.5520  -40.9000 C.3    33  DA33        0.1746
    650  O4'       -6.2870   23.4260  -41.6480 O.3    33  DA33       -0.3327
    651  C3'       -6.3380   21.3180  -40.5520 C.3    33  DA33        0.1558
    652  O3'       -7.1900   20.1610  -40.3030 O.3    33  DA33       -0.3138
    653  C2'       -5.4730   21.2060  -41.8030 C.3    33  DA33        0.0865
    654  C1'       -5.1920   22.6820  -42.1320 C.3    33  DA33        0.2094
    655  N9        -4.0080   23.3230  -41.4360 N.ar   33  DA33       -0.2714
    656  C8        -3.9360   24.1640  -40.3570 C.ar   33  DA33        0.1815
    657  N7        -2.7140   24.3650  -39.9230 N.ar   33  DA33       -0.2193
    658  C5        -1.9300   23.6040  -40.7750 C.ar   33  DA33        0.1518
    659  C6        -0.5420   23.3900  -40.8460 C.ar   33  DA33        0.1919
    660  N6         0.3350   23.9500  -40.0090 N.pl3  33  DA33       -0.1054
    661  N1        -0.0830   22.5720  -41.8160 N.ar   33  DA33       -0.2040
    662  C2        -0.9630   22.0120  -42.6540 C.ar   33  DA33        0.2016
    663  N3        -2.2880   22.1370  -42.6890 N.ar   33  DA33       -0.2048
    664  C4        -2.7130   22.9550  -41.7120 C.ar   33  DA33        0.1691
    665  P         -6.6720   18.8330  -39.2280 P.3    34  DT34        0.2141
    666  OP1       -7.7210   17.8150  -39.4580 O.2    34  DT34       -0.5172
    667  OP2       -6.3530   19.2940  -37.8570 O.3    34  DT34       -0.4373
    668  O5'       -5.2690   18.2980  -39.7920 O.3    34  DT34       -0.3114
    669  C5'       -5.2880   17.3470  -40.8530 C.3    34  DT34        0.1811
    670  C4'       -4.0100   17.2510  -41.6620 C.3    34  DT34        0.1746
    671  O4'       -3.4340   18.5760  -41.8540 O.3    34  DT34       -0.3327
    672  C3'       -2.9030   16.3940  -41.0470 C.3    34  DT34        0.1558
    673  O3'       -2.7060   15.1400  -41.6890 O.3    34  DT34       -0.3138
    674  C2'       -1.6170   17.2010  -41.1810 C.3    34  DT34        0.0866
    675  C1'       -2.0200   18.5380  -41.7740 C.3    34  DT34        0.2106
    676  N1        -1.4870   19.4820  -40.9720 N.ar   34  DT34       -0.2559
    677  C2        -0.2080   19.9610  -41.1790 C.ar   34  DT34        0.3545
    678  O2         0.4800   19.6290  -42.1290 O.2    34  DT34       -0.2443
    679  N3         0.2420   20.8470  -40.2300 N.ar   34  DT34       -0.1533
    680  C4        -0.4450   21.2920  -39.1200 C.ar   34  DT34        0.2804
    681  O4         0.0920   22.0910  -38.3570 O.2    34  DT34       -0.2654
    682  C5        -1.7660   20.7480  -38.9740 C.ar   34  DT34        0.0534
    683  C6        -2.2280   19.8850  -39.8820 C.ar   34  DT34        0.0824
    684  C7        -2.5940   21.1700  -37.7960 C.3    34  DT34        0.0377
    685  P         -2.0040   14.3980  -40.8870 P.3    35  DA35        0.2141
    686  OP1       -2.2740   12.9900  -41.2750 O.2    35  DA35       -0.5172
    687  OP2       -2.2020   14.8120  -39.4820 O.3    35  DA35       -0.4373
    688  O5'       -0.4890   14.7930  -41.1870 O.3    35  DA35       -0.3114
    689  C5'        0.1880   14.3190  -42.3460 C.3    35  DA35        0.1811
    690  C4'        1.6810   14.4440  -42.1690 C.3    35  DA35        0.1746
    691  O4'        2.0510   15.8410  -42.1940 O.3    35  DA35       -0.3327
    692  C3'        2.2290   13.9300  -40.8490 C.3    35  DA35        0.1558
    693  O3'        2.4390   12.5270  -40.8900 O.3    35  DA35       -0.3138
    694  C2'        3.5200   14.7220  -40.6830 C.3    35  DA35        0.0865
    695  C1'        3.1160   16.0740  -41.2830 C.3    35  DA35        0.2094
    696  N9         2.6040   17.0750  -40.3230 N.ar   35  DA35       -0.2714
    697  C8         1.3350   17.2710  -39.8460 C.ar   35  DA35        0.1815
    698  N7         1.2610   18.1670  -38.8900 N.ar   35  DA35       -0.2193
    699  C5         2.5720   18.5860  -38.7270 C.ar   35  DA35        0.1518
    700  C6         3.1650   19.5260  -37.8660 C.ar   35  DA35        0.1919
    701  N6         2.4800   20.2420  -36.9710 N.pl3  35  DA35       -0.1054
    702  N1         4.4990   19.7070  -37.9580 N.ar   35  DA35       -0.2040
    703  C2         5.1840   18.9890  -38.8560 C.ar   35  DA35        0.2016
    704  N3         4.7400   18.0780  -39.7190 N.ar   35  DA35       -0.2048
    705  C4         3.4110   17.9220  -39.6020 C.ar   35  DA35        0.1691
    706  P          2.4600   11.6220  -39.4590 P.3    36  DC36        0.2141
    707  OP1        2.3480   10.2830  -40.0780 O.2    36  DC36       -0.5172
    708  OP2        1.3750   12.1170  -38.5940 O.3    36  DC36       -0.4373
    709  O5'        3.8350   11.6610  -38.6630 O.3    36  DC36       -0.3114
    710  C5'        5.0510   11.2300  -39.3010 C.3    36  DC36        0.1811
    711  C4'        6.2380   11.9340  -38.7000 C.3    36  DC36        0.1744
    712  O4'        6.0250   13.3660  -38.7780 O.3    36  DC36       -0.3348
    713  C3'        6.4840   11.7000  -37.2180 C.3    36  DC36        0.1555
    714  O3'        7.1530   10.4720  -36.9740 O.3    36  DC36       -0.3139
    715  C2'        7.3430   12.9020  -36.8620 C.3    36  DC36        0.0836
    716  C1'        6.6630   13.9950  -37.6810 C.3    36  DC36        0.2000
    717  N1         5.6390   14.7520  -36.9620 N.pl3  36  DC36       -0.2120
    718  C2         5.9980   15.8560  -36.1790 C.2    36  DC36        0.4498
    719  O2         7.2030   16.0660  -35.9590 O.2    36  DC36       -0.2309
    720  N3         5.0250   16.6580  -35.6860 N.2    36  DC36        0.0250
    721  C4         3.7450   16.3930  -35.9470 C.2    36  DC36        0.4172
    722  N4         2.8210   17.2120  -35.4400 N.pl3  36  DC36        0.2162
    723  C5         3.3600   15.2800  -36.7380 C.2    36  DC36        0.0937
    724  C6         4.3240   14.4900  -37.2230 C.3    36  DC36        0.1340
    725  P          6.8910    9.6510  -35.4670 P.3    37  DC37        0.2141
    726  OP1        7.5170    8.3130  -35.3490 O.2    37  DC37       -0.5172
    727  OP2        5.6210    9.9250  -34.7560 O.3    37  DC37       -0.4373
    728  O5'        7.9740   10.7620  -35.0550 O.3    37  DC37       -0.3114
    729  C5'        9.3660   10.4660  -35.0960 C.3    37  DC37        0.1811
    730  C4'       10.1770   11.6700  -35.5390 C.3    37  DC37        0.1744
    731  O4'        9.3520   12.5680  -36.3280 O.3    37  DC37       -0.3348
    732  C3'       10.6860   12.5620  -34.4150 C.3    37  DC37        0.1555
    733  O3'       11.8410   12.0190  -33.7820 O.3    37  DC37       -0.3139
    734  C2'       10.9700   13.8380  -35.1980 C.3    37  DC37        0.0836
    735  C1'        9.6760   13.9100  -35.9980 C.3    37  DC37        0.1998
    736  N1         8.5610   14.5860  -35.1360 N.am   37  DC37       -0.2140
    737  C2         8.5560   15.9430  -34.7960 C.2    37  DC37        0.4391
    738  O2         9.5770   16.6180  -35.0140 O.2    37  DC37       -0.2195
    739  N3         7.4430   16.4800  -34.2410 N.am   37  DC37        0.0671
    740  C4         6.3710   15.7170  -34.0250 C.2    37  DC37        0.4076
    741  N4         5.2980   16.2900  -33.4750 N.pl3  37  DC37        0.2136
    742  C5         6.3560   14.3400  -34.3620 C.2    37  DC37        0.0913
    743  C6         7.4570   13.8130  -34.9100 C.3    37  DC37        0.1336
    744  P         11.8260   11.9950  -32.4310 P.3    38  DA38        0.2141
    745  OP1       13.1040   11.3840  -32.0020 O.2    38  DA38       -0.5172
    746  OP2       10.5720   11.6800  -31.7090 O.3    38  DA38       -0.4373
    747  O5'       11.9240   13.5990  -32.3910 O.3    38  DA38       -0.3114
    748  C5'       13.1870   14.2560  -32.4470 C.3    38  DA38        0.1811
    749  C4'       13.1040   15.7460  -32.1940 C.3    38  DA38        0.1746
    750  O4'       12.0870   16.3410  -33.0470 O.3    38  DA38       -0.3327
    751  C3'       12.7050   16.2030  -30.7950 C.3    38  DA38        0.1558
    752  O3'       13.7330   16.1250  -29.8180 O.3    38  DA38       -0.3138
    753  C2'       12.2180   17.6200  -31.0650 C.3    38  DA38        0.0865
    754  C1'       11.4460   17.3960  -32.3630 C.3    38  DA38        0.2094
    755  N9         9.9980   16.8240  -31.8550 N.ar   38  DA38       -0.2714
    756  C8         9.5140   15.5520  -32.0160 C.ar   38  DA38        0.1815
    757  N7         8.2560   15.4160  -31.6720 N.ar   38  DA38       -0.2193
    758  C5         7.8880   16.6860  -31.2550 C.ar   38  DA38        0.1518
    759  C6         6.6760   17.2070  -30.7670 C.ar   38  DA38        0.1919
    760  N6         5.5680   16.4790  -30.6110 N.pl3  38  DA38       -0.1054
    761  N1         6.6440   18.5160  -30.4400 N.ar   38  DA38       -0.2040
    762  C2         7.7560   19.2450  -30.5970 C.ar   38  DA38        0.2016
    763  N3         8.9510   18.8690  -31.0460 N.ar   38  DA38       -0.2048
    764  C4         8.9500   17.5630  -31.3610 C.ar   38  DA38        0.1691
    765  P         13.6130   15.0300  -29.2940 P.3    39  DG39        0.2141
    766  OP1       14.5840   14.3860  -28.3540 O.3    39  DG39       -0.4373
    767  OP2       12.4460   14.2630  -29.8280 O.2    39  DG39       -0.5172
    768  O5'       13.0970   16.3310  -28.5480 O.3    39  DG39       -0.3114
    769  C5'       14.0030   17.1200  -27.7620 C.3    39  DG39        0.1811
    770  C4'       13.2450   18.1570  -26.9730 C.3    39  DG39        0.1746
    771  O4'       12.3130   18.8390  -27.8430 O.3    39  DG39       -0.3327
    772  C3'       12.3790   17.6140  -25.8550 C.3    39  DG39        0.1558
    773  O3'       13.1270   17.5290  -24.6730 O.3    39  DG39       -0.3138
    774  C2'       11.3400   18.7060  -25.6770 C.3    39  DG39        0.0865
    775  C1'       11.1660   19.2060  -27.1070 C.3    39  DG39        0.2094
    776  N9         9.9890   18.6560  -27.6840 N.ar   39  DG39       -0.2713
    777  C8         9.8550   17.4740  -28.3700 C.ar   39  DG39        0.1816
    778  N7         8.6120   17.1460  -28.5950 N.ar   39  DG39       -0.2173
    779  C5         7.8790   18.1710  -28.0260 C.ar   39  DG39        0.1748
    780  C6         6.4760   18.3710  -27.9490 C.ar   39  DG39        0.3023
    781  O6         5.5740   17.6470  -28.3900 O.2    39  DG39       -0.2633
    782  N1         6.1540   19.5480  -27.2800 N.ar   39  DG39       -0.1709
    783  C2         7.0700   20.4250  -26.7500 C.ar   39  DG39        0.2606
    784  N2         6.5670   21.5080  -26.1410 N.pl3  39  DG39       -0.0859
    785  N3         8.3750   20.2530  -26.8130 N.ar   39  DG39       -0.1918
    786  C4         8.7120   19.1150  -27.4580 C.ar   39  DG39        0.1722
    787  P         12.4430   16.9960  -23.3820 P.3    40  DC40        0.2141
    788  OP1       13.5510   17.0440  -22.4000 O.3    40  DC40       -0.4373
    789  OP2       11.8370   15.6940  -23.7370 O.2    40  DC40       -0.5172
    790  O5'       11.2690   17.9600  -22.8670 O.3    40  DC40       -0.3114
    791  C5'       11.5660   19.2020  -22.2220 C.3    40  DC40        0.1811
    792  C4'       10.3070   19.9200  -21.7540 C.3    40  DC40        0.1746
    793  O4'        9.4780   20.2460  -22.9010 O.3    40  DC40       -0.3327
    794  C3'        9.4090   19.1260  -20.8100 C.3    40  DC40        0.1558
    795  O3'        9.7490   19.3740  -19.4470 O.3    40  DC40       -0.3138
    796  C2'        8.0100   19.6540  -21.1290 C.3    40  DC40        0.0866
    797  C1'        8.1150   19.9890  -22.6160 C.3    40  DC40        0.2106
    798  N1         7.6530   18.9030  -23.4700 N.ar   40  DC40       -0.2556
    799  C2         6.2690   18.7830  -23.6400 C.ar   40  DC40        0.3531
    800  O2         5.5300   19.6610  -23.1640 O.2    40  DC40       -0.2443
    801  N3         5.7780   17.7160  -24.3140 N.ar   40  DC40       -0.1739
    802  C4         6.6100   16.7970  -24.8060 C.ar   40  DC40        0.1759
    803  N4         6.0800   15.7620  -25.4640 N.pl3  40  DC40       -0.1070
    804  C5         8.0150   16.9010  -24.6450 C.ar   40  DC40        0.0566
    805  C6         8.4960   17.9560  -23.9780 C.ar   40  DC40        0.0849
    806  P          9.1740   18.2790  -18.2080 P.3    41  DT41        0.2141
    807  OP1        9.7660   18.7740  -16.9470 O.3    41  DT41       -0.4373
    808  OP2        9.5020   16.9310  -18.7290 O.2    41  DT41       -0.5172
    809  O5'        7.5830   18.3090  -18.0760 O.3    41  DT41       -0.3114
    810  C5'        7.0320   19.5650  -17.7270 C.3    41  DT41        0.1811
    811  C4'        5.6010   19.7110  -18.1710 C.3    41  DT41        0.1746
    812  O4'        5.5140   19.7050  -19.6190 O.3    41  DT41       -0.3327
    813  C3'        4.6720   18.5980  -17.7320 C.3    41  DT41        0.1558
    814  O3'        4.2470   18.7180  -16.3900 O.3    41  DT41       -0.3138
    815  C2'        3.5400   18.6960  -18.7390 C.3    41  DT41        0.0866
    816  C1'        4.2960   19.1060  -20.0080 C.3    41  DT41        0.2106
    817  N1         4.5960   17.9600  -20.8790 N.ar   41  DT41       -0.2559
    818  C2         3.5620   17.3600  -21.5740 C.ar   41  DT41        0.3545
    819  O2         2.3990   17.7040  -21.4600 O.2    41  DT41       -0.2443
    820  N3         3.9400   16.3380  -22.4100 N.ar   41  DT41       -0.1533
    821  C4         5.2190   15.8650  -22.6180 C.ar   41  DT41        0.2804
    822  O4         5.4020   14.9390  -23.4030 O.2    41  DT41       -0.2654
    823  C5         6.2370   16.5380  -21.8600 C.ar   41  DT41        0.0534
    824  C6         5.8970   17.5350  -21.0390 C.ar   41  DT41        0.0824
    825  C7         7.6620   16.0960  -22.0160 C.3    41  DT41        0.0377
    826  P          4.2280   17.6950  -16.0390 P.3    42  DT42        0.2141
    827  OP1        4.2500   18.2410  -14.6470 O.3    42  DT42       -0.4373
    828  OP2        5.1540   16.5780  -16.4200 O.2    42  DT42       -0.5172
    829  O5'        2.7560   17.2750  -16.4830 O.3    42  DT42       -0.3114
    830  C5'        1.7170   18.2570  -16.5800 C.3    42  DT42        0.1811
    831  C4'        0.5350   17.7000  -17.3320 C.3    42  DT42        0.1746
    832  O4'        0.8080   17.6680  -18.7600 O.3    42  DT42       -0.3327
    833  C3'        0.1900   16.2650  -16.9830 C.3    42  DT42        0.1558
    834  O3'       -0.5230   16.1410  -15.7740 O.3    42  DT42       -0.3138
    835  C2'       -0.5740   15.8130  -18.2120 C.3    42  DT42        0.0866
    836  C1'        0.2180   16.5090  -19.3240 C.3    42  DT42        0.2106
    837  N1         1.2650   15.6160  -19.8280 N.ar   42  DT42       -0.2559
    838  C2         0.9470   14.7220  -20.8320 C.ar   42  DT42        0.3545
    839  O2        -0.1720   14.6240  -21.3040 O.2    42  DT42       -0.2443
    840  N3         1.9900   13.9400  -21.2660 N.ar   42  DT42       -0.1533
    841  C4         3.2910   13.9630  -20.8070 C.ar   42  DT42        0.2804
    842  O4         4.1190   13.1980  -21.2970 O.2    42  DT42       -0.2654
    843  C5         3.5420   14.9170  -19.7640 C.ar   42  DT42        0.0534
    844  C6         2.5450   15.6900  -19.3230 C.ar   42  DT42        0.0824
    845  C7         4.9270   15.0180  -19.1970 C.3    42  DT42        0.0377
    846  P         -0.1260   15.1260  -14.9470 P.3    43  DA43        0.2141
    847  OP1       -0.4040   14.6010  -13.5930 O.3    43  DA43       -0.4373
    848  OP2        1.2160   15.0030  -15.5680 O.2    43  DA43       -0.5172
    849  O5'       -1.1810   14.5030  -15.9570 O.3    43  DA43       -0.3114
    850  C5'       -2.5550   14.7370  -15.7520 C.3    43  DA43        0.1811
    851  C4'       -3.2660   13.6810  -16.5700 C.3    43  DA43        0.1746
    852  O4'       -2.6550   13.6600  -17.8780 O.3    43  DA43       -0.3327
    853  C3'       -3.0820   12.2720  -16.0280 C.3    43  DA43        0.1558
    854  O3'       -4.2580   11.9460  -15.2860 O.3    43  DA43       -0.3138
    855  C2'       -2.8850   11.3850  -17.2570 C.3    43  DA43        0.0865
    856  C1'       -2.6500   12.3560  -18.4090 C.3    43  DA43        0.2094
    857  N9        -1.4390   12.1860  -18.9320 N.ar   43  DA43       -0.2714
    858  C8        -0.2650   12.5930  -18.3540 C.ar   43  DA43        0.1815
    859  N7         0.8030   12.0400  -18.8800 N.ar   43  DA43       -0.2193
    860  C5         0.2950   11.2130  -19.8690 C.ar   43  DA43        0.1518
    861  C6         0.9150   10.3500  -20.7910 C.ar   43  DA43        0.1919
    862  N6         2.2360   10.1740  -20.8650 N.pl3  43  DA43       -0.1054
    863  N1         0.1200    9.6680  -21.6420 N.ar   43  DA43       -0.2040
    864  C2        -1.2040    9.8460  -21.5670 C.ar   43  DA43        0.2016
    865  N3        -1.9020   10.6270  -20.7460 N.ar   43  DA43       -0.2048
    866  C4        -1.0840   11.2910  -19.9130 C.ar   43  DA43        0.1691
    867  P         -4.5520   10.6140  -14.9280 P.3    44  DT44        0.2141
    868  OP1       -5.2120   10.7600  -13.6070 O.3    44  DT44       -0.4373
    869  OP2       -3.2240    9.9510  -15.0270 O.2    44  DT44       -0.5172
    870  O5'       -5.5430    9.8600  -15.9210 O.3    44  DT44       -0.3114
    871  C5'       -5.9190   10.4290  -17.1690 C.3    44  DT44        0.1811
    872  C4'       -5.9480    9.3660  -18.2430 C.3    44  DT44        0.1746
    873  O4'       -4.9700    9.6760  -19.2620 O.3    44  DT44       -0.3327
    874  C3'       -5.5550    7.9760  -17.7970 C.3    44  DT44        0.1558
    875  O3'       -6.6140    7.3000  -17.1820 O.3    44  DT44       -0.3138
    876  C2'       -5.1010    7.3180  -19.0760 C.3    44  DT44        0.0866
    877  C1'       -4.3960    8.4790  -19.7570 C.3    44  DT44        0.2106
    878  N1        -2.9620    8.3490  -19.2970 N.ar   44  DT44       -0.2559
    879  C2        -2.1760    7.4590  -20.0030 C.ar   44  DT44        0.3545
    880  O2        -2.5790    6.8390  -20.9710 O.2    44  DT44       -0.2443
    881  N3        -0.8920    7.3180  -19.5320 N.ar   44  DT44       -0.1533
    882  C4        -0.3300    7.9630  -18.4510 C.ar   44  DT44        0.2804
    883  O4         0.8390    7.7330  -18.1500 O.2    44  DT44       -0.2654
    884  C5        -1.2100    8.8700  -17.7700 C.ar   44  DT44        0.0534
    885  C6        -2.4630    9.0260  -18.2060 C.ar   44  DT44        0.0824
    886  C7        -0.6910    9.6200  -16.5790 C.3    44  DT44        0.0377
    887  P         -6.1580    6.5480  -16.2600 P.3    45  DT45        0.2141
    888  OP1       -7.2560    5.7120  -15.6900 O.2    45  DT45       -0.5172
    889  OP2       -5.1530    7.1640  -15.3650 O.3    45  DT45       -0.4373
    890  O5'       -5.4530    5.6660  -17.3800 O.3    45  DT45       -0.3114
    891  C5'       -6.2440    4.9540  -18.3250 C.3    45  DT45        0.1811
    892  C4'       -5.4690    3.8020  -18.9090 C.3    45  DT45        0.1746
    893  O4'       -4.3020    4.3180  -19.6000 O.3    45  DT45       -0.3327
    894  C3'       -4.8910    2.8130  -17.9080 C.3    45  DT45        0.1558
    895  O3'       -5.8510    1.8410  -17.5200 O.3    45  DT45       -0.3138
    896  C2'       -3.7510    2.1930  -18.7010 C.3    45  DT45        0.0866
    897  C1'       -3.2300    3.4020  -19.4690 C.3    45  DT45        0.2106
    898  N1        -2.1430    4.1400  -18.7570 N.ar   45  DT45       -0.2559
    899  C2        -0.8600    3.7520  -19.0940 C.ar   45  DT45        0.3545
    900  O2        -0.6230    2.8940  -19.9260 O.2    45  DT45       -0.2443
    901  N3         0.1410    4.4070  -18.4190 N.ar   45  DT45       -0.1533
    902  C4        -0.0080    5.3890  -17.4610 C.ar   45  DT45        0.2804
    903  O4         0.9890    5.8850  -16.9430 O.2    45  DT45       -0.2654
    904  C5        -1.3700    5.7350  -17.1660 C.ar   45  DT45        0.0534
    905  C6        -2.3630    5.1150  -17.8080 C.ar   45  DT45        0.0824
    906  C7        -1.6370    6.7930  -16.1370 C.3    45  DT45        0.0377
    907  P         -5.6380    0.9800  -16.0940 P.3    46  DC46        0.2141
    908  OP1       -6.6720   -0.0520  -15.8070 O.2    46  DC46       -0.5172
    909  OP2       -4.9690    1.6810  -14.9660 O.3    46  DC46       -0.4373
    910  O5'       -4.5000    0.2780  -16.9430 O.3    46  DC46       -0.3114
    911  C5'       -4.8100   -0.7600  -17.8710 C.3    46  DC46        0.1811
    912  C4'       -3.5700   -1.5480  -18.1790 C.3    46  DC46        0.1746
    913  O4'       -2.6030   -0.6690  -18.8070 O.3    46  DC46       -0.3327
    914  C3'       -2.8440   -2.1450  -16.9820 C.3    46  DC46        0.1558
    915  O3'       -3.3930   -3.4160  -16.6590 O.3    46  DC46       -0.3138
    916  C2'       -1.4320   -2.2800  -17.5200 C.3    46  DC46        0.0866
    917  C1'       -1.3040   -1.0240  -18.3880 C.3    46  DC46        0.2106
    918  N1        -0.6720    0.0870  -17.6590 N.ar   46  DC46       -0.2556
    919  C2         0.7250    0.0940  -17.5760 C.ar   46  DC46        0.3531
    920  O2         1.3650   -0.7810  -18.1840 O.2    46  DC46       -0.2443
    921  N3         1.3370    1.0500  -16.8360 N.ar   46  DC46       -0.1739
    922  C4         0.6090    1.9680  -16.1990 C.ar   46  DC46        0.1759
    923  N4         1.2560    2.8900  -15.4820 N.pl3  46  DC46       -0.1070
    924  C5        -0.8080    1.9780  -16.2710 C.ar   46  DC46        0.0566
    925  C6        -1.4080    1.0330  -17.0020 C.ar   46  DC46        0.0849
    926  P         -3.0450   -4.1020  -15.2210 P.3    47  DA47        0.2141
    927  OP1       -3.6930   -5.4260  -15.0340 O.2    47  DA47       -0.5172
    928  OP2       -3.3710   -2.9730  -14.3090 O.3    47  DA47       -0.4373
    929  O5'       -1.4760   -4.3500  -15.1520 O.3    47  DA47       -0.3114
    930  C5'       -0.9070   -5.5260  -15.7150 C.3    47  DA47        0.1811
    931  C4'        0.5940   -5.5130  -15.5630 C.3    47  DA47        0.1746
    932  O4'        1.1010   -4.2640  -16.0930 O.3    47  DA47       -0.3327
    933  C3'        1.1000   -5.5160  -14.1380 C.3    47  DA47        0.1558
    934  O3'        1.1680   -6.8340  -13.6360 O.3    47  DA47       -0.3138
    935  C2'        2.4820   -4.9140  -14.2980 C.3    47  DA47        0.0865
    936  C1'        2.2130   -3.8440  -15.3410 C.3    47  DA47        0.2094
    937  N9         1.9660   -2.5280  -14.7690 N.ar   47  DA47       -0.2714
    938  C8         0.7520   -1.9210  -14.5750 C.ar   47  DA47        0.1815
    939  N7         0.8350   -0.7510  -13.9870 N.ar   47  DA47       -0.2193
    940  C5         2.1940   -0.5790  -13.7790 C.ar   47  DA47        0.1518
    941  C6         2.9370    0.4610  -13.1950 C.ar   47  DA47        0.1919
    942  N6         2.3890    1.5710  -12.6940 N.pl3  47  DA47       -0.1054
    943  N1         4.2790    0.3200  -13.1430 N.ar   47  DA47       -0.2040
    944  C2         4.8280   -0.7920  -13.6460 C.ar   47  DA47        0.2016
    945  N3         4.2350   -1.8370  -14.2190 N.ar   47  DA47       -0.2048
    946  C4         2.9030   -1.6660  -14.2540 C.ar   47  DA47        0.1691
    947  P          0.7110   -7.1240  -12.2030 P.3    48  DA48        0.2141
    948  OP1        0.7120   -8.5520  -11.8230 O.2    48  DA48       -0.5172
    949  OP2       -0.1840   -6.1610  -11.5300 O.3    48  DA48       -0.4373
    950  O5'        2.1990   -6.6040  -12.0880 O.3    48  DA48       -0.3114
    951  C5'        3.2030   -7.4880  -11.7140 C.3    48  DA48        0.1811
    952  C4'        4.2600   -6.6610  -11.0310 C.3    48  DA48        0.1746
    953  O4'        4.4390   -5.3780  -11.6750 O.3    48  DA48       -0.3327
    954  C3'        3.8910   -6.2540   -9.6360 C.3    48  DA48        0.1558
    955  O3'        4.0090   -7.4150   -8.8930 O.3    48  DA48       -0.3138
    956  C2'        5.1070   -5.3750   -9.4850 C.3    48  DA48        0.0865
    957  C1'        5.0590   -4.5230  -10.7450 C.3    48  DA48        0.2094
    958  N9         4.1690   -3.3520  -10.6690 N.ar   48  DA48       -0.2714
    959  C8         2.8550   -3.2910  -11.0530 C.ar   48  DA48        0.1815
    960  N7         2.3000   -2.1190  -10.8530 N.ar   48  DA48       -0.2193
    961  C5         3.3190   -1.3590  -10.3000 C.ar   48  DA48        0.1518
    962  C6         3.3730   -0.0240   -9.8630 C.ar   48  DA48        0.1919
    963  N6         2.3350    0.8140   -9.9180 N.pl3  48  DA48       -0.1054
    964  N1         4.5430    0.4240   -9.3600 N.ar   48  DA48       -0.2040
    965  C2         5.5820   -0.4170   -9.3060 C.ar   48  DA48        0.2016
    966  N3         5.6540   -1.6900   -9.6870 N.ar   48  DA48       -0.2048
    967  C4         4.4760   -2.1050  -10.1800 C.ar   48  DA48        0.1691
    968  P          3.3720   -7.5060   -7.2710 P.3    49  DT49        0.2141
    969  OP1        3.2540   -8.8120   -6.5850 O.3    49  DT49       -0.4373
    970  OP2        2.1670   -6.7450   -7.6670 O.2    49  DT49       -0.5172
    971  O5'        4.1720   -6.4890   -6.3300 O.3    49  DT49       -0.3114
    972  C5'        5.5850   -6.5730   -6.2830 C.3    49  DT49        0.1811
    973  C4'        6.2140   -5.2110   -6.1390 C.3    49  DT49        0.1746
    974  O4'        5.5980   -4.2700   -7.0610 O.3    49  DT49       -0.3327
    975  C3'        6.0230   -4.5280   -4.7980 C.3    49  DT49        0.1558
    976  O3'        6.8220   -5.0600   -3.7570 O.3    49  DT49       -0.3138
    977  C2'        6.3420   -3.0820   -5.1530 C.3    49  DT49        0.0866
    978  C1'        5.6240   -2.9710   -6.4990 C.3    49  DT49        0.2106
    979  N1         4.3580   -2.4040   -6.3730 N.ar   49  DT49       -0.2559
    980  C2         4.1930   -1.0530   -6.1330 C.ar   49  DT49        0.3545
    981  O2         5.1250   -0.3010   -5.9070 O.2    49  DT49       -0.2443
    982  N3         2.8930   -0.6110   -6.1650 N.ar   49  DT49       -0.1533
    983  C4         1.7650   -1.3680   -6.4080 C.ar   49  DT49        0.2804
    984  O4         0.6620   -0.8270   -6.4050 O.2    49  DT49       -0.2654
    985  C5         2.0180   -2.7610   -6.6470 C.ar   49  DT49        0.0534
    986  C6         3.2730   -3.2170   -6.6220 C.ar   49  DT49        0.0824
    987  C7         0.8550   -3.6680   -6.9200 C.3    49  DT49        0.0377
    988  P          6.2010   -5.0030   -2.1340 P.3    50  DT50        0.2141
    989  OP1        7.0140   -5.7870   -1.1780 O.3    50  DT50       -0.4373
    990  OP2        4.8890   -5.5100   -2.5930 O.2    50  DT50       -0.5172
    991  O5'        5.8890   -3.5590   -1.5050 O.3    50  DT50       -0.3114
    992  C5'        6.9560   -2.8260   -0.9130 C.3    50  DT50        0.1811
    993  C4'        6.6090   -1.3810   -0.6280 C.3    50  DT50        0.1746
    994  O4'        6.1330   -0.7290   -1.8320 O.3    50  DT50       -0.3327
    995  C3'        5.5300   -1.1320    0.4170 C.3    50  DT50        0.1558
    996  O3'        6.0760   -1.0950    1.7240 O.3    50  DT50       -0.3138
    997  C2'        4.9190    0.2010    0.0020 C.3    50  DT50        0.0866
    998  C1'        5.1500    0.2320   -1.5130 C.3    50  DT50        0.2106
    999  N1         3.9650   -0.1000   -2.4360 N.ar   50  DT50       -0.2559
   1000  C2         3.0290    0.8930   -2.6540 C.ar   50  DT50        0.3545
   1001  O2         3.1520    2.0270   -2.2260 O.2    50  DT50       -0.2443
   1002  N3         1.9380    0.5110   -3.3950 N.ar   50  DT50       -0.1533
   1003  C4         1.6930   -0.7380   -3.9280 C.ar   50  DT50        0.2804
   1004  O4         0.6660   -0.9290   -4.5740 O.2    50  DT50       -0.2654
   1005  C5         2.7100   -1.7150   -3.6570 C.ar   50  DT50        0.0534
   1006  C6         3.7820   -1.3700   -2.9390 C.ar   50  DT50        0.0824
   1007  C7         2.5350   -3.1050   -4.1940 C.3    50  DT50        0.0377
   1008  P          5.2000   -1.1690    2.9800 P.3    51  DA51        0.2141
   1009  OP1        5.6540   -1.0460    4.3900 O.3    51  DA51       -0.4373
   1010  OP2        4.3820   -2.3380    2.5650 O.2    51  DA51       -0.5172
   1011  O5'        4.3860    0.1530    2.6320 O.3    51  DA51       -0.3114
   1012  C5'        4.9380    1.4320    2.8980 C.3    51  DA51        0.1811
   1013  C4'        3.9520    2.5200    2.5270 C.3    51  DA51        0.1746
   1014  O4'        3.7150    2.4840    1.0920 O.3    51  DA51       -0.3327
   1015  C3'        2.5620    2.4050    3.1370 C.3    51  DA51        0.1558
   1016  O3'        2.5180    2.9410    4.4580 O.3    51  DA51       -0.3138
   1017  C2'        1.7260    3.2160    2.1530 C.3    51  DA51        0.0865
   1018  C1'        2.3600    2.8130    0.8220 C.3    51  DA51        0.2094
   1019  N9         1.7010    1.6450    0.2470 N.ar   51  DA51       -0.2714
   1020  C8         1.9850    0.3040    0.2560 C.ar   51  DA51        0.1815
   1021  N7         1.0430   -0.4400   -0.2740 N.ar   51  DA51       -0.2193
   1022  C5         0.0740    0.4740   -0.6560 C.ar   51  DA51        0.1518
   1023  C6        -1.1780    0.3210   -1.2790 C.ar   51  DA51        0.1919
   1024  N6        -1.6840   -0.8600   -1.6410 N.pl3  51  DA51       -0.1054
   1025  N1        -1.8980    1.4380   -1.5200 N.ar   51  DA51       -0.2040
   1026  C2        -1.3890    2.6210   -1.1570 C.ar   51  DA51        0.2016
   1027  N3        -0.2270    2.8910   -0.5670 N.ar   51  DA51       -0.2048
   1028  C4         0.4640    1.7620   -0.3410 C.ar   51  DA51        0.1691
   1029  P          1.7830    2.1090    5.6200 P.3    52  DC52        0.2141
   1030  OP1        1.9870    2.5530    7.0170 O.3    52  DC52       -0.4373
   1031  OP2        1.7960    0.6800    5.2380 O.2    52  DC52       -0.5172
   1032  O5'        0.3610    2.6350    5.1220 O.3    52  DC52       -0.3114
   1033  C5'        0.1660    4.0370    5.0180 C.3    52  DC52        0.1811
   1034  C4'       -1.2840    4.3510    4.7690 C.3    52  DC52        0.1746
   1035  O4'       -1.6050    4.1320    3.3710 O.3    52  DC52       -0.3327
   1036  C3'       -2.2680    3.4810    5.5370 C.3    52  DC52        0.1558
   1037  O3'       -2.4500    3.9330    6.8710 O.3    52  DC52       -0.3138
   1038  C2'       -3.5160    3.5380    4.6570 C.3    52  DC52        0.0866
   1039  C1'       -2.9030    3.5940    3.2550 C.3    52  DC52        0.2106
   1040  N1        -2.7190    2.2670    2.5900 N.ar   52  DC52       -0.2556
   1041  C2        -3.8780    1.7820    1.9740 C.ar   52  DC52        0.3531
   1042  O2        -4.8210    2.5660    1.7730 O.2    52  DC52       -0.2443
   1043  N3        -3.9390    0.4770    1.6180 N.ar   52  DC52       -0.1739
   1044  C4        -2.9020   -0.3280    1.8550 C.ar   52  DC52        0.1759
   1045  N4        -3.0070   -1.6070    1.4860 N.pl3  52  DC52       -0.1070
   1046  C5        -1.7190    0.1440    2.4780 C.ar   52  DC52        0.0566
   1047  C6        -1.6630    1.4340    2.8280 C.ar   52  DC52        0.0849
   1048  P         -3.1960    2.9410    8.0370 P.3    53  DG53        0.2141
   1049  OP1       -3.8020    3.4750    9.2780 O.3    53  DG53       -0.4373
   1050  OP2       -2.0670    1.9870    8.0960 O.2    53  DG53       -0.5172
   1051  O5'       -4.2940    2.1350    7.1910 O.3    53  DG53       -0.3114
   1052  C5'       -5.5460    2.6970    6.8300 C.3    53  DG53        0.1811
   1053  C4'       -6.5580    1.6210    6.5390 C.3    53  DG53        0.1746
   1054  O4'       -6.2530    1.0020    5.2630 O.3    53  DG53       -0.3327
   1055  C3'       -6.5580    0.4610    7.5250 C.3    53  DG53        0.1558
   1056  O3'       -7.2360    0.7090    8.7510 O.3    53  DG53       -0.3138
   1057  C2'       -7.1440   -0.6750    6.6980 C.3    53  DG53        0.0865
   1058  C1'       -6.4950   -0.3860    5.3460 C.3    53  DG53        0.2093
   1059  N9        -5.1960   -1.1160    5.1560 N.ar   53  DG53       -0.2728
   1060  C8        -3.9220   -0.6120    5.2550 C.ar   53  DG53        0.1814
   1061  N7        -2.9980   -1.4870    4.9650 N.ar   53  DG53       -0.2177
   1062  C5        -3.7000   -2.6370    4.6540 C.ar   53  DG53        0.1711
   1063  C6        -3.2420   -3.9210    4.2630 C.2    53  DG53        0.2985
   1064  O6        -2.0750   -4.3040    4.1100 O.2    53  DG53       -0.2655
   1065  N1        -4.2940   -4.8050    4.0440 N.am   53  DG53       -0.1042
   1066  C2        -5.6250   -4.4910    4.1830 C.1    53  DG53        0.1460
   1067  N2        -6.4950   -5.4770    3.9270 N.2    53  DG53       -0.0024
   1068  N3        -6.0660   -3.3030    4.5460 N.pl3  53  DG53       -0.1259
   1069  C4        -5.0610   -2.4280    4.7660 C.ar   53  DG53        0.1688
   1070  P         -6.6940    0.1730    9.7860 P.3    54  DT54        0.2141
   1071  OP1       -8.0160    0.7210   10.1940 O.2    54  DT54       -0.5172
   1072  OP2       -5.5870    0.1210   10.7730 O.3    54  DT54       -0.4373
   1073  O5'       -6.8940   -1.3000    9.2090 O.3    54  DT54       -0.3114
   1074  C5'       -8.1230   -2.0120    9.4310 C.3    54  DT54        0.1811
   1075  C4'       -7.8560   -3.4840    9.6280 C.3    54  DT54        0.1746
   1076  O4'       -7.4070   -4.0800    8.3900 O.3    54  DT54       -0.3327
   1077  C3'       -6.8040   -3.8580   10.6610 C.3    54  DT54        0.1558
   1078  O3'       -7.4060   -3.9080   11.9550 O.3    54  DT54       -0.3138
   1079  C2'       -6.3610   -5.2470   10.2000 C.3    54  DT54        0.0866
   1080  C1'       -6.5490   -5.1640    8.6800 C.3    54  DT54        0.2106
   1081  N1        -4.8520   -4.7260    8.5450 N.ar   54  DT54       -0.2559
   1082  C2        -3.8610   -5.6810    8.4200 C.ar   54  DT54        0.3545
   1083  O2        -4.0480   -6.8650    8.6380 O.2    54  DT54       -0.2443
   1084  N3        -2.6350   -5.1990    8.0280 N.ar   54  DT54       -0.1533
   1085  C4        -2.3090   -3.8870    7.7560 C.ar   54  DT54        0.2804
   1086  O4        -1.1630   -3.6070    7.4120 O.2    54  DT54       -0.2654
   1087  C5        -3.3910   -2.9550    7.9100 C.ar   54  DT54        0.0534
   1088  C6        -4.5930   -3.3980    8.2890 C.ar   54  DT54        0.0824
   1089  C7        -3.1360   -1.5020    7.6380 C.3    54  DT54        0.0377
   1090  P         -6.5470   -2.8540   12.9160 P.3    55  DC55        0.2141
   1091  OP1       -5.9520   -1.4900   12.9910 O.2    55  DC55       -0.5172
   1092  OP2       -5.7060   -4.0520   13.1710 O.3    55  DC55       -0.4373
   1093  O5'       -7.7800   -2.9110   13.9160 O.3    55  DC55       -0.3114
   1094  C5'       -8.7680   -1.9020   13.8530 C.3    55  DC55        0.1811
   1095  C4'       -9.7100   -2.0460   15.0040 C.3    55  DC55        0.1746
   1096  O4'      -10.4230   -3.3000   14.8750 O.3    55  DC55       -0.3327
   1097  C3'       -9.0300   -2.1200   16.3560 C.3    55  DC55        0.1558
   1098  O3'       -8.7490   -0.8270   16.8900 O.3    55  DC55       -0.3138
   1099  C2'      -10.0550   -2.8680   17.1900 C.3    55  DC55        0.0866
   1100  C1'      -10.6520   -3.8310   16.1620 C.3    55  DC55        0.2106
   1101  N1       -10.0120   -5.1160   16.2930 N.ar   55  DC55       -0.2556
   1102  C2       -10.4760   -6.0340   17.2420 C.ar   55  DC55        0.3531
   1103  O2       -11.4830   -5.7460   17.9110 O.2    55  DC55       -0.2443
   1104  N3        -9.8160   -7.2060   17.4040 N.ar   55  DC55       -0.1739
   1105  C4        -8.7390   -7.4720   16.6640 C.ar   55  DC55        0.1759
   1106  N4        -8.1200   -8.6390   16.8580 N.pl3  55  DC55       -0.1070
   1107  C5        -8.2530   -6.5550   15.6970 C.ar   55  DC55        0.0566
   1108  C6        -8.9080   -5.3990   15.5410 C.ar   55  DC55        0.0849
   1109  P         -7.6280   -0.6700   18.2320 P.3    56  DT56        0.2141
   1110  OP1       -7.5940    0.7980   18.4110 O.3    56  DT56       -0.4373
   1111  OP2       -6.5190   -1.3570   17.5320 O.2    56  DT56       -0.5172
   1112  O5'       -7.8320   -1.3360   19.6760 O.3    56  DT56       -0.3114
   1113  C5'       -8.6660   -0.7020   20.6390 C.3    56  DT56        0.1811
   1114  C4'       -9.1710   -1.6910   21.6750 C.3    56  DT56        0.1746
   1115  O4'       -9.5520   -2.9160   21.0060 O.3    56  DT56       -0.3327
   1116  C3'       -8.1650   -2.1530   22.7180 C.3    56  DT56        0.1558
   1117  O3'       -8.0580   -1.2270   23.7910 O.3    56  DT56       -0.3138
   1118  C2'       -8.8220   -3.4440   23.1900 C.3    56  DT56        0.0866
   1119  C1'       -9.3360   -4.0100   21.8720 C.3    56  DT56        0.2106
   1120  N1        -8.3370   -5.0180   21.2530 N.ar   56  DT56       -0.2559
   1121  C2        -8.3130   -6.3210   21.7110 C.ar   56  DT56        0.3545
   1122  O2        -8.9950   -6.7110   22.6420 O.2    56  DT56       -0.2443
   1123  N3        -7.4560   -7.1580   21.0370 N.ar   56  DT56       -0.1533
   1124  C4        -6.6390   -6.8290   19.9750 C.ar   56  DT56        0.2804
   1125  O4        -5.9240   -7.6920   19.4720 O.2    56  DT56       -0.2654
   1126  C5        -6.7200   -5.4580   19.5590 C.ar   56  DT56        0.0534
   1127  C6        -7.5450   -4.6220   20.1970 C.ar   56  DT56        0.0824
   1128  C7        -5.8690   -5.0020   18.4110 C.3    56  DT56        0.0377
   1129  P         -7.0990   -1.3870   24.4420 P.3    57  DG57        0.2141
   1130  OP1       -7.2740   -0.2920   25.4310 O.3    57  DG57       -0.4373
   1131  OP2       -5.8460   -1.4630   23.6430 O.2    57  DG57       -0.5172
   1132  O5'       -7.3420   -2.7530   25.2190 O.3    57  DG57       -0.3114
   1133  C5'       -8.4180   -2.8460   26.1420 C.3    57  DG57        0.1812
   1134  C4'       -8.3900   -4.1570   26.8880 C.3    57  DG57        0.1775
   1135  O4'       -8.6700   -5.2480   25.9590 O.3    57  DG57       -0.3326
   1136  C3'       -7.0620   -4.5690   27.4920 C.3    57  DG57        0.1864
   1137  O3'       -6.3480   -3.5920   28.2930 O.3    57  DG57       -0.2133
   1138  C2'       -7.2060   -6.0810   27.6370 C.3    57  DG57        0.0894
   1139  C1'       -7.9180   -6.4050   26.3230 C.3    57  DG57        0.2095
   1140  N9        -6.8630   -6.6400   25.1720 N.ar   57  DG57       -0.2713
   1141  C8        -6.2610   -5.8210   24.2480 C.ar   57  DG57        0.1816
   1142  N7        -5.2750   -6.3970   23.6150 N.ar   57  DG57       -0.2173
   1143  C5        -5.2220   -7.6710   24.1480 C.ar   57  DG57        0.1748
   1144  C6        -4.3570   -8.7570   23.8600 C.ar   57  DG57        0.3023
   1145  O6        -3.4310   -8.8030   23.0400 O.2    57  DG57       -0.2633
   1146  N1        -4.6480   -9.8750   24.6370 N.ar   57  DG57       -0.1709
   1147  C2        -5.6500   -9.9390   25.5750 C.ar   57  DG57        0.2606
   1148  N2        -5.7790  -11.1040   26.2240 N.pl3  57  DG57       -0.0859
   1149  N3        -6.4620   -8.9380   25.8540 N.ar   57  DG57       -0.1918
   1150  C4        -6.1970   -7.8410   25.1130 C.ar   57  DG57        0.1722
   1151  P         -6.3100   -3.7050   29.9360 P.3    58  DC58        0.3939
   1152  OP1       -6.7440   -2.9570   31.1410 O.3    58  DC58       -0.1425
   1153  OP2       -5.1470   -3.2290   29.1470 O.3    58  DC58       -0.1496
   1154  O5'       -6.0330   -5.2420   30.3540 O.3    58  DC58       -0.2926
   1155  C5'       -7.0360   -6.0050   31.0300 C.3    58  DC58        0.1828
   1156  C4'       -6.6020   -7.4660   31.2600 C.3    58  DC58        0.1747
   1157  O4'       -6.5770   -8.2070   30.0090 O.3    58  DC58       -0.3327
   1158  C3'       -5.2020   -7.5390   31.8150 C.3    58  DC58        0.1558
   1159  O3'       -5.1690   -7.5260   33.2340 O.3    58  DC58       -0.3138
   1160  C2'       -4.6330   -8.7720   31.2730 C.3    58  DC58        0.0866
   1161  C1'       -5.3770   -9.0370   29.9920 C.3    58  DC58        0.2106
   1162  N1        -4.4730   -8.5910   28.8840 N.ar   58  DC58       -0.2556
   1163  C2        -3.5480   -9.5350   28.4240 C.ar   58  DC58        0.3531
   1164  O2        -3.5770  -10.6820   28.9010 O.2    58  DC58       -0.2443
   1165  N3        -2.6510   -9.1720   27.4760 N.ar   58  DC58       -0.1739
   1166  C4        -2.6560   -7.9290   26.9940 C.ar   58  DC58        0.1759
   1167  N4        -1.7540   -7.6170   26.0600 N.pl3  58  DC58       -0.1070
   1168  C5        -3.5850   -6.9580   27.4470 C.ar   58  DC58        0.0566
   1169  C6        -4.4690   -7.3200   28.3830 C.ar   58  DC58        0.0849
   1170  P         -3.7190   -7.1690   34.0420 P.3    59  DA59        0.2141
   1171  OP1       -4.1710   -6.7770   35.3910 O.3    59  DA59       -0.4373
   1172  OP2       -2.9410   -6.2060   33.2270 O.2    59  DA59       -0.5172
   1173  O5'       -2.8500   -8.5110   34.1370 O.3    59  DA59       -0.3114
   1174  C5'       -3.4520   -9.7470   34.5170 C.3    59  DA59        0.1811
   1175  C4'       -2.6080  -10.9570   34.1450 C.3    59  DA59        0.1746
   1176  O4'       -2.6410  -11.2130   32.7140 O.3    59  DA59       -0.3327
   1177  C3'       -1.1240  -10.8340   34.4500 C.3    59  DA59        0.1558
   1178  O3'       -0.8760  -11.0090   35.8330 O.3    59  DA59       -0.3138
   1179  C2'       -0.5650  -11.9360   33.5560 C.3    59  DA59        0.0865
   1180  C1'       -1.3550  -11.6370   32.2840 C.3    59  DA59        0.2094
   1181  N9        -0.8050  -10.5730   31.4030 N.ar   59  DA59       -0.2714
   1182  C8        -1.3140   -9.3210   31.1780 C.ar   59  DA59        0.1815
   1183  N7        -0.6210   -8.6140   30.3170 N.ar   59  DA59       -0.2193
   1184  C5         0.4150   -9.4600   29.9520 C.ar   59  DA59        0.1518
   1185  C6         1.4960   -9.3040   29.0670 C.ar   59  DA59        0.1919
   1186  N6         1.7180   -8.1930   28.3600 N.pl3  59  DA59       -0.1054
   1187  N1         2.3500  -10.3410   28.9320 N.ar   59  DA59       -0.2040
   1188  C2         2.1250  -11.4540   29.6400 C.ar   59  DA59        0.2016
   1189  N3         1.1460  -11.7190   30.5010 N.ar   59  DA59       -0.2048
   1190  C4         0.3150  -10.6690   30.6140 C.ar   59  DA59        0.1691
   1191  P          0.2030  -10.1200   36.4790 P.3    60  DC60        0.2141
   1192  OP1        0.9160  -10.3570   37.7640 O.3    60  DC60       -0.4373
   1193  OP2        0.2160   -8.7680   35.8640 O.2    60  DC60       -0.5172
   1194  O5'        0.7280  -11.1500   35.3780 O.3    60  DC60       -0.3114
   1195  C5'        0.6870  -12.5820   35.6110 C.3    60  DC60        0.1811
   1196  C4'        2.0590  -13.1820   35.3960 C.3    60  DC60        0.1746
   1197  O4'        2.4020  -13.1350   33.9960 O.3    60  DC60       -0.3327
   1198  C3'        3.1620  -12.4450   36.1360 C.3    60  DC60        0.1558
   1199  O3'        3.3850  -13.1150   37.3630 O.3    60  DC60       -0.3138
   1200  C2'        4.3730  -12.5790   35.2300 C.3    60  DC60        0.0866
   1201  C1'        3.7320  -12.6910   33.8430 C.3    60  DC60        0.2106
   1202  N1         3.5470  -11.5540   32.8480 N.ar   60  DC60       -0.2556
   1203  C2         4.5470  -11.3460   31.8910 C.ar   60  DC60        0.3531
   1204  O2         5.2560  -12.3070   31.5480 O.2    60  DC60       -0.2443
   1205  N3         4.7140  -10.1070   31.3700 N.ar   60  DC60       -0.1739
   1206  C4         3.9310   -9.1040   31.7700 C.ar   60  DC60        0.1759
   1207  N4         4.1320   -7.9000   31.2290 N.pl3  60  DC60       -0.1070
   1208  C5         2.9120   -9.2940   32.7380 C.ar   60  DC60        0.0566
   1209  C6         2.7510  -10.5190   33.2500 C.ar   60  DC60        0.0849
   1210  P          4.6550  -12.5390   38.4120 P.3    61  DA61        0.2141
   1211  OP1        4.0830  -12.6400   39.7800 O.3    61  DA61       -0.4373
   1212  OP2        5.3260  -11.3360   37.8790 O.2    61  DA61       -0.5172
   1213  O5'        5.6210  -13.8030   38.1620 O.3    61  DA61       -0.3114
   1214  C5'        7.0260  -13.5510   38.2340 C.3    61  DA61        0.1811
   1215  C4'        7.7070  -13.6330   36.8850 C.3    61  DA61        0.1744
   1216  O4'        7.0350  -12.8780   35.8520 O.3    61  DA61       -0.3349
   1217  C3'        9.0070  -12.8870   36.8940 C.3    61  DA61        0.1555
   1218  O3'        9.9620  -13.5250   37.6110 O.3    61  DA61       -0.3139
   1219  C2'        9.3680  -12.9220   35.4510 C.3    61  DA61        0.0835
   1220  C1'        8.0090  -12.7070   34.8530 C.3    61  DA61        0.1974
   1221  N9         7.9410  -11.2890   34.4720 N.pl3  61  DA61       -0.2458
   1222  C8         6.8820  -10.5670   34.9570 C.2    61  DA61        0.1669
   1223  N7         6.6940   -9.4240   34.3400 N.2    61  DA61       -0.2209
   1224  C5         7.6990   -9.3940   33.3860 C.2    61  DA61        0.1902
   1225  C6         8.0450   -8.4460   32.4070 C.2    61  DA61        0.4251
   1226  N6         7.3860   -7.2990   32.2220 N.pl3  61  DA61        0.2155
   1227  N1         9.1040   -8.7210   31.6150 N.pl3  61  DA61        0.0229
   1228  C2         9.7620   -9.8700   31.8000 C.2    61  DA61        0.3241
   1229  N3         9.5320  -10.8380   32.6840 N.2    61  DA61       -0.2026
   1230  C4         8.4750  -10.5350   33.4560 C.3    61  DA61        0.2332
   1231  P         10.8380  -12.6110   38.6020 P.3    62  DT62        0.2141
   1232  OP1       11.6590  -13.2340   39.6700 O.3    62  DT62       -0.4373
   1233  OP2        9.9860  -11.4270   38.8830 O.2    62  DT62       -0.5172
   1234  O5'       11.7740  -12.1560   37.3800 O.3    62  DT62       -0.3114
   1235  C5'       12.9060  -12.9470   37.0370 C.3    62  DT62        0.1811
   1236  C4'       13.7270  -12.3800   35.8980 C.3    62  DT62        0.1746
   1237  O4'       12.8940  -12.1060   34.7430 O.3    62  DT62       -0.3327
   1238  C3'       14.4460  -11.0580   36.1260 C.3    62  DT62        0.1558
   1239  O3'       15.6230  -11.2080   36.9020 O.3    62  DT62       -0.3138
   1240  C2'       14.7310  -10.6430   34.6940 C.3    62  DT62        0.0866
   1241  C1'       13.4180  -11.0140   34.0210 C.3    62  DT62        0.2106
   1242  N1        12.3230   -9.8600   34.1980 N.ar   62  DT62       -0.2559
   1243  C2        12.3790   -8.8470   33.2600 C.ar   62  DT62        0.3545
   1244  O2        13.1700   -8.8410   32.3340 O.2    62  DT62       -0.2443
   1245  N3        11.4710   -7.8320   33.4470 N.ar   62  DT62       -0.1533
   1246  C4        10.5350   -7.7320   34.4550 C.ar   62  DT62        0.2804
   1247  O4         9.7860   -6.7590   34.4900 O.2    62  DT62       -0.2654
   1248  C5        10.5400   -8.8220   35.3890 C.ar   62  DT62        0.0534
   1249  C6        11.4120   -9.8220   35.2310 C.ar   62  DT62        0.0824
   1250  C7         9.5580   -8.8050   36.5230 C.3    62  DT62        0.0377
   1251  P         16.7850  -10.0670   37.1130 P.3    63  DA63        0.2141
   1252  OP1       17.3190   -9.9970   38.4960 O.3    63  DA63       -0.4373
   1253  OP2       16.1390   -8.8800   36.5000 O.2    63  DA63       -0.5172
   1254  O5'       17.9810  -10.5010   36.1660 O.3    63  DA63       -0.3114
   1255  C5'       19.0300   -9.5860   35.8430 C.3    63  DA63        0.1811
   1256  C4'       20.0790  -10.2840   35.0150 C.3    63  DA63        0.1746
   1257  O4'       20.7930  -11.2560   35.8220 O.3    63  DA63       -0.3327
   1258  C3'       19.5170  -11.0640   33.8460 C.3    63  DA63        0.1558
   1259  O3'       19.3980  -10.1990   32.7390 O.3    63  DA63       -0.3138
   1260  C2'       20.5500  -12.1590   33.6280 C.3    63  DA63        0.0865
   1261  C1'       21.0370  -12.4220   35.0590 C.3    63  DA63        0.2094
   1262  N9        20.3360  -13.5350   35.7330 N.ar   63  DA63       -0.2714
   1263  C8        19.3880  -13.4860   36.7220 C.ar   63  DA63        0.1815
   1264  N7        18.8740  -14.6560   37.0210 N.ar   63  DA63       -0.2193
   1265  C5        19.5280  -15.5320   36.1700 C.ar   63  DA63        0.1518
   1266  C6        19.4340  -16.9240   35.9910 C.ar   63  DA63        0.1919
   1267  N6        18.6090  -17.7050   36.6910 N.pl3  63  DA63       -0.1054
   1268  N1        20.2270  -17.4900   35.0570 N.ar   63  DA63       -0.2040
   1269  C2        21.0550  -16.7060   34.3560 C.ar   63  DA63        0.2016
   1270  N3        21.2330  -15.3900   34.4340 N.ar   63  DA63       -0.2048
   1271  C4        20.4300  -14.8570   35.3700 C.ar   63  DA63        0.1691
   1272  P         18.0660  -10.4540   31.5530 P.3    64  DC64        0.2141
   1273  OP1       18.2410   -9.3720   30.6100 O.2    64  DC64       -0.5172
   1274  OP2       16.8320  -10.6800   32.2740 O.3    64  DC64       -0.4373
   1275  O5'       18.4550  -11.8850   30.8260 O.3    64  DC64       -0.3114
   1276  C5'       19.4970  -11.9530   29.8700 C.3    64  DC64        0.1811
   1277  C4'       19.6330  -13.3820   29.3670 C.3    64  DC64        0.1746
   1278  O4'       20.0040  -14.2710   30.4680 O.3    64  DC64       -0.3327
   1279  C3'       18.3600  -14.0160   28.8840 C.3    64  DC64        0.1558
   1280  O3'       18.0030  -13.5060   27.5600 O.3    64  DC64       -0.3138
   1281  C2'       18.7550  -15.4950   28.9890 C.3    64  DC64        0.0866
   1282  C1'       19.3790  -15.5040   30.3740 C.3    64  DC64        0.2106
   1283  N1        18.5450  -15.6220   31.5730 N.ar   64  DC64       -0.2556
   1284  C2        17.9690  -16.8620   31.8730 C.ar   64  DC64        0.3531
   1285  O2        18.2640  -17.8440   31.1710 O.2    64  DC64       -0.2443
   1286  N3        17.1090  -16.9540   32.9160 N.ar   64  DC64       -0.1739
   1287  C4        16.8210  -15.8730   33.6410 C.ar   64  DC64        0.1759
   1288  N4        15.9680  -16.0120   34.6580 N.pl3  64  DC64       -0.1070
   1289  C5        17.3940  -14.6080   33.3530 C.ar   64  DC64        0.0566
   1290  C6        18.2430  -14.5210   32.3230 C.ar   64  DC64        0.0849
   1291  P         16.4740  -13.4610   27.2260 P.3    65  DC65        0.2141
   1292  OP1       16.5100  -13.1580   25.7700 O.2    65  DC65       -0.5172
   1293  OP2       15.5770  -12.6760   28.1110 O.3    65  DC65       -0.4373
   1294  O5'       16.2030  -15.0230   27.4250 O.3    65  DC65       -0.3114
   1295  C5'       16.9140  -16.0030   26.6740 C.3    65  DC65        0.1811
   1296  C4'       16.3580  -17.3810   26.9490 C.3    65  DC65        0.1746
   1297  O4'       16.6920  -17.7670   28.2990 O.3    65  DC65       -0.3327
   1298  C3'       14.8410  -17.5300   26.8590 C.3    65  DC65        0.1558
   1299  O3'       14.3900  -17.7960   25.5280 O.3    65  DC65       -0.3138
   1300  C2'       14.5510  -18.7020   27.7840 C.3    65  DC65        0.0866
   1301  C1'       15.6430  -18.5490   28.8420 C.3    65  DC65        0.2106
   1302  N1        15.0800  -17.8640   30.0520 N.ar   65  DC65       -0.2556
   1303  C2        14.4390  -18.6390   31.0250 C.ar   65  DC65        0.3531
   1304  O2        14.3370  -19.8640   30.8420 O.2    65  DC65       -0.2443
   1305  N3        13.9500  -18.0340   32.1340 N.ar   65  DC65       -0.1739
   1306  C4        14.0820  -16.7160   32.2870 C.ar   65  DC65        0.1759
   1307  N4        13.5840  -16.1630   33.3960 N.pl3  65  DC65       -0.1070
   1308  C5        14.7280  -15.9130   31.3130 C.ar   65  DC65        0.0566
   1309  C6        15.2090  -16.5140   30.2200 C.ar   65  DC65        0.0849
   1310  P         12.9430  -17.2290   24.9880 P.3    66  DA66        0.2141
   1311  OP1       12.9950  -18.2410   23.8950 O.2    66  DA66       -0.5172
   1312  OP2       12.4330  -15.8540   24.7050 O.3    66  DA66       -0.4373
   1313  O5'       12.0830  -17.8910   26.1500 O.3    66  DA66       -0.3114
   1314  C5'       12.5220  -19.1300   26.6760 C.3    66  DA66        0.1811
   1315  C4'       11.4450  -19.7830   27.4770 C.3    66  DA66        0.1746
   1316  O4'       11.2120  -19.0240   28.6760 O.3    66  DA66       -0.3327
   1317  C3'       10.1090  -19.9510   26.7910 C.3    66  DA66        0.1558
   1318  O3'        9.6760  -21.2220   27.2480 O.3    66  DA66       -0.3138
   1319  C2'        9.3060  -18.7750   27.3330 C.3    66  DA66        0.0865
   1320  C1'        9.8570  -18.6590   28.7470 C.3    66  DA66        0.2094
   1321  N9         9.7430  -17.4650   29.2760 N.ar   66  DA66       -0.2714
   1322  C8         9.9600  -16.4650   28.3650 C.ar   66  DA66        0.1815
   1323  N7         9.2570  -15.3810   28.5920 N.ar   66  DA66       -0.2191
   1324  C5         8.5280  -15.6910   29.7290 C.ar   66  DA66        0.1545
   1325  C6         7.5910  -14.9600   30.4800 C.ar   66  DA66        0.2067
   1326  N6         7.2160  -13.7130   30.1830 N.2    66  DA66       -0.1169
   1327  N1         7.0460  -15.5620   31.5590 N.ar   66  DA66       -0.2016
   1328  C2         7.4240  -16.8100   31.8560 C.ar   66  DA66        0.2017
   1329  N3         8.2940  -17.5980   31.2280 N.ar   66  DA66       -0.2048
   1330  C4         8.8160  -16.9710   30.1610 C.ar   66  DA66        0.1693
   1331  P          8.3740  -21.8030   26.5950 P.3    67  DG67        0.2141
   1332  OP1        8.2990  -23.2410   26.2540 O.3    67  DG67       -0.4373
   1333  OP2        8.1110  -20.7710   25.5650 O.2    67  DG67       -0.5172
   1334  O5'        7.3120  -21.4650   27.7520 O.3    67  DG67       -0.3114
   1335  C5'        7.0290  -22.3940   28.7910 C.3    67  DG67        0.1811
   1336  C4'        6.5970  -21.7250   30.0780 C.3    67  DG67        0.1746
   1337  O4'        7.3650  -20.5100   30.3000 O.3    67  DG67       -0.3327
   1338  C3'        5.1580  -21.2330   30.1640 C.3    67  DG67        0.1558
   1339  O3'        4.1890  -22.2510   30.3620 O.3    67  DG67       -0.3138
   1340  C2'        5.2580  -20.2520   31.3250 C.3    67  DG67        0.0865
   1341  C1'        6.5690  -19.5560   30.9710 C.3    67  DG67        0.2093
   1342  N9         6.3300  -18.4710   30.1040 N.ar   67  DG67       -0.2733
   1343  C8         6.6900  -18.3660   28.7820 C.ar   67  DG67        0.1815
   1344  N7         6.3930  -17.2080   28.2580 N.ar   67  DG67       -0.2164
   1345  C5         5.8040  -16.5040   29.2920 C.ar   67  DG67        0.1848
   1346  C6         5.2740  -15.1890   29.3290 C.2    67  DG67        0.3511
   1347  O6         5.2220  -14.3570   28.4140 O.2    67  DG67       -0.2487
   1348  N1         4.7670  -14.8670   30.5850 N.2    67  DG67       -0.3286
   1349  C2         4.7710  -15.7090   31.6720 C.cat  67  DG67        0.3028
   1350  N2         4.2380  -15.2210   32.8000 N.pl3  67  DG67       -0.0763
   1351  N3         5.2590  -16.9340   31.6520 N.pl3  67  DG67       -0.1487
   1352  C4         5.7560  -17.2680   30.4420 C.ar   67  DG67        0.1634
   1353  P          2.9670  -22.1400   29.5140 P.3    68  DC68        0.2141
   1354  OP1        2.5260  -23.5540   29.3060 O.3    68  DC68       -0.4373
   1355  OP2        2.7930  -21.1680   28.3840 O.2    68  DC68       -0.5172
   1356  O5'        2.1640  -21.5320   30.7250 O.3    68  DC68       -0.3114
   1357  C5'        2.0410  -22.3200   31.9220 C.3    68  DC68        0.1811
   1358  C4'        1.4400  -21.4420   32.9670 C.3    68  DC68        0.1746
   1359  O4'        2.3350  -20.3080   33.2380 O.3    68  DC68       -0.3327
   1360  C3'        0.1100  -20.7900   32.7380 C.3    68  DC68        0.1558
   1361  O3'       -0.9230  -21.7610   32.8720 O.3    68  DC68       -0.3138
   1362  C2'        0.1130  -19.7570   33.8660 C.3    68  DC68        0.0866
   1363  C1'        1.5530  -19.2460   33.7280 C.3    68  DC68        0.2106
   1364  N1         1.6150  -18.0850   32.8130 N.ar   68  DC68       -0.2556
   1365  C2         1.3150  -16.7940   33.2640 C.ar   68  DC68        0.3531
   1366  O2         0.8790  -16.6500   34.4180 O.2    68  DC68       -0.2443
   1367  N3         1.5080  -15.7440   32.4300 N.ar   68  DC68       -0.1739
   1368  C4         1.9770  -15.9470   31.1990 C.ar   68  DC68        0.1759
   1369  N4         2.1510  -14.8810   30.4130 N.pl3  68  DC68       -0.1070
   1370  C5         2.2870  -17.2470   30.7230 C.ar   68  DC68        0.0566
   1371  C6         2.0950  -18.2810   31.5490 C.ar   68  DC68        0.0849
   1372  P         -2.4120  -21.3420   32.1960 P.3    69  DT69        0.2141
   1373  OP1       -3.0250  -22.5920   32.6930 O.3    69  DT69       -0.4373
   1374  OP2       -2.1690  -21.1850   30.7450 O.2    69  DT69       -0.5172
   1375  O5'       -3.3080  -20.1120   32.7030 O.3    69  DT69       -0.3114
   1376  C5'       -4.0630  -20.1820   33.9160 C.3    69  DT69        0.1811
   1377  C4'       -3.9740  -18.8850   34.7040 C.3    69  DT69        0.1746
   1378  O4'       -2.7070  -18.2270   34.4500 O.3    69  DT69       -0.3327
   1379  C3'       -5.0170  -17.8340   34.3560 C.3    69  DT69        0.1558
   1380  O3'       -6.2300  -18.0790   35.0470 O.3    69  DT69       -0.3138
   1381  C2'       -4.3440  -16.5450   34.8130 C.3    69  DT69        0.0866
   1382  C1'       -2.8750  -16.8230   34.5090 C.3    69  DT69        0.2106
   1383  N1        -2.4150  -16.3170   33.1570 N.ar   69  DT69       -0.2559
   1384  C2        -2.1940  -14.9570   33.0460 C.ar   69  DT69        0.3545
   1385  O2        -2.3630  -14.1790   33.9680 O.2    69  DT69       -0.2443
   1386  N3        -1.7660  -14.5370   31.8100 N.ar   69  DT69       -0.1533
   1387  C4        -1.5420  -15.3230   30.6990 C.ar   69  DT69        0.2804
   1388  O4        -1.1560  -14.8010   29.6560 O.2    69  DT69       -0.2654
   1389  C5        -1.7950  -16.7230   30.8940 C.ar   69  DT69        0.0534
   1390  C6        -2.2120  -17.1580   32.0860 C.ar   69  DT69        0.0824
   1391  C7        -1.5810  -17.6610   29.7430 C.3    69  DT69        0.0377
   1392  P         -7.6670  -17.6380   34.4790 P.3    70  DT70        0.2141
   1393  OP1       -8.7020  -18.2140   35.3760 O.3    70  DT70       -0.4373
   1394  OP2       -7.6500  -18.0220   33.0350 O.2    70  DT70       -0.5172
   1395  O5'       -7.7050  -16.0510   34.5780 O.3    70  DT70       -0.3114
   1396  C5'       -7.5390  -15.4140   35.8440 C.3    70  DT70        0.1811
   1397  C4'       -7.4420  -13.9250   35.6760 C.3    70  DT70        0.1746
   1398  O4'       -6.1930  -13.5840   35.0230 O.3    70  DT70       -0.3327
   1399  C3'       -8.4860  -13.2560   34.8040 C.3    70  DT70        0.1558
   1400  O3'       -9.7330  -13.0850   35.4500 O.3    70  DT70       -0.3138
   1401  C2'       -7.8040  -11.9380   34.4640 C.3    70  DT70        0.0866
   1402  C1'       -6.3580  -12.3870   34.2770 C.3    70  DT70        0.2106
   1403  N1        -6.0680  -12.6430   32.8760 N.ar   70  DT70       -0.2559
   1404  C2        -5.9820  -11.6100   31.9630 C.ar   70  DT70        0.3545
   1405  O2        -6.2850  -10.4610   32.2290 O.2    70  DT70       -0.2443
   1406  N3        -5.5260  -11.9720   30.7180 N.ar   70  DT70       -0.1533
   1407  C4        -5.1560  -13.2350   30.3050 C.ar   70  DT70        0.2804
   1408  O4        -4.7640  -13.4040   29.1520 O.2    70  DT70       -0.2654
   1409  C5        -5.2750  -14.2530   31.3100 C.ar   70  DT70        0.0534
   1410  C6        -5.7150  -13.9290   32.5290 C.ar   70  DT70        0.0824
   1411  C7        -4.8970  -15.6610   30.9580 C.3    70  DT70        0.0377
   1412  P        -11.0530  -13.5760   34.7500 P.3    71  DA71        0.2141
   1413  OP1      -12.2340  -13.6540   35.6350 O.3    71  DA71       -0.4373
   1414  OP2      -10.7910  -14.6580   33.7770 O.2    71  DA71       -0.5172
   1415  O5'      -11.0410  -12.2040   33.9470 O.3    71  DA71       -0.3114
   1416  C5'      -11.1460  -10.9480   34.6140 C.3    71  DA71        0.1811
   1417  C4'      -11.2040   -9.8260   33.5980 C.3    71  DA71        0.1746
   1418  O4'       -9.9380   -9.7170   32.8960 O.3    71  DA71       -0.3327
   1419  C3'      -12.2050  -10.0550   32.4880 C.3    71  DA71        0.1558
   1420  O3'      -13.5210   -9.7500   32.8980 O.3    71  DA71       -0.3138
   1421  C2'      -11.6620   -9.1780   31.3690 C.3    71  DA71        0.0865
   1422  C1'      -10.1730   -9.4210   31.5260 C.3    71  DA71        0.2094
   1423  N9        -9.7200  -10.5720   30.7100 N.ar   71  DA71       -0.2714
   1424  C8        -9.5810  -11.8850   31.0760 C.ar   71  DA71        0.1815
   1425  N7        -9.1590  -12.6630   30.1070 N.ar   71  DA71       -0.2193
   1426  C5        -9.0130  -11.8020   29.0310 C.ar   71  DA71        0.1518
   1427  C6        -8.5950  -12.0080   27.7050 C.ar   71  DA71        0.1919
   1428  N6        -8.2340  -13.1980   27.2200 N.pl3  71  DA71       -0.1054
   1429  N1        -8.5620  -10.9360   26.8840 N.ar   71  DA71       -0.2040
   1430  C2        -8.9230   -9.7440   27.3710 C.ar   71  DA71        0.2016
   1431  N3        -9.3320   -9.4250   28.5970 N.ar   71  DA71       -0.2048
   1432  C4        -9.3550  -10.5110   29.3870 C.ar   71  DA71        0.1691
   1433  P        -14.7440  -10.8290   32.5330 P.3    72  DT72        0.2141
   1434  OP1      -15.8390  -11.1590   33.4830 O.3    72  DT72       -0.4373
   1435  OP2      -14.0420  -11.9260   31.8410 O.2    72  DT72       -0.5172
   1436  O5'      -15.2990   -9.8280   31.4160 O.3    72  DT72       -0.3114
   1437  C5'      -14.4240   -8.9100   30.7430 C.3    72  DT72        0.1811
   1438  C4'      -14.7020   -8.8920   29.2590 C.3    72  DT72        0.1746
   1439  O4'      -13.4390   -8.9800   28.5490 O.3    72  DT72       -0.3327
   1440  C3'      -15.5160  -10.0660   28.7340 C.3    72  DT72        0.1558
   1441  O3'      -16.9020   -9.7920   28.8860 O.3    72  DT72       -0.3138
   1442  C2'      -15.0720  -10.1880   27.2790 C.3    72  DT72        0.0866
   1443  C1'      -13.6210   -9.7210   27.3560 C.3    72  DT72        0.2106
   1444  N1       -12.6580  -10.8020   27.3360 N.ar   72  DT72       -0.2559
   1445  C2       -11.7180  -10.8090   26.3230 C.ar   72  DT72        0.3545
   1446  O2       -11.5000   -9.8430   25.6130 O.2    72  DT72       -0.2443
   1447  N3       -11.0390  -11.9930   26.1690 N.ar   72  DT72       -0.1533
   1448  C4       -11.2020  -13.1460   26.9090 C.ar   72  DT72        0.2804
   1449  O4       -10.5160  -14.1320   26.6510 O.2    72  DT72       -0.2654
   1450  C5       -12.1970  -13.0600   27.9410 C.ar   72  DT72        0.0534
   1451  C6       -12.8720  -11.9200   28.1130 C.ar   72  DT72        0.0824
   1452  C7       -12.4490  -14.2630   28.8010 C.3    72  DT72        0.0377
   1453  P        -18.1690  -10.8100   28.4060 P.3    73  DT73        0.2141
   1454  OP1      -19.5330  -10.3140   28.7270 O.2    73  DT73       -0.5172
   1455  OP2      -17.4410  -11.6440   29.4030 O.3    73  DT73       -0.4373
   1456  O5'      -18.2330  -11.6350   27.0360 O.3    73  DT73       -0.3114
   1457  C5'      -18.3110  -10.9610   25.7720 C.3    73  DT73        0.1811
   1458  C4'      -18.0490  -11.9180   24.6260 C.3    73  DT73        0.1746
   1459  O4'      -16.7390  -12.5370   24.7680 O.3    73  DT73       -0.3327
   1460  C3'      -19.0000  -13.0980   24.5410 C.3    73  DT73        0.1558
   1461  O3'      -20.2010  -12.7810   23.8780 O.3    73  DT73       -0.3138
   1462  C2'      -18.2030  -14.1350   23.7700 C.3    73  DT73        0.0866
   1463  C1'      -16.7890  -13.8730   24.2870 C.3    73  DT73        0.2106
   1464  N1       -16.5600  -14.7940   25.4230 N.ar   73  DT73       -0.2559
   1465  C2       -16.3760  -16.1280   25.1120 C.ar   73  DT73        0.3545
   1466  O2       -16.3490  -16.5460   23.9680 O.2    73  DT73       -0.2443
   1467  N3       -16.2230  -16.9610   26.1940 N.ar   73  DT73       -0.1533
   1468  C4       -16.2370  -16.6020   27.5260 C.ar   73  DT73        0.2804
   1469  O4       -16.0850  -17.4650   28.3870 O.2    73  DT73       -0.2654
   1470  C5       -16.4340  -15.2000   27.7670 C.ar   73  DT73        0.0534
   1471  C6       -16.5850  -14.3680   26.7330 C.ar   73  DT73        0.0824
   1472  C7       -16.4650  -14.7100   29.1840 C.3    73  DT73        0.0377
   1473  P        -21.4750  -13.7510   24.2410 P.3    74  DC74        0.2141
   1474  OP1      -21.8350  -13.0000   23.0160 O.2    74  DC74       -0.5172
   1475  OP2      -22.4250  -13.8350   25.3730 O.3    74  DC74       -0.4373
   1476  O5'      -21.2010  -15.2740   23.8560 O.3    74  DC74       -0.3114
   1477  C5'      -22.0600  -16.2090   24.4880 C.3    74  DC74        0.1811
   1478  C4'      -21.9030  -17.5830   23.9050 C.3    74  DC74        0.1746
   1479  O4'      -22.2570  -17.5020   22.5000 O.3    74  DC74       -0.3327
   1480  C3'      -20.4800  -18.1310   23.9780 C.3    74  DC74        0.1558
   1481  O3'      -20.3490  -19.2930   24.7880 O.3    74  DC74       -0.3138
   1482  C2'      -20.1000  -18.4990   22.5520 C.3    74  DC74        0.0866
   1483  C1'      -21.3140  -18.1820   21.6970 C.3    74  DC74        0.2106
   1484  N1       -20.6880  -17.5020   20.8050 N.ar   74  DC74       -0.2556
   1485  C2       -20.1750  -18.0370   19.6180 C.ar   74  DC74        0.3531
   1486  O2       -20.2650  -19.2620   19.4260 O.2    74  DC74       -0.2443
   1487  N3       -19.5960  -17.2080   18.7160 N.ar   74  DC74       -0.1739
   1488  C4       -19.5210  -15.9000   18.9650 C.ar   74  DC74        0.1759
   1489  N4       -18.9430  -15.1220   18.0480 N.pl3  74  DC74       -0.1070
   1490  C5       -20.0350  -15.3380   20.1620 C.ar   74  DC74        0.0566
   1491  C6       -20.6050  -16.1610   21.0500 C.ar   74  DC74        0.0849
   1492  P        -19.2330  -19.4100   25.1370 P.3    75  DA75        0.2141
   1493  OP1      -19.4590  -20.3970   26.2280 O.3    75  DA75       -0.4373
   1494  OP2      -18.4070  -18.2050   25.3920 O.2    75  DA75       -0.5172
   1495  O5'      -18.6190  -20.1970   23.9010 O.3    75  DA75       -0.3114
   1496  C5'      -19.2020  -21.4140   23.4650 C.3    75  DA75        0.1811
   1497  C4'      -18.6190  -21.8240   22.1410 C.3    75  DA75        0.1746
   1498  O4'      -18.8670  -20.7760   21.1570 O.3    75  DA75       -0.3327
   1499  C3'      -17.1090  -22.0590   22.1160 C.3    75  DA75        0.1558
   1500  O3'      -16.8890  -23.0600   21.1330 O.3    75  DA75       -0.3138
   1501  C2'      -16.5990  -20.7150   21.6060 C.3    75  DA75        0.0865
   1502  C1'      -17.6490  -20.4320   20.5390 C.3    75  DA75        0.2094
   1503  N9       -17.4510  -19.3360   20.2300 N.ar   75  DA75       -0.2714
   1504  C8       -17.1500  -18.5540   21.3140 C.ar   75  DA75        0.1815
   1505  N7       -16.3990  -17.5170   21.0270 N.ar   75  DA75       -0.2190
   1506  C5       -16.1920  -17.6260   19.6610 C.ar   75  DA75        0.1560
   1507  C6       -15.4760  -16.8330   18.7460 C.ar   75  DA75        0.2230
   1508  N6       -14.8100  -15.7280   19.0890 N.2    75  DA75       -0.0541
   1509  N1       -15.4690  -17.2210   17.4530 N.ar   75  DA75       -0.2005
   1510  C2       -16.1370  -18.3280   17.1110 C.ar   75  DA75        0.2018
   1511  N3       -16.8460  -19.1540   17.8780 N.ar   75  DA75       -0.2048
   1512  C4       -16.8330  -18.7420   19.1560 C.ar   75  DA75        0.1694
   1513  P        -15.7690  -23.9170   21.1640 P.3    76  DA76        0.2141
   1514  OP1      -15.7010  -25.4020   21.1690 O.2    76  DA76       -0.5172
   1515  OP2      -14.9490  -23.1500   22.1390 O.3    76  DA76       -0.4373
   1516  O5'      -15.4190  -23.4160   19.6950 O.3    76  DA76       -0.3114
   1517  C5'      -15.8320  -24.1610   18.5340 C.3    76  DA76        0.1811
   1518  C4'      -15.2170  -23.5550   17.3000 C.3    76  DA76        0.1746
   1519  O4'      -15.7760  -22.2330   17.0880 O.3    76  DA76       -0.3327
   1520  C3'      -13.7140  -23.3570   17.4090 C.3    76  DA76        0.1558
   1521  O3'      -13.0430  -24.5030   16.9040 O.3    76  DA76       -0.3138
   1522  C2'      -13.4690  -22.1160   16.5630 C.3    76  DA76        0.0865
   1523  C1'      -14.7360  -21.3040   16.8530 C.3    76  DA76        0.2094
   1524  N9       -14.7280  -20.3610   18.0630 N.ar   76  DA76       -0.2714
   1525  C8       -15.2620  -20.4200   19.3240 C.ar   76  DA76        0.1815
   1526  N7       -14.8770  -19.4410   20.1080 N.ar   76  DA76       -0.2193
   1527  C5       -14.0320  -18.6880   19.3080 C.ar   76  DA76        0.1518
   1528  C6       -13.2970  -17.5140   19.5510 C.ar   76  DA76        0.1919
   1529  N6       -13.3000  -16.8680   20.7190 N.pl3  76  DA76       -0.1054
   1530  N1       -12.5510  -17.0220   18.5390 N.ar   76  DA76       -0.2040
   1531  C2       -12.5490  -17.6700   17.3680 C.ar   76  DA76        0.2016
   1532  N3       -13.1980  -18.7790   17.0200 N.ar   76  DA76       -0.2048
   1533  C4       -13.9290  -19.2430   18.0470 C.ar   76  DA76        0.1691
   1534  P        -11.6480  -25.0990   17.6210 P.3    77  DT77        0.2141
   1535  OP1      -11.3580  -26.2380   16.7200 O.2    77  DT77       -0.5172
   1536  OP2      -11.4830  -25.3050   19.0810 O.3    77  DT77       -0.4373
   1537  O5'      -10.7610  -23.8600   17.1220 O.3    77  DT77       -0.3114
   1538  C5'      -10.4820  -23.9140   15.7210 C.3    77  DT77        0.1811
   1539  C4'       -9.8900  -22.6570   15.1790 C.3    77  DT77        0.1746
   1540  O4'      -10.6830  -21.5580   15.6350 O.3    77  DT77       -0.3327
   1541  C3'       -8.5090  -22.3420   15.6990 C.3    77  DT77        0.1558
   1542  O3'       -7.4180  -23.1380   15.1690 O.3    77  DT77       -0.3138
   1543  C2'       -8.4220  -20.8450   15.5420 C.3    77  DT77        0.0866
   1544  C1'       -9.8150  -20.4370   15.8700 C.3    77  DT77        0.2106
   1545  N1        -9.8500  -19.8560   17.2390 N.ar   77  DT77       -0.2559
   1546  C2        -9.3390  -18.5980   17.4940 C.ar   77  DT77        0.3545
   1547  O2        -8.7220  -17.9510   16.6660 O.2    77  DT77       -0.2443
   1548  N3        -9.5750  -18.1210   18.7610 N.ar   77  DT77       -0.1542
   1549  C4       -10.2560  -18.7620   19.7750 C.ar   77  DT77        0.2678
   1550  O4       -10.3890  -18.2030   20.8610 O.3    77  DT77       -0.3048
   1551  C5       -10.7550  -20.0640   19.4330 C.ar   77  DT77        0.0523
   1552  C6       -10.5390  -20.5520   18.2080 C.ar   77  DT77        0.0824
   1553  C7       -11.5090  -20.8420   20.4700 C.3    77  DT77        0.0376
   1554  P         -6.2810  -23.9580   16.1670 P.3    78  DT78        0.2141
   1555  OP1       -5.6430  -25.0460   15.3800 O.2    78  DT78       -0.5172
   1556  OP2       -6.1810  -23.9580   17.6360 O.3    78  DT78       -0.4373
   1557  O5'       -5.6100  -22.6340   15.6120 O.3    78  DT78       -0.3114
   1558  C5'       -6.1370  -21.3740   15.9580 C.3    78  DT78        0.1811
   1559  C4'       -5.3680  -20.2660   15.3060 C.3    78  DT78        0.1746
   1560  O4'       -6.0050  -19.0440   15.7320 O.3    78  DT78       -0.3327
   1561  C3'       -3.9370  -20.1490   15.7690 C.3    78  DT78        0.1558
   1562  O3'       -2.8600  -20.4120   14.9260 O.3    78  DT78       -0.3138
   1563  C2'       -3.8780  -19.0920   16.8470 C.3    78  DT78        0.0866
   1564  C1'       -5.2200  -18.3810   16.6970 C.3    78  DT78        0.2106
   1565  N1        -6.1220  -18.5850   18.3150 N.ar   78  DT78       -0.2559
   1566  C2        -6.3720  -17.2760   18.6810 C.ar   78  DT78        0.3545
   1567  O2        -6.1480  -16.3270   17.9510 O.2    78  DT78       -0.2443
   1568  N3        -6.8970  -17.1160   19.9410 N.ar   78  DT78       -0.1533
   1569  C4        -7.1900  -18.1100   20.8510 C.ar   78  DT78        0.2804
   1570  O4        -7.6590  -17.8090   21.9460 O.2    78  DT78       -0.2654
   1571  C5        -6.9010  -19.4410   20.3970 C.ar   78  DT78        0.0534
   1572  C6        -6.3910  -19.6260   19.1770 C.ar   78  DT78        0.0824
   1573  C7        -7.1840  -20.5920   21.3160 C.3    78  DT78        0.0377
   1574  P         -1.6440  -21.8810   15.3490 P.3    79  DA79        0.2141
   1575  OP1       -2.4200  -22.7180   16.3080 O.3    79  DA79       -0.4373
   1576  OP2       -0.1610  -22.0260   15.2750 O.2    79  DA79       -0.5172
   1577  O5'       -2.2850  -22.0890   13.8970 O.3    79  DA79       -0.3114
   1578  C5'       -1.5650  -22.7930   12.8560 C.3    79  DA79        0.1811
   1579  C4'       -1.7860  -22.1280   11.5060 C.3    79  DA79        0.1746
   1580  O4'       -3.1100  -22.4190   11.0170 O.3    79  DA79       -0.3327
   1581  C3'       -1.6450  -20.6150   11.5640 C.3    79  DA79        0.1558
   1582  O3'       -0.3240  -20.3620   11.1160 O.3    79  DA79       -0.3138
   1583  C2'       -2.6770  -20.1150   10.5650 C.3    79  DA79        0.0865
   1584  C1'       -3.7300  -21.2330   10.5870 C.3    79  DA79        0.2094
   1585  N9        -4.9010  -20.9570   11.3110 N.ar   79  DA79       -0.2714
   1586  C8        -5.2880  -21.4870   12.5140 C.ar   79  DA79        0.1815
   1587  N7        -6.3430  -20.9050   13.0350 N.ar   79  DA79       -0.2193
   1588  C5        -6.6700  -19.9250   12.1110 C.ar   79  DA79        0.1518
   1589  C6        -7.6950  -18.9630   12.0760 C.ar   79  DA79        0.1919
   1590  N6        -8.6150  -18.8280   13.0330 N.pl3  79  DA79       -0.1054
   1591  N1        -7.7400  -18.1350   11.0100 N.ar   79  DA79       -0.2040
   1592  C2        -6.8180  -18.2720   10.0510 C.ar   79  DA79        0.2016
   1593  N3        -5.8090  -19.1370    9.9710 N.ar   79  DA79       -0.2048
   1594  C4        -5.7910  -19.9440   11.0450 C.ar   79  DA79        0.1691
   1595  P          0.3420  -19.1410   11.4420 P.3    80  DG80        0.2141
   1596  OP1        1.7390  -19.2700   11.0260 O.2    80  DG80       -0.5172
   1597  OP2        0.0570  -19.1150   12.8880 O.3    80  DG80       -0.4373
   1598  O5'       -0.3490  -17.8890   10.7590 O.3    80  DG80       -0.3114
   1599  C5'       -0.0880  -17.6380    9.4110 C.3    80  DG80        0.1811
   1600  C4'       -1.0920  -16.6250    8.9190 C.3    80  DG80        0.1746
   1601  O4'       -2.4270  -17.1810    9.0350 O.3    80  DG80       -0.3327
   1602  C3'       -1.2070  -15.3260    9.7030 C.3    80  DG80        0.1558
   1603  O3'       -0.1960  -14.4320    9.3150 O.3    80  DG80       -0.3138
   1604  C2'       -2.5460  -14.8600    9.1600 C.3    80  DG80        0.0865
   1605  C1'       -3.3520  -16.1280    9.2530 C.3    80  DG80        0.2094
   1606  N9        -4.0200  -16.2850   10.5780 N.ar   80  DG80       -0.2713
   1607  C8        -3.7310  -17.2120   11.5510 C.ar   80  DG80        0.1816
   1608  N7        -4.5730  -17.1930   12.5470 N.ar   80  DG80       -0.2173
   1609  C5        -5.4740  -16.1980   12.2160 C.ar   80  DG80        0.1748
   1610  C6        -6.6130  -15.7150   12.9110 C.ar   80  DG80        0.3023
   1611  O6        -7.0630  -16.0920   14.0000 O.2    80  DG80       -0.2633
   1612  N1        -7.2500  -14.6900   12.2170 N.ar   80  DG80       -0.1709
   1613  C2        -6.8400  -14.1910   11.0030 C.ar   80  DG80        0.2606
   1614  N2        -7.5840  -13.2020   10.4890 N.pl3  80  DG80       -0.0859
   1615  N3        -5.7840  -14.6290   10.3460 N.ar   80  DG80       -0.1918
   1616  C4        -5.1500  -15.6240   11.0020 C.ar   80  DG80        0.1722
   1617  P          0.7270  -13.4540   10.2490 P.3    81  DA81        0.2141
   1618  OP1        2.0280  -12.8160    9.9300 O.2    81  DA81       -0.5172
   1619  OP2        0.6550  -14.4650   11.3360 O.3    81  DA81       -0.4373
   1620  O5'       -0.3470  -12.3170   10.5630 O.3    81  DA81       -0.3114
   1621  C5'       -0.6280  -11.2940    9.6040 C.3    81  DA81        0.1811
   1622  C4'       -1.7430  -10.3900   10.0890 C.3    81  DA81        0.1746
   1623  O4'       -3.0120  -11.1020   10.0690 O.3    81  DA81       -0.3327
   1624  C3'       -1.6190   -9.8850   11.5160 C.3    81  DA81        0.1558
   1625  O3'       -0.7540   -8.7610   11.6150 O.3    81  DA81       -0.3138
   1626  C2'       -3.0640   -9.5420   11.8490 C.3    81  DA81        0.0865
   1627  C1'       -3.7960  -10.7120   11.1890 C.3    81  DA81        0.2094
   1628  N9        -3.9110  -11.9000   12.0840 N.ar   81  DA81       -0.2714
   1629  C8        -3.1180  -13.0140   12.1610 C.ar   81  DA81        0.1815
   1630  N7        -3.4430  -13.8290   13.1370 N.ar   81  DA81       -0.2193
   1631  C5        -4.5230  -13.2060   13.7430 C.ar   81  DA81        0.1518
   1632  C6        -5.3260  -13.5610   14.8410 C.ar   81  DA81        0.1919
   1633  N6        -5.1550  -14.6790   15.5500 N.pl3  81  DA81       -0.1054
   1634  N1        -6.3210  -12.7180   15.1880 N.ar   81  DA81       -0.2040
   1635  C2        -6.4920  -11.5980   14.4750 C.ar   81  DA81        0.2016
   1636  N3        -5.8040  -11.1570   13.4250 N.ar   81  DA81       -0.2048
   1637  C4        -4.8220  -12.0170   13.1060 C.ar   81  DA81        0.1691
   1638  P         -0.0650   -8.3410   13.0950 P.3    82  DT82        0.2141
   1639  OP1        0.8990   -7.2520   12.8260 O.2    82  DT82       -0.5172
   1640  OP2        0.4030   -9.5730   13.7850 O.3    82  DT82       -0.4373
   1641  O5'       -1.2780   -7.7100   13.9220 O.3    82  DT82       -0.3114
   1642  C5'       -1.9230   -6.5000   13.4810 C.3    82  DT82        0.1811
   1643  C4'       -3.0810   -6.1540   14.3950 C.3    82  DT82        0.1746
   1644  O4'       -4.0380   -7.2420   14.4050 O.3    82  DT82       -0.3327
   1645  C3'       -2.7260   -5.9220   15.8580 C.3    82  DT82        0.1558
   1646  O3'       -2.3800   -4.5460   16.0380 O.3    82  DT82       -0.3138
   1647  C2'       -4.0350   -6.2520   16.5690 C.3    82  DT82        0.0866
   1648  C1'       -4.5860   -7.3870   15.7030 C.3    82  DT82        0.2106
   1649  N1        -4.2830   -8.7440   16.1430 N.ar   82  DT82       -0.2559
   1650  C2        -5.2120   -9.3520   16.9650 C.ar   82  DT82        0.3545
   1651  O2        -6.3110   -8.8780   17.1900 O.2    82  DT82       -0.2443
   1652  N3        -4.8060  -10.5420   17.5210 N.ar   82  DT82       -0.1533
   1653  C4        -3.5910  -11.1700   17.3400 C.ar   82  DT82        0.2804
   1654  O4        -3.3730  -12.2380   17.9060 O.2    82  DT82       -0.2654
   1655  C5        -2.6810  -10.4760   16.4740 C.ar   82  DT82        0.0534
   1656  C6        -3.0500   -9.3170   15.9210 C.ar   82  DT82        0.0824
   1657  C7        -1.3320  -11.0790   16.2150 C.3    82  DT82        0.0377
   1658  P         -1.0410   -4.1590   16.8220 P.3    83  DA83        0.2141
   1659  OP1       -0.9900   -2.8150   16.2120 O.2    83  DA83       -0.5172
   1660  OP2        0.0180   -5.1520   16.5130 O.3    83  DA83       -0.4373
   1661  O5'       -1.1110   -4.0070   18.4090 O.3    83  DA83       -0.3114
   1662  C5'       -2.2890   -3.4640   19.0400 C.3    83  DA83        0.1811
   1663  C4'       -2.1930   -3.5930   20.5400 C.3    83  DA83        0.1746
   1664  O4'       -2.0840   -4.9960   20.9070 O.3    83  DA83       -0.3327
   1665  C3'       -0.9710   -2.9670   21.1820 C.3    83  DA83        0.1558
   1666  O3'       -1.0960   -1.5610   21.3050 O.3    83  DA83       -0.3138
   1667  C2'       -0.9010   -3.7110   22.5080 C.3    83  DA83        0.0865
   1668  C1'       -1.2590   -5.1270   22.0590 C.3    83  DA83        0.2094
   1669  N9        -0.1260   -5.9260   21.7090 N.ar   83  DA83       -0.2714
   1670  C8         0.2940   -6.2630   20.4490 C.ar   83  DA83        0.1815
   1671  N7         1.3520   -7.0390   20.4340 N.ar   83  DA83       -0.2193
   1672  C5         1.6470   -7.2240   21.7750 C.ar   83  DA83        0.1518
   1673  C6         2.6570   -7.9500   22.4300 C.ar   83  DA83        0.1919
   1674  N6         3.5940   -8.6540   21.7910 N.pl3  83  DA83       -0.1054
   1675  N1         2.6710   -7.9260   23.7800 N.ar   83  DA83       -0.2040
   1676  C2         1.7310   -7.2210   24.4190 C.ar   83  DA83        0.2016
   1677  N3         0.7320   -6.5010   23.9150 N.ar   83  DA83       -0.2048
   1678  C4         0.7460   -6.5440   22.5720 C.ar   83  DA83        0.1691
   1679  P          0.2550   -0.6260   21.4370 P.3    84  DG84        0.2141
   1680  OP1       -0.0780    0.8170   21.4020 O.3    84  DG84       -0.4373
   1681  OP2        0.8880   -1.2640   20.2570 O.2    84  DG84       -0.5172
   1682  O5'        1.1760   -0.9160   22.7040 O.3    84  DG84       -0.3114
   1683  C5'        0.7370   -0.6070   24.0270 C.3    84  DG84        0.1811
   1684  C4'        1.8100   -0.9730   25.0210 C.3    84  DG84        0.1746
   1685  O4'        1.8660   -2.4130   25.2040 O.3    84  DG84       -0.3327
   1686  C3'        3.2020   -0.6130   24.5520 C.3    84  DG84        0.1558
   1687  O3'        3.5130    0.7320   24.7880 O.3    84  DG84       -0.3138
   1688  C2'        4.0820   -1.5720   25.3230 C.3    84  DG84        0.0865
   1689  C1'        3.2190   -2.8360   25.3160 C.3    84  DG84        0.2094
   1690  N9         3.5200   -3.7080   24.1760 N.ar   84  DG84       -0.2713
   1691  C8         3.0800   -3.5940   22.8800 C.ar   84  DG84        0.1816
   1692  N7         3.6990   -4.3910   22.0530 N.ar   84  DG84       -0.2173
   1693  C5         4.6000   -5.0760   22.8470 C.ar   84  DG84        0.1748
   1694  C6         5.5510   -6.0740   22.5150 C.ar   84  DG84        0.3023
   1695  O6         5.7880   -6.5670   21.4050 O.2    84  DG84       -0.2633
   1696  N1         6.2680   -6.5020   23.6290 N.ar   84  DG84       -0.1709
   1697  C2         6.0910   -6.0260   24.9060 C.ar   84  DG84        0.2606
   1698  N2         6.8760   -6.5620   25.8500 N.pl3  84  DG84       -0.0859
   1699  N3         5.2120   -5.0980   25.2300 N.ar   84  DG84       -0.1918
   1700  C4         4.5050   -4.6670   24.1640 C.ar   84  DG84        0.1722
   1701  P          4.5580    1.4850   23.8100 P.3    85  DT85        0.2141
   1702  OP1        3.9300    2.7090   24.3660 O.3    85  DT85       -0.4373
   1703  OP2        5.2250    1.5020   22.4880 O.2    85  DT85       -0.5172
   1704  O5'        5.6720    0.9250   24.8170 O.3    85  DT85       -0.3114
   1705  C5'        5.2920    0.7180   26.1740 C.3    85  DT85        0.1811
   1706  C4'        6.2620   -0.1300   26.9680 C.3    85  DT85        0.1746
   1707  O4'        6.1000   -1.5170   26.5580 O.3    85  DT85       -0.3327
   1708  C3'        7.7430    0.1970   26.7940 C.3    85  DT85        0.1558
   1709  O3'        8.3350    0.8680   27.8990 O.3    85  DT85       -0.3138
   1710  C2'        8.4450   -1.1440   26.6180 C.3    85  DT85        0.0866
   1711  C1'        7.3450   -2.1580   26.3860 C.3    85  DT85        0.2106
   1712  N1         7.4060   -2.6720   25.0520 N.ar   85  DT85       -0.2559
   1713  C2         8.3280   -3.6900   24.8910 C.ar   85  DT85        0.3545
   1714  O2         8.8510   -4.2660   25.8290 O.2    85  DT85       -0.2443
   1715  N3         8.6170   -4.0120   23.5870 N.ar   85  DT85       -0.1533
   1716  C4         8.0900   -3.4310   22.4530 C.ar   85  DT85        0.2804
   1717  O4         8.4470   -3.8290   21.3470 O.2    85  DT85       -0.2654
   1718  C5         7.1420   -2.3810   22.7030 C.ar   85  DT85        0.0534
   1719  C6         6.8420   -2.0490   23.9610 C.ar   85  DT85        0.0824
   1720  C7         6.5120   -1.6850   21.5330 C.3    85  DT85        0.0377
   1721  P          9.5670    2.0480   27.8340 P.3    86  DA86        0.2141
   1722  OP1        9.2220    3.3880   28.3370 O.3    86  DA86       -0.4373
   1723  OP2        9.5050    1.8370   26.3710 O.2    86  DA86       -0.5172
   1724  O5'       11.0070    1.5990   28.3700 O.3    86  DA86       -0.3114
   1725  C5'       12.1820    1.6590   27.5520 C.3    86  DA86        0.1811
   1726  C4'       13.1010    0.4370   27.5970 C.3    86  DA86        0.1746
   1727  O4'       13.4440    0.0150   28.9500 O.3    86  DA86       -0.3327
   1728  C3'       12.5770   -0.8210   26.9390 C.3    86  DA86        0.1558
   1729  O3'       12.7460   -0.7120   25.5400 O.3    86  DA86       -0.3138
   1730  C2'       13.4970   -1.8500   27.5840 C.3    86  DA86        0.0865
   1731  C1'       13.4820   -1.4000   29.0310 C.3    86  DA86        0.2094
   1732  N9        12.4550   -1.8780   29.9280 N.ar   86  DA86       -0.2714
   1733  C8        11.2720   -1.2960   30.3000 C.ar   86  DA86        0.1815
   1734  N7        10.5420   -2.0420   31.0950 N.ar   86  DA86       -0.2193
   1735  C5        11.2970   -3.1930   31.2550 C.ar   86  DA86        0.1518
   1736  C6        11.0770   -4.3750   31.9850 C.ar   86  DA86        0.1919
   1737  N6         9.9850   -4.5970   32.7200 N.pl3  86  DA86       -0.1054
   1738  N1        12.0290   -5.3300   31.9320 N.ar   86  DA86       -0.2040
   1739  C2        13.1240   -5.1060   31.1960 C.ar   86  DA86        0.2016
   1740  N3        13.4440   -4.0370   30.4690 N.ar   86  DA86       -0.2048
   1741  C4        12.4770   -3.1070   30.5420 C.ar   86  DA86        0.1691
   1742  P         11.4070   -1.3020   24.5920 P.3    87  DA87        0.2141
   1743  OP1       11.6010   -0.9140   23.1710 O.2    87  DA87       -0.5172
   1744  OP2       10.1290   -0.9360   25.2520 O.3    87  DA87       -0.4373
   1745  O5'       11.7100   -2.8720   24.7770 O.3    87  DA87       -0.3114
   1746  C5'       12.9270   -3.3480   24.1910 C.3    87  DA87        0.1811
   1747  C4'       13.3050   -4.7100   24.7080 C.3    87  DA87        0.1744
   1748  O4'       13.5400   -4.6340   26.1350 O.3    87  DA87       -0.3349
   1749  C3'       12.2080   -5.7580   24.5960 C.3    87  DA87        0.1555
   1750  O3'       12.1010   -6.2640   23.2830 O.3    87  DA87       -0.3139
   1751  C2'       12.7360   -6.7910   25.5810 C.3    87  DA87        0.0835
   1752  C1'       13.0930   -5.8440   26.7310 C.3    87  DA87        0.1974
   1753  N9        11.8420   -5.6160   27.5520 N.pl3  87  DA87       -0.2458
   1754  C8        10.9640   -4.5670   27.4810 C.2    87  DA87        0.1669
   1755  N7         9.9340   -4.6840   28.2860 N.2    87  DA87       -0.2209
   1756  C5        10.1500   -5.8930   28.9270 C.2    87  DA87        0.1902
   1757  C6         9.4160   -6.5900   29.9040 C.2    87  DA87        0.4251
   1758  N6         8.2700   -6.1450   30.4240 N.pl3  87  DA87        0.2155
   1759  N1         9.9080   -7.7720   30.3320 N.pl3  87  DA87        0.0229
   1760  C2        11.0580   -8.2150   29.8100 C.2    87  DA87        0.3241
   1761  N3        11.8370   -7.6510   28.8900 N.2    87  DA87       -0.2026
   1762  C4        11.3200   -6.4790   28.4850 C.3    87  DA87        0.2332
   1763  P         10.9170   -6.5210   22.8980 P.3    88  DG88        0.2141
   1764  OP1       11.0810   -6.9830   21.5070 O.2    88  DG88       -0.5172
   1765  OP2        9.7730   -5.6530   23.2540 O.3    88  DG88       -0.4373
   1766  O5'       10.8650   -7.8150   23.8230 O.3    88  DG88       -0.3114
   1767  C5'       11.8920   -8.8150   23.7340 C.3    88  DG88        0.1811
   1768  C4'       11.5630  -10.0010   24.6090 C.3    88  DG88        0.1746
   1769  O4'       11.4680   -9.5860   25.9980 O.3    88  DG88       -0.3327
   1770  C3'       10.2460  -10.7030   24.3370 C.3    88  DG88        0.1558
   1771  O3'       10.3470  -11.6200   23.2560 O.3    88  DG88       -0.3138
   1772  C2'        9.9720  -11.4040   25.6620 C.3    88  DG88        0.0865
   1773  C1'       10.5110  -10.3890   26.6740 C.3    88  DG88        0.2093
   1774  N9         9.4100   -9.4760   27.1710 N.ar   88  DG88       -0.2728
   1775  C8         9.0690   -8.2150   26.7480 C.ar   88  DG88        0.1814
   1776  N7         8.0980   -7.6840   27.4400 N.ar   88  DG88       -0.2177
   1777  C5         7.7780   -8.6480   28.3780 C.ar   88  DG88        0.1711
   1778  C6         6.8000   -8.6490   29.4050 C.2    88  DG88        0.2985
   1779  O6         5.9940   -7.7550   29.6960 O.2    88  DG88       -0.2655
   1780  N1         6.8090   -9.8350   30.1320 N.am   88  DG88       -0.1054
   1781  C2         7.6570  -10.8920   29.8990 C.1    88  DG88        0.1287
   1782  N2         7.5160  -11.9520   30.7070 N.2    88  DG88       -0.0780
   1783  N3         8.5700  -10.9070   28.9480 N.pl3  88  DG88       -0.1271
   1784  C4         8.5780   -9.7650   28.2280 C.ar   88  DG88        0.1688
   1785  P          9.0720  -11.7120   22.0650 P.3    89  DT89        0.2141
   1786  OP1        9.2820  -12.3310   20.7340 O.2    89  DT89       -0.5172
   1787  OP2        8.3340  -10.4220   22.1770 O.3    89  DT89       -0.4373
   1788  O5'        8.3280  -12.7630   22.9880 O.3    89  DT89       -0.3114
   1789  C5'        9.0080  -13.9110   23.4620 C.3    89  DT89        0.1811
   1790  C4'        8.3220  -14.4180   24.6960 C.3    89  DT89        0.1746
   1791  O4'        8.3260  -13.3580   25.6870 O.3    89  DT89       -0.3327
   1792  C3'        6.8460  -14.7250   24.4900 C.3    89  DT89        0.1558
   1793  O3'        6.6890  -16.0390   23.9310 O.3    89  DT89       -0.3138
   1794  C2'        6.2790  -14.5690   25.9030 C.3    89  DT89        0.0866
   1795  C1'        7.1410  -13.4290   26.4560 C.3    89  DT89        0.2106
   1796  N1         6.5390  -12.1670   26.4410 N.ar   89  DT89       -0.2559
   1797  C2         5.4680  -12.0410   27.3040 C.ar   89  DT89        0.3545
   1798  O2         5.2420  -12.8310   28.2040 O.3    89  DT89       -0.2447
   1799  N3         4.6640  -10.9500   27.0770 N.ar   89  DT89       -0.1533
   1800  C4         4.8210   -9.9950   26.0940 C.ar   89  DT89        0.2804
   1801  O4         4.0150   -9.0700   26.0150 O.2    89  DT89       -0.2654
   1802  C5         5.9550  -10.1960   25.2370 C.ar   89  DT89        0.0534
   1803  C6         6.7530  -11.2490   25.4370 C.ar   89  DT89        0.0824
   1804  C7         6.2110   -9.2100   24.1360 C.3    89  DT89        0.0377
   1805  P          5.6110  -16.3170   22.7350 P.3    90  DG90        0.2141
   1806  OP1        6.6010  -17.3300   22.3180 O.3    90  DG90       -0.4373
   1807  OP2        5.2260  -15.2510   21.7780 O.2    90  DG90       -0.5172
   1808  O5'        4.3000  -17.1020   23.1670 O.3    90  DG90       -0.3114
   1809  C5'        4.3080  -17.8450   24.3880 C.3    90  DG90        0.1811
   1810  C4'        3.1630  -17.4420   25.2990 C.3    90  DG90        0.1746
   1811  O4'        3.4020  -16.1930   25.9990 O.3    90  DG90       -0.3327
   1812  C3'        1.8080  -17.2090   24.6720 C.3    90  DG90        0.1558
   1813  O3'        1.2050  -18.4300   24.3050 O.3    90  DG90       -0.3138
   1814  C2'        1.0590  -16.5550   25.8250 C.3    90  DG90        0.0865
   1815  C1'        2.1480  -15.6580   26.4120 C.3    90  DG90        0.2094
   1816  N9         2.0050  -14.3180   25.8830 N.ar   90  DG90       -0.2713
   1817  C8         2.8870  -13.7050   25.0260 C.ar   90  DG90        0.1816
   1818  N7         2.5850  -12.4590   24.7810 N.ar   90  DG90       -0.2173
   1819  C5         1.4390  -12.2320   25.5200 C.ar   90  DG90        0.1748
   1820  C6         0.6440  -11.0650   25.6560 C.ar   90  DG90        0.3023
   1821  O6         0.8100   -9.9590   25.1260 O.2    90  DG90       -0.2633
   1822  N1        -0.4390  -11.2680   26.5070 N.ar   90  DG90       -0.1709
   1823  C2        -0.7210  -12.4510   27.1480 C.ar   90  DG90        0.2606
   1824  N2        -1.8090  -12.4540   27.9300 N.pl3  90  DG90       -0.0859
   1825  N3         0.0070  -13.5430   27.0310 N.ar   90  DG90       -0.1918
   1826  C4         1.0640  -13.3700   26.2090 C.ar   90  DG90        0.1722
   1827  P          0.5590  -18.3450   23.3560 P.3    91  DC91        0.2141
   1828  OP1        0.4940  -19.7110   22.7820 O.3    91  DC91       -0.4373
   1829  OP2        0.9940  -17.2120   22.5060 O.2    91  DC91       -0.5172
   1830  O5'       -0.8800  -17.9950   23.9410 O.3    91  DC91       -0.3114
   1831  C5'       -1.4050  -18.7220   25.0640 C.3    91  DC91        0.1811
   1832  C4'       -2.4700  -17.9150   25.7660 C.3    91  DC91        0.1746
   1833  O4'       -1.9520  -16.5940   26.0870 O.3    91  DC91       -0.3327
   1834  C3'       -3.7270  -17.5950   24.9770 C.3    91  DC91        0.1558
   1835  O3'       -4.6110  -18.7130   24.9350 O.3    91  DC91       -0.3138
   1836  C2'       -4.3020  -16.4360   25.7860 C.3    91  DC91        0.0866
   1837  C1'       -3.0310  -15.6730   26.1560 C.3    91  DC91        0.2106
   1838  N1        -2.7200  -14.5640   25.1870 N.ar   91  DC91       -0.2556
   1839  C2        -3.5520  -13.4380   25.1610 C.ar   91  DC91        0.3531
   1840  O2        -4.4780  -13.3600   25.9870 O.2    91  DC91       -0.2443
   1841  N3        -3.3250  -12.4720   24.2400 N.ar   91  DC91       -0.1739
   1842  C4        -2.3200  -12.5990   23.3730 C.ar   91  DC91        0.1759
   1843  N4        -2.1340  -11.6210   22.4830 N.pl3  91  DC91       -0.1070
   1844  C5        -1.4660  -13.7320   23.3830 C.ar   91  DC91        0.0566
   1845  C6        -1.6930  -14.6840   24.2940 C.ar   91  DC91        0.0849
   1846  P         -5.6300  -18.6650   24.0690 P.3    92  DA92        0.2141
   1847  OP1       -6.0690  -20.0510   24.4290 O.3    92  DA92       -0.4373
   1848  OP2       -4.9190  -18.4200   22.7850 O.2    92  DA92       -0.5172
   1849  O5'       -6.7880  -17.5930   24.2520 O.3    92  DA92       -0.3114
   1850  C5'       -7.3880  -17.7030   25.5160 C.3    92  DA92        0.1811
   1851  C4'       -8.1640  -16.4490   25.7750 C.3    92  DA92        0.1748
   1852  O4'       -7.2700  -15.3280   25.8310 O.3    92  DA92       -0.3327
   1853  C3'       -9.0740  -16.0490   24.6300 C.3    92  DA92        0.1602
   1854  O3'      -10.1720  -16.9390   24.6170 O.3    92  DA92       -0.2710
   1855  C2'       -9.4200  -14.6950   25.2000 C.3    92  DA92        0.0867
   1856  C1'       -7.9760  -14.2030   25.3360 C.3    92  DA92        0.2094
   1857  N9        -7.2300  -13.7190   24.1400 N.ar   92  DA92       -0.2714
   1858  C8        -6.2080  -14.4230   23.5590 C.ar   92  DA92        0.1815
   1859  N7        -5.5330  -13.7370   22.6670 N.ar   92  DA92       -0.2193
   1860  C5        -6.1560  -12.4980   22.6610 C.ar   92  DA92        0.1518
   1861  C6        -5.9150  -11.3220   21.9290 C.ar   92  DA92        0.1919
   1862  N6        -4.9380  -11.2000   21.0270 N.pl3  92  DA92       -0.1054
   1863  N1        -6.7210  -10.2640   22.1610 N.ar   92  DA92       -0.2040
   1864  C2        -7.6980  -10.3870   23.0660 C.ar   92  DA92        0.2016
   1865  N3        -8.0220  -11.4380   23.8160 N.ar   92  DA92       -0.2048
   1866  C4        -7.2040  -12.4730   23.5610 C.ar   92  DA92        0.1691
   1867  P        -10.9480  -17.2700   23.4360 P.3    93  DA93        0.5146
   1868  OP1      -12.4150  -17.5240   23.4590 O.2    93  DA93       -0.2240
   1869  OP2      -10.1610  -17.6580   22.2420 O.3    93  DA93       -0.0720
   1870  O5'      -10.7000  -15.7100   23.5790 O.3    93  DA93       -0.2685
   1871  C5'      -11.5710  -14.9000   24.3360 C.3    93  DA93        0.1858
   1872  C4'      -11.6210  -13.5280   23.7330 C.3    93  DA93        0.1776
   1873  O4'      -10.2850  -12.9730   23.7560 O.3    93  DA93       -0.3326
   1874  C3'      -11.9920  -13.5200   22.2610 C.3    93  DA93        0.1865
   1875  O3'      -13.3820  -13.4720   22.0330 O.3    93  DA93       -0.2126
   1876  C2'      -11.3350  -12.2590   21.7460 C.3    93  DA93        0.0894
   1877  C1'      -10.0480  -12.2350   22.5680 C.3    93  DA93        0.2095
   1878  N9        -8.9600  -12.7570   21.8830 N.ar   93  DA93       -0.2714
   1879  C8        -8.5920  -14.0750   21.8100 C.ar   93  DA93        0.1815
   1880  N7        -7.5760  -14.2970   21.0100 N.ar   93  DA93       -0.2193
   1881  C5        -7.2560  -13.0390   20.5230 C.ar   93  DA93        0.1518
   1882  C6        -6.2670  -12.5950   19.6280 C.ar   93  DA93        0.1919
   1883  N6        -5.3820  -13.4050   19.0420 N.pl3  93  DA93       -0.1054
   1884  N1        -6.2180  -11.2740   19.3540 N.ar   93  DA93       -0.2040
   1885  C2        -7.1050  -10.4630   19.9420 C.ar   93  DA93        0.2016
   1886  N3        -8.0780  -10.7620   20.8000 N.ar   93  DA93       -0.2048
   1887  C4        -8.1000  -12.0810   21.0510 C.ar   93  DA93        0.1691
   1888  P        -13.9310  -14.0940   20.6760 P.3    94  DT94        0.4509
   1889  OP1      -14.8130  -13.5460   21.7400 O.3    94  DT94       -0.1400
   1890  OP2      -14.1930  -15.4530   20.1360 O.2    94  DT94       -0.3113
   1891  O5'      -13.7720  -13.0520   19.4860 O.3    94  DT94       -0.2833
   1892  C5'      -14.2490  -11.7160   19.6070 C.3    94  DT94        0.1838
   1893  C4'      -13.5860  -10.8460   18.5760 C.3    94  DT94        0.1747
   1894  O4'      -12.1570  -10.8030   18.8170 O.3    94  DT94       -0.3327
   1895  C3'      -13.7150  -11.3210   17.1380 C.3    94  DT94        0.1558
   1896  O3'      -14.9550  -10.9900   16.5440 O.3    94  DT94       -0.3138
   1897  C2'      -12.5080  -10.6590   16.4780 C.3    94  DT94        0.0866
   1898  C1'      -11.4620  -10.7530   17.5880 C.3    94  DT94        0.2106
   1899  N1       -10.6120  -11.9770   17.4830 N.ar   94  DT94       -0.2559
   1900  C2        -9.5460  -11.8670   16.6100 C.ar   94  DT94        0.3545
   1901  O2        -9.2610  -10.8310   16.0370 O.2    94  DT94       -0.2443
   1902  N3        -8.8220  -13.0210   16.4310 N.ar   94  DT94       -0.1533
   1903  C4        -9.0520  -14.2450   17.0230 C.ar   94  DT94        0.2804
   1904  O4        -8.3120  -15.1910   16.7630 O.2    94  DT94       -0.2654
   1905  C5       -10.1760  -14.2780   17.9150 C.ar   94  DT94        0.0534
   1906  C6       -10.8980  -13.1710   18.1080 C.ar   94  DT94        0.0824
   1907  C7       -10.5080  -15.5660   18.6090 C.3    94  DT94        0.0377
   1908  P        -15.7030  -12.0430   15.4290 P.3    95  DC95        0.2141
   1909  OP1      -17.1200  -11.8150   15.0750 O.2    95  DC95       -0.5172
   1910  OP2      -15.2800  -13.3730   15.9110 O.3    95  DC95       -0.4373
   1911  O5'      -14.7810  -11.6800   14.1940 O.3    95  DC95       -0.3114
   1912  C5'      -14.8500  -10.4080   13.5840 C.3    95  DC95        0.1812
   1913  C4'      -13.9810  -10.4130   12.3670 C.3    95  DC95        0.1775
   1914  O4'      -12.5950  -10.3960   12.7810 O.3    95  DC95       -0.3326
   1915  C3'      -14.1270  -11.6700   11.5370 C.3    95  DC95        0.1864
   1916  O3'      -15.1750  -11.5230   10.6020 O.3    95  DC95       -0.2133
   1917  C2'      -12.7760  -11.7770   10.8530 C.3    95  DC95        0.0895
   1918  C1'      -11.8340  -11.2220   11.9240 C.3    95  DC95        0.2107
   1919  N1       -11.2630  -12.2850   12.6980 N.ar   95  DC95       -0.2556
   1920  C2       -10.1000  -12.9080   12.2310 C.ar   95  DC95        0.3531
   1921  O2        -9.5040  -12.4100   11.2610 O.2    95  DC95       -0.2443
   1922  N3        -9.6600  -14.0310   12.8480 N.ar   95  DC95       -0.1739
   1923  C4       -10.3340  -14.5300   13.8850 C.ar   95  DC95        0.1759
   1924  N4        -9.8620  -15.6380   14.4610 N.pl3  95  DC95       -0.1070
   1925  C5       -11.5150  -13.9140   14.3730 C.ar   95  DC95        0.0566
   1926  C6       -11.9450  -12.8050   13.7610 C.ar   95  DC95        0.0849
   1927  P        -16.1210  -12.9960    8.9450 P.3    96  DT96        0.3939
   1928  OP1      -15.7110  -14.0800    9.8770 O.3    96  DT96       -0.1425
   1929  OP2      -16.4770  -11.6550    9.4860 O.3    96  DT96       -0.1496
   1930  O5'      -14.9890  -12.7880    7.8420 O.3    96  DT96       -0.2926
   1931  C5'      -13.6520  -12.5210    8.2360 C.3    96  DT96        0.1840
   1932  C4'      -12.6930  -12.7840    7.1000 C.3    96  DT96        0.1876
   1933  O4'      -12.7020  -11.6550    6.1800 O.3    96  DT96       -0.3497
   1934  C3'      -11.2530  -12.8670    7.5790 C.3    96  DT96        0.2263
   1935  O3'      -10.9410  -14.1740    8.0360 O.3    96  DT96       -0.3922
   1936  C2'      -10.4590  -12.4140    6.3620 C.3    96  DT96        0.0810
   1937  C1'      -11.3720  -11.3210    5.8050 C.3    96  DT96        0.1462
   1938  N1       -10.6510  -14.5640    9.1010 N.ar   96  DT96       -0.1243
   1939  C2        -9.4880  -15.2840    9.2990 C.ar   96  DT96        0.3847
   1940  O2        -8.5250  -15.2080    8.5570 O.2    96  DT96       -0.2412
   1941  N3        -9.4930  -16.1020   10.4030 N.ar   96  DT96       -0.1510
   1942  C4       -10.5200  -16.2680   11.3080 C.ar   96  DT96        0.2806
   1943  O4       -10.3750  -17.0400   12.2530 O.2    96  DT96       -0.2654
   1944  C5       -11.6930  -15.4870   11.0330 C.ar   96  DT96        0.0567
   1945  C6       -11.7160  -14.6840    9.9670 C.ar   96  DT96        0.1222
   1946  C7       -12.8670  -15.5980   11.9600 C.3    96  DT96        0.0378
@<TRIPOS>BOND
     1   546   545    2
     2   526   525    2
     3   545   547    1
     4   545   533    1
     5   545   548    1
     6   549   548    1
     7   549   550    1
     8   533   532    1
     9   529   528    1
    10   529   530    1
    11   525   528    1
    12   525   513    1
    13   525   527    1
    14   550   552    1
    15   550   551    1
    16   530   532    1
    17   530   531    1
    18   567   566    2
    19   513   512    1
    20   532   534    1
    21   552   553    1
    22   552   554    1
    23   553   566    1
    24   551   555    1
    25   566   568    1
    26   566   569    1
    27   531   535    1
    28   512   514    1
    29   512   510    1
    30   534   535    1
    31   514   515    1
    32   510   509    1
    33   510   511    1
    34   509   508    1
    35   554   555    1
    36   555   556    1
    37   535   536    1
    38   508   505    1
    39   569   570    1
    40   570   571    1
    41   557   556    1
    42   557   558    1
    43   511   515    1
    44   515   516    1
    45   556   565    1
    46   506   505    2
    47   543   536   ar
    48   543   542   ar
    49   536   537   ar
    50   505   507    1
    51   505   492    1
    52   544   542    1
    53   558   559    1
    54   558   538    1
    55   542   540   ar
    56   571   572    1
    57   571   573    1
    58   516   517   ar
    59   516   523   ar
    60   518   517    2
    61   565   559   ar
    62   565   564   ar
    63   572   576    1
    64   492   491    1
    65   537   538    1
    66   537   539   ar
    67   517   519   ar
    68   523   522   ar
    69   559   560   ar
    70   584   583   ar
    71   584   577   ar
    72   564   563   ar
    73   583   581   ar
    74   540   539   ar
    75   540   541    2
    76   573   574    1
    77   573   575    1
    78   574   585    1
    79   491   493    1
    80   491   489    1
    81   519   520   ar
    82   493   494    1
    83   522   520   ar
    84   522   524    1
    85   576   577    1
    86   576   575    1
    87   586   585    2
    88   577   578   ar
    89   587   585    1
    90   560   561    1
    91   560   562   ar
    92   563   562   ar
    93   585   588    1
    94   663   662   ar
    95   663   664   ar
    96   662   661   ar
    97   581   582    1
    98   581   580   ar
    99   520   521    2
   100   689   690    1
   101   689   688    1
   102   489   488    1
   103   489   490    1
   104   691   690    1
   105   691   695    1
   106   690   692    1
   107   654   653    1
   108   654   650    1
   109   654   655    1
   110   678   677    2
   111   671   675    1
   112   671   670    1
   113   661   659   ar
   114   578   580   ar
   115   578   579    2
   116   653   651    1
   117   675   674    1
   118   675   676    1
   119   664   655   ar
   120   664   658   ar
   121   673   672    1
   122   673   685    1
   123   494   490    1
   124   494   495    1
   125   488   487    1
   126   670   672    1
   127   670   669    1
   128   650   649    1
   129   655   656   ar
   130   503   502   ar
   131   503   504   ar
   132   485   484    2
   133   695   694    1
   134   695   696    1
   135   686   685    2
   136   588   589    1
   137   688   685    1
   138   502   501   ar
   139   674   672    1
   140   677   676   ar
   141   677   679   ar
   142   495   504   ar
   143   495   496   ar
   144   676   683   ar
   145   504   498   ar
   146   649   651    1
   147   649   648    1
   148   693   692    1
   149   693   706    1
   150   685   687    1
   151   669   668    1
   152   692   694    1
   153   659   658   ar
   154   659   660    1
   155   487   484    1
   156   658   657   ar
   157   501   499   ar
   158   651   652    1
   159   589   590    1
   160   496   497   ar
   161   656   657   ar
   162   637   636    2
   163   498   499   ar
   164   498   497   ar
   165   696   697   ar
   166   696   705   ar
   167   652   665    1
   168   484   486    1
   169   484   473    1
   170   679   680   ar
   171   499   500    1
   172   707   706    2
   173   683   682   ar
   174   697   698   ar
   175   668   665    1
   176   602   603   ar
   177   602   600   ar
   178   648   647    1
   179   704   705   ar
   180   704   703   ar
   181   705   699   ar
   182   603   596   ar
   183   706   709    1
   184   706   708    1
   185   666   665    2
   186   710   711    1
   187   710   709    1
   188   591   590    1
   189   591   595    1
   190   665   667    1
   191   636   638   ar
   192   636   635   ar
   193   633   634    1
   194   633   631    1
   195   601   600    1
   196   590   592    1
   197   680   682   ar
   198   680   681    2
   199   473   472    1
   200   682   684    1
   201   698   699   ar
   202   600   599   ar
   203   703   702   ar
   204   638   639   ar
   205   647   644    1
   206   712   711    1
   207   712   716    1
   208   634   635    1
   209   634   630    1
   210   699   700   ar
   211   711   713    1
   212   474   472    1
   213   474   475    1
   214   596   595    1
   215   596   597   ar
   216   635   642   ar
   217   478   477    2
   218   595   594    1
   219   472   470    1
   220   592   593    1
   221   592   594    1
   222   702   700   ar
   223   700   701    1
   224   631   632    1
   225   631   629    1
   226   599   597   ar
   227   632   644    1
   228   716   717    1
   229   716   715    1
   230   639   640    2
   231   639   641   ar
   232   630   629    1
   233   597   598    2
   234   644   646    2
   235   644   645    1
   236   477   479   ar
   237   477   476   ar
   238   593   604    1
   239   724   717    1
   240   724   723    1
   241   713   714    1
   242   713   715    1
   243   479   480   ar
   244   475   476    1
   245   475   471    1
   246   629   628    1
   247   642   641   ar
   248   605   604    2
   249   714   725    1
   250   717   718    1
   251   476   483   ar
   252   470   471    1
   253   470   469    1
   254   723   721    2
   255   641   643    1
   256   604   606    1
   257   604   607    1
   258   731   735    1
   259   731   730    1
   260   480   481    1
   261   480   482   ar
   262   718   719    1
   263   718   720    2
   264   735   734    1
   265   735   736    1
   266   719   739    1
   267   721   720    1
   268   721   722    1
   269   483   482   ar
   270   469   468    1
   271   628   627    1
   272   730   729    1
   273   730   732    1
   274   468   465    1
   275   725   726    2
   276   725   728    1
   277   725   727    1
   278   607   608    1
   279   734   732    1
   280   736   743    1
   281   736   737   am
   282   729   728    1
   283   738   737    2
   284   627   624    1
   285   743   742    1
   286   737   739   am
   287   466   465    2
   288   608   609    1
   289   732   733    1
   290   465   467    1
   291   465   451    1
   292   742   740    2
   293   739   740    1
   294   611   613    1
   295   611   609    1
   296   611   612    1
   297   740   741    1
   298   624   626    1
   299   624   625    1
   300   733   744    1
   301   462   461    1
   302   613   614    1
   303   609   610    1
   304   460   461   ar
   305   460   458   ar
   306   459   458    2
   307   461   463   ar
   308   451   450    1
   309   612   625    1
   310   458   457   ar
   311   750   754    1
   312   750   749    1
   313   463   464   ar
   314   450   452    1
   315   450   448    1
   316   623   621    1
   317   610   614    1
   318   457   464   ar
   319   457   456   ar
   320   748   747    1
   321   748   749    1
   322   744   747    1
   323   744   745    2
   324   744   746    1
   325   614   615    1
   326   754   755    1
   327   754   753    1
   328   622   621   ar
   329   622   615   ar
   330   464   454   ar
   331   452   453    1
   332   749   751    1
   333   756   755   ar
   334   756   757   ar
   335   456   455   ar
   336   621   619   ar
   337   755   764   ar
   338   615   616   ar
   339   454   455   ar
   340   454   453    1
   341   757   758   ar
   342   343   342    2
   343   764   758   ar
   344   764   763   ar
   345   758   759   ar
   346   445   443    2
   347   448   447    1
   348   448   449    1
   349   453   449    1
   350   446   447    1
   351   446   443    1
   352   363   362    1
   353   753   751    1
   354   763   762   ar
   355   440   439    1
   356   751   752    1
   357   759   760    1
   358   759   761   ar
   359   619   620    2
   360   619   618   ar
   361   616   618   ar
   362   616   617    2
   363   762   761   ar
   364   443   444    1
   365   443   432    1
   366   364   362    2
   367   439   438   ar
   368   439   441   ar
   369   342   345    1
   370   342   344    1
   371   342   330    1
   372   323   322    2
   373   438   436   ar
   374   345   346    1
   375   385   383    2
   376   767   765    2
   377   752   765    1
   378   346   347    1
   379   441   442   ar
   380   420   419    2
   381   350   365    1
   382   350   349    1
   383   330   329    1
   384   765   768    1
   385   765   766    1
   386   436   437    2
   387   436   435   ar
   388   384   383    1
   389   432   431    1
   390   442   435   ar
   391   383   386    1
   392   383   370    1
   393   431   433    1
   394   431   429    1
   395   365   366    1
   396   423   421    1
   397   349   347    1
   398   349   351    1
   399   435   434    1
   400   419   421   ar
   401   419   418   ar
   402   322   325    1
   403   322   324    1
   404   322   309    1
   405   347   348    1
   406   433   434    1
   407   406   404    2
   408   778   777   ar
   409   778   779   ar
   410   768   769    1
   411   326   325    1
   412   326   327    1
   413   426   424    2
   414   781   780    2
   415   777   776   ar
   416   366   367    1
   417   386   387    1
   418   421   422   ar
   419   329   327    1
   420   329   331    1
   421   418   416   ar
   422   779   780   ar
   423   779   786   ar
   424   370   369    1
   425   427   428    1
   426   427   424    1
   427   780   782   ar
   428   771   775    1
   429   771   770    1
   430   396   395   ar
   431   396   397   ar
   432   434   430    1
   433   399   398    1
   434   769   770    1
   435   327   328    1
   436   309   308    1
   437   776   786   ar
   438   776   775    1
   439   428   429    1
   440   429   430    1
   441   424   425    1
   442   424   412    1
   443   786   785   ar
   444   369   367    1
   445   369   371    1
   446   348   352    1
   447   395   394   ar
   448   351   352    1
   449   782   783   ar
   450   361   359    1
   451   367   368    1
   452   404   405    1
   453   404   407    1
   454   404   391    1
   455   387   388    1
   456   775   774    1
   457   422   415   ar
   458   416   417    2
   459   416   415   ar
   460   770   772    1
   461   331   332    1
   462   397   398   ar
   463   397   403   ar
   464   785   783   ar
   465   398   400   ar
   466   360   359   ar
   467   360   353   ar
   468   783   784    1
   469   375   374   ar
   470   375   376   ar
   471   374   373   ar
   472   415   414    1
   473   352   353    1
   474   407   408    1
   475   359   357   ar
   476   390   391    1
   477   390   388    1
   478   390   392    1
   479   308   306    1
   480   308   310    1
   481   328   332    1
   482   368   372    1
   483   412   411    1
   484   394   403   ar
   485   394   393    1
   486   388   389    1
   487   411   413    1
   488   411   409    1
   489   371   372    1
   490   353   354   ar
   491   305   306    1
   492   305   304    1
   493   772   774    1
   494   772   773    1
   495   302   301    2
   496   332   333    1
   497   403   402   ar
   498   306   307    1
   499   389   393    1
   500   400   401   ar
   501   413   414    1
   502   373   372    1
   503   373   382   ar
   504   310   311    1
   505   376   377   ar
   506   376   382   ar
   507   378   377    1
   508   340   333   ar
   509   340   339   ar
   510   341   339    1
   511   803   802    1
   512   392   393    1
   513   414   410    1
   514   408   409    1
   515   333   334   ar
   516   377   379   ar
   517   357   358    2
   518   357   356   ar
   519   339   337   ar
   520   382   381   ar
   521   304   301    1
   522   409   410    1
   523   802   804   ar
   524   802   801   ar
   525   354   356   ar
   526   354   355    2
   527   401   402   ar
   528   773   787    1
   529   804   805   ar
   530   301   288    1
   531   301   303    1
   532   307   311    1
   533   801   799   ar
   534   311   312    1
   535   334   335    2
   536   334   336   ar
   537   288   287    1
   538   379   380   ar
   539   805   798   ar
   540   337   336   ar
   541   337   338    2
   542   381   380   ar
   543   789   787    2
   544   799   798   ar
   545   799   800    2
   546   798   797    1
   547   822   821    2
   548   787   790    1
   549   787   788    1
   550   312   313   ar
   551   312   321   ar
   552   313   314   ar
   553   793   797    1
   554   793   792    1
   555   790   791    1
   556   287   289    1
   557   287   285    1
   558   289   290    1
   559   821   820   ar
   560   821   823   ar
   561   797   796    1
   562   320   321   ar
   563   320   319   ar
   564   321   315   ar
   565   820   818   ar
   566   791   792    1
   567   314   315   ar
   568   825   823    1
   569   285   284    1
   570   285   286    1
   571   823   824   ar
   572   315   316   ar
   573   792   794    1
   574   319   318   ar
   575   863   864   ar
   576   863   861   ar
   577   818   819    2
   578   818   817   ar
   579   864   865   ar
   580   839   838    2
   581   842   841    2
   582   840   838   ar
   583   840   841   ar
   584   290   286    1
   585   290   291    1
   586   284   283    1
   587   281   280    2
   588   796   794    1
   589   824   817   ar
   590   880   879    2
   591   316   318   ar
   592   316   317    1
   593   817   816    1
   594   862   861    1
   595   838   837   ar
   596   794   795    1
   597   841   843   ar
   598   861   860   ar
   599   865   866   ar
   600   299   300   ar
   601   299   298   ar
   602   291   300   ar
   603   291   292   ar
   604   283   280    1
   605   300   294   ar
   606   298   297   ar
   607   816   812    1
   608   816   815    1
   609   879   881   ar
   610   879   878   ar
   611   280   282    1
   612   280   269    1
   613   900   899    2
   614   866   860   ar
   615   866   857   ar
   616   860   859   ar
   617   837   836    1
   618   837   844   ar
   619   292   293   ar
   620   843   844   ar
   621   843   845    1
   622   877   878    1
   623   877   873    1
   624   877   876    1
   625   812   811    1
   626   893   897    1
   627   893   892    1
   628   881   882   ar
   629   897   898    1
   630   897   896    1
   631   795   806    1
   632   836   832    1
   633   836   835    1
   634   294   293   ar
   635   294   295   ar
   636   878   885   ar
   637   873   872    1
   638   297   295   ar
   639   899   898   ar
   640   899   901   ar
   641   876   874    1
   642   857   856    1
   643   857   858   ar
   644   892   891    1
   645   892   894    1
   646   859   858   ar
   647   295   296    1
   648   269   268    1
   649   913   917    1
   650   913   912    1
   651   832   831    1
   652   898   905   ar
   653   815   813    1
   654   808   806    2
   655   896   894    1
   656   882   883    2
   657   882   884   ar
   658   901   902   ar
   659   856   852    1
   660   856   855    1
   661   917   918    1
   662   917   916    1
   663   891   890    1
   664   872   874    1
   665   872   871    1
   666   835   833    1
   667   806   809    1
   668   806   807    1
   669   885   884   ar
   670   920   919    2
   671   912   911    1
   672   912   914    1
   673   811   813    1
   674   811   810    1
   675   809   810    1
   676   894   895    1
   677   852   851    1
   678   911   910    1
   679   905   904   ar
   680   270   268    1
   681   270   271    1
   682   874   875    1
   683   884   886    1
   684   813   814    1
   685   268   266    1
   686   918   919   ar
   687   918   925   ar
   688   919   921   ar
   689   895   907    1
   690   916   914    1
   691   902   904   ar
   692   902   903    2
   693   890   887    1
   694   831   833    1
   695   831   830    1
   696   855   853    1
   697   875   887    1
   698   871   870    1
   699   904   906    1
   700   925   924   ar
   701   833   834    1
   702   914   915    1
   703   910   907    1
   704   921   922   ar
   705   274   273    2
   706   915   926    1
   707   830   829    1
   708   851   853    1
   709   851   850    1
   710   829   826    1
   711   266   265    1
   712   266   267    1
   713   828   826    2
   714   814   826    1
   715   271   272    1
   716   271   267    1
   717   924   922   ar
   718   887   888    2
   719   887   889    1
   720   273   272   ar
   721   273   275   ar
   722   922   923    1
   723   907   908    2
   724   907   909    1
   725   932   931    1
   726   932   936    1
   727   826   827    1
   728   853   854    1
   729   849   850    1
   730   849   846    1
   731   272   279   ar
   732   870   867    1
   733   275   276   ar
   734   834   846    1
   735   265   264    1
   736   930   931    1
   737   930   929    1
   738   848   846    2
   739   931   933    1
   740   936   937    1
   741   936   935    1
   742   279   278   ar
   743   854   867    1
   744   276   278   ar
   745   276   277    1
   746   926   929    1
   747   926   927    2
   748   926   928    1
   749   869   867    2
   750   846   847    1
   751   264   261    1
   752   867   868    1
   753   262   261    2
   754   937   938   ar
   755   937   946   ar
   756   263   261    1
   757   938   939   ar
   758   261   249    1
   759   935   933    1
   760   946   945   ar
   761   946   940   ar
   762   945   944   ar
   763   933   934    1
   764   939   940   ar
   765   940   941   ar
   766   944   943   ar
   767   934   947    1
   768   941   943   ar
   769   941   942    1
   770   249   248    1
   771   254   253    2
   772   248   250    1
   773   248   246    1
   774   255   253   ar
   775   255   256   ar
   776   947   950    1
   777   947   948    2
   778   947   949    1
   779   257   256    2
   780   950   951    1
   781   253   252   ar
   782   250   251    1
   783   256   258   ar
   784   951   952    1
   785   953   952    1
   786   953   957    1
   787   252   259   ar
   788   252   251    1
   789   258   259   ar
   790   258   260    1
   791   959   960   ar
   792   959   958   ar
   793   952   954    1
   794   246   245    1
   795   246   247    1
   796   960   961   ar
   797   251   247    1
   798   957   958    1
   799   957   956    1
   800   245   244    1
   801   958   967   ar
   802   243   241    2
   803   961   967   ar
   804   961   962   ar
   805   967   966   ar
   806   963   962    1
   807   242   241    1
   808   962   964   ar
   809   966   965   ar
   810   954   956    1
   811   954   955    1
   812   241   244    1
   813   241   229    1
   814   964   965   ar
   815   237   236    2
   816   955   968    1
   817   223   221    2
   818   236   235   ar
   819   236   238   ar
   820   235   233   ar
   821   229   228    1
   822   161   160    2
   823   240   238    1
   824   181   180    2
   825   182   180    1
   826   238   239   ar
   827   228   230    1
   828   228   226    1
   829   970   968    2
   830   233   234    2
   831   233   232   ar
   832   221   222    1
   833   221   224    1
   834   221   208    1
   835   224   225    1
   836   180   168    1
   837   180   183    1
   838   162   160    1
   839   230   231    1
   840   239   232   ar
   841   968   969    1
   842   968   971    1
   843   216   215    1
   844   160   163    1
   845   160   149    1
   846   232   231    1
   847   974   978    1
   848   974   973    1
   849   199   197    1
   850   987   985    1
   851   202   200    2
   852   985   986   ar
   853   985   983   ar
   854   986   979   ar
   855   225   226    1
   856   226   227    1
   857   163   164    1
   858   978   979    1
   859   978   977    1
   860   215   214   ar
   861   215   217   ar
   862   983   984    2
   863   983   982   ar
   864   231   227    1
   865   979   980   ar
   866   213   214   ar
   867   213   212   ar
   868   179   177    1
   869   971   972    1
   870   972   973    1
   871   168   167    1
   872   201   200    1
   873   982   980   ar
   874   973   975    1
   875   980   981    2
   876   214   220   ar
   877   149   148    1
   878   217   218   ar
   879   208   207    1
   880   183   184    1
   881   200   203    1
   882   200   188    1
   883   142   141    2
   884   197   195   ar
   885   197   198   ar
   886   184   185    1
   887   212   211   ar
   888   164   165    1
   889   196   195    2
   890   203   204    1
   891   167   165    1
   892   167   169    1
   893   207   209    1
   894   207   205    1
   895   220   211   ar
   896   220   219   ar
   897   218   219   ar
   898   195   194   ar
   899   198   191   ar
   900   177   178   ar
   901   177   175   ar
   902   211   210    1
   903   977   975    1
   904   209   210    1
   905   148   146    1
   906   148   150    1
   907   143   141    1
   908   165   166    1
   909   178   171   ar
   910   141   144    1
   911   141   127    1
   912   144   145    1
   913   975   976    1
   914   188   187    1
   915   187   185    1
   916   187   189    1
   917   204   205    1
   918  1004  1003    2
   919   145   146    1
   920   176   175    2
   921   169   170    1
   922   185   186    1
   923   205   206    1
   924   175   174   ar
   925   210   206    1
   926  1007  1005    1
   927   194   192   ar
   928   146   147    1
   929   150   151    1
   930   191   192   ar
   931   191   190    1
   932   186   190    1
   933   166   170    1
   934  1003  1005   ar
   935  1003  1002   ar
   936   171   170    1
   937   171   172   ar
   938   976   988    1
   939  1005  1006   ar
   940   120   119    2
   941   192   193    2
   942   127   126    1
   943   189   190    1
   944  1002  1000   ar
   945   174   172   ar
   946   172   173    2
   947  1006   999   ar
   948   147   151    1
   949   159   158   ar
   950   159   152   ar
   951   151   152    1
   952   158   156   ar
   953   121   119    1
   954   152   153   ar
   955  1000   999   ar
   956  1000  1001    2
   957   990   988    2
   958   119   122    1
   959   119   106    1
   960   156   157    1
   961   156   155   ar
   962   153   155   ar
   963   153   154    2
   964   122   123    1
   965   999   998    1
   966   126   124    1
   967   126   128    1
   968    99    98    2
   969   988   991    1
   970   988   989    1
   971   123   124    1
   972   994   998    1
   973   994   993    1
   974  1024  1023    1
   975   124   125    1
   976  1025  1023   ar
   977  1025  1026   ar
   978   998   997    1
   979   991   992    1
   980   128   129    1
   981  1023  1022   ar
   982   106   105    1
   983  1026  1027   ar
   984   992   993    1
   985    98   100    1
   986    98   101    1
   987    98    87    1
   988  1022  1028   ar
   989  1022  1021   ar
   990   993   995    1
   991  1027  1028   ar
   992   131   132   ar
   993   131   130   ar
   994    80    79    2
   995  1028  1019   ar
   996   125   129    1
   997   101   102    1
   998   132   133   ar
   999  1021  1020   ar
  1000   130   129    1
  1001   130   140   ar
  1002    81    79    1
  1003   997   995    1
  1004   105   103    1
  1005   105   107    1
  1006   102   103    1
  1007   133   140   ar
  1008   133   134   ar
  1009   140   139   ar
  1010  1019  1020   ar
  1011  1019  1018    1
  1012    87    86    1
  1013    79    82    1
  1014    79    68    1
  1015   995   996    1
  1016   103   104    1
  1017   139   137   ar
  1018   134   135    2
  1019   134   136   ar
  1020    82    83    1
  1021  1018  1014    1
  1022  1018  1017    1
  1023    83    84    1
  1024    86    84    1
  1025    86    88    1
  1026   137   136   ar
  1027   137   138    1
  1028  1014  1013    1
  1029   107   108    1
  1030  1045  1044    1
  1031  1043  1044   ar
  1032  1043  1041   ar
  1033    61    60    2
  1034    68    67    1
  1035   996  1008    1
  1036    84    85    1
  1037  1042  1041    2
  1038  1044  1046   ar
  1039    88    89    1
  1040   104   108    1
  1041  1041  1040   ar
  1042    62    60    1
  1043  1017  1015    1
  1044    96    97    1
  1045    96    94    2
  1046    97    90    1
  1047   108   109    1
  1048    60    63    1
  1049    60    47    1
  1050  1046  1047   ar
  1051  1013  1012    1
  1052  1013  1015    1
  1053    63    64    1
  1054    67    69    1
  1055    67    65    1
  1056  1010  1008    2
  1057    95    94    1
  1058  1040  1047   ar
  1059  1040  1039    1
  1060  1011  1012    1
  1061  1011  1008    1
  1062    94    93    1
  1063    85    89    1
  1064   110   109   ar
  1065   110   111   ar
  1066    90    89    1
  1067    90    91    1
  1068   109   118   ar
  1069  1008  1009    1
  1070  1015  1016    1
  1071    69    70    1
  1072    93    91    2
  1073  1039  1035    1
  1074  1039  1038    1
  1075    91    92    1
  1076   111   112   ar
  1077  1035  1034    1
  1078    64    65    1
  1079   118   112   ar
  1080   118   117   ar
  1081    65    66    1
  1082    77    78   ar
  1083    77    75   ar
  1084    92  1067    1
  1085   112   113   ar
  1086    40    39    2
  1087  1067  1066    2
  1088    47    46    1
  1089    78    71   ar
  1090   117   116   ar
  1091  1065  1066    2
  1092  1065  1063    1
  1093  1064  1063    2
  1094  1066  1068    1
  1095  1063  1062    1
  1096    76    75    1
  1097    75    74   ar
  1098  1016  1029    1
  1099    70    71    1
  1100    70    66    1
  1101  1068  1069    1
  1102    71    72   ar
  1103   113   114    1
  1104   113   115   ar
  1105  1062  1069   ar
  1106  1062  1061   ar
  1107  1038  1036    1
  1108   116   115   ar
  1109  1069  1059   ar
  1110  1034  1033    1
  1111  1034  1036    1
  1112    41    39    1
  1113    39    42    1
  1114    39    27    1
  1115  1061  1060   ar
  1116    74    72   ar
  1117  1033  1032    1
  1118    46    48    1
  1119    46    44    1
  1120    42    43    1
  1121    72    73    2
  1122  1032  1029    1
  1123  1059  1060   ar
  1124  1059  1058    1
  1125  1031  1029    2
  1126  1054  1058    1
  1127  1054  1053    1
  1128  1058  1057    1
  1129  1036  1037    1
  1130  1029  1030    1
  1131    43    44    1
  1132  1937  1933    1
  1133  1937  1936    1
  1134    48    49    1
  1135    27    26    1
  1136    44    45    1
  1137  1933  1932    1
  1138  1936  1934    1
  1139  1053  1052    1
  1140  1053  1055    1
  1141    20    19    2
  1142  1057  1055    1
  1143  1052  1051    1
  1144    23    22    1
  1145    23    24    1
  1146  1037  1048    1
  1147    51    50   ar
  1148    51    52   ar
  1149    50    49    1
  1150    50    59   ar
  1151  1932  1934    1
  1152  1932  1931    1
  1153    49    45    1
  1154    52    53   ar
  1155    26    24    1
  1156    26    28    1
  1157  1051  1048    1
  1158    59    53   ar
  1159    59    58   ar
  1160    53    54   ar
  1161    58    57   ar
  1162  1086  1085    2
  1163    54    55    1
  1164    54    56   ar
  1165    57    56   ar
  1166  1055  1056    1
  1167    22    19    1
  1168  1934  1935    1
  1169    24    25    1
  1170  1089  1087    1
  1171  1085  1087   ar
  1172  1085  1084   ar
  1173  1930  1931    1
  1174  1930  1927    1
  1175  1087  1088   ar
  1176    19    21    1
  1177    19     6    1
  1178    15    16   ar
  1179    15    13   ar
  1180  1084  1082   ar
  1181  1935  1938    1
  1182  1048  1050    2
  1183  1048  1049    1
  1184    14    13    1
  1185    16    17   ar
  1186  1088  1081   ar
  1187    13    12   ar
  1188  1076  1080    1
  1189  1076  1075    1
  1190    28    29    1
  1191  1082  1081   ar
  1192  1082  1083    2
  1193  1081  1080    1
  1194  1940  1939    2
  1195  1080  1079    1
  1196  1056  1070    1
  1197    17    18   ar
  1198  1600  1601    1
  1199  1600  1599    1
  1200  1600  1602    1
  1201  1927  1929    1
  1202  1927  1928    1
  1203    25    29    1
  1204    12    18   ar
  1205    12    11   ar
  1206  1601  1605    1
  1207  1938  1939   ar
  1208  1938  1945   ar
  1209  1604  1605    1
  1210  1604  1602    1
  1211  1073  1074    1
  1212  1073  1070    1
  1213    18     9   ar
  1214  1605  1606    1
  1215  1939  1941   ar
  1216  1603  1602    1
  1217  1603  1617    1
  1218  1599  1598    1
  1219     7     5    1
  1220     7     8    1
  1221  1074  1075    1
  1222     6     5    1
  1223    29    30    1
  1224  1929  1916    1
  1225    11    10   ar
  1226    37    30   ar
  1227    37    36   ar
  1228    30    31   ar
  1229  1621  1622    1
  1230  1621  1620    1
  1231  1075  1077    1
  1232  1070  1071    2
  1233  1070  1072    1
  1234    38    36    1
  1235     5     3    1
  1236    36    34   ar
  1237     9    10   ar
  1238     9     8    1
  1239    31    32    2
  1240    31    33   ar
  1241  1618  1617    2
  1242  1945  1944   ar
  1243  1593  1592   ar
  1244  1593  1594   ar
  1245  1592  1591   ar
  1246  1623  1622    1
  1247  1623  1627    1
  1248  1622  1624    1
  1249  1079  1077    1
  1250  1617  1620    1
  1251  1617  1619    1
  1252    33    34   ar
  1253    34    35    2
  1254  1615  1616   ar
  1255  1615  1613   ar
  1256     8     4    1
  1257  1941  1942   ar
  1258  1614  1613    1
  1259  1583  1584    1
  1260  1583  1581    1
  1261  1606  1616   ar
  1262  1606  1607   ar
  1263  1584  1580    1
  1264  1584  1585    1
  1265  1916  1915    1
  1266  1077  1078    1
  1267  1598  1595    1
  1268  1917  1915    1
  1269  1917  1918    1
  1270  1616  1609   ar
  1271  1613  1612   ar
  1272  1591  1589   ar
  1273  1580  1579    1
  1274  1596  1595    2
  1275  1944  1942   ar
  1276  1944  1946    1
  1277  1594  1585   ar
  1278  1594  1588   ar
  1279  1582  1595    1
  1280  1582  1581    1
  1281  1627  1626    1
  1282  1627  1628    1
  1283  1921  1920    2
  1284  1942  1943    2
  1285  1585  1586   ar
  1286     3     4    1
  1287     3     2    1
  1288     1     2    1
  1289  1595  1597    1
  1290  1579  1581    1
  1291  1579  1578    1
  1292  1624  1625    1
  1293  1624  1626    1
  1294  1915  1913    1
  1295  1607  1608   ar
  1296  1625  1638    1
  1297  1918  1919    1
  1298  1918  1914    1
  1299  1078  1090    1
  1300  1589  1588   ar
  1301  1589  1590    1
  1302  1628  1629   ar
  1303  1628  1637   ar
  1304  1588  1587   ar
  1305  1629  1630   ar
  1306  1609  1608   ar
  1307  1609  1610   ar
  1308  1612  1610   ar
  1309  1920  1919   ar
  1310  1920  1922   ar
  1311  1913  1914    1
  1312  1913  1912    1
  1313  1586  1587   ar
  1314  1919  1926   ar
  1315  1639  1638    2
  1316  1922  1923   ar
  1317  1578  1577    1
  1318  1610  1611    2
  1319  1090  1091    2
  1320  1090  1092    1
  1321  1090  1093    1
  1322  1638  1640    1
  1323  1638  1641    1
  1324  1637  1636   ar
  1325  1637  1631   ar
  1326  1630  1631   ar
  1327  1636  1635   ar
  1328  1642  1641    1
  1329  1642  1643    1
  1330  1912  1911    1
  1331  1631  1632   ar
  1332  1926  1925   ar
  1333  1094  1093    1
  1334  1094  1095    1
  1335  1923  1925   ar
  1336  1923  1924    1
  1337  1577  1574    1
  1338  1911  1908    1
  1339  1643  1644    1
  1340  1643  1645    1
  1341  1644  1648    1
  1342  1635  1634   ar
  1343  1632  1634   ar
  1344  1632  1633    1
  1345  1096  1095    1
  1346  1096  1100    1
  1347  1562  1574    1
  1348  1562  1561    1
  1349  1095  1097    1
  1350  1909  1908    2
  1351  1542  1541    1
  1352  1542  1554    1
  1353  1539  1540    1
  1354  1539  1541    1
  1355  1539  1538    1
  1356  1576  1574    2
  1357  1559  1560    1
  1358  1559  1561    1
  1359  1559  1558    1
  1360  1574  1575    1
  1361  1555  1554    2
  1362  1908  1910    1
  1363  1908  1896    1
  1364  1108  1107   ar
  1365  1108  1101   ar
  1366  1543  1541    1
  1367  1543  1544    1
  1368  1557  1558    1
  1369  1557  1554    1
  1370  1540  1544    1
  1371  1107  1105   ar
  1372  1648  1649    1
  1373  1648  1647    1
  1374  1538  1537    1
  1375  1560  1564    1
  1376  1561  1563    1
  1377  1645  1646    1
  1378  1645  1647    1
  1379  1544  1545    1
  1380  1656  1649   ar
  1381  1656  1655   ar
  1382  1901  1900    2
  1383  1646  1658    1
  1384  1649  1650   ar
  1385  1100  1101    1
  1386  1100  1099    1
  1387  1554  1556    1
  1388  1659  1658    2
  1389  1657  1655    1
  1390  1101  1102   ar
  1391  1097  1098    1
  1392  1097  1099    1
  1393  1902  1900   ar
  1394  1902  1903   ar
  1395  1655  1653   ar
  1396  1897  1895    1
  1397  1897  1898    1
  1398  1660  1658    1
  1399  1896  1895    1
  1400  1522  1523    1
  1401  1522  1520    1
  1402  1900  1899   ar
  1403  1105  1106    1
  1404  1105  1104   ar
  1405  1547  1546    2
  1406  1564  1563    1
  1407  1564  1565    1
  1408  1535  1534    2
  1409  1904  1903    2
  1410  1658  1661    1
  1411  1523  1519    1
  1412  1523  1524    1
  1413  1098  1109    1
  1414  1521  1520    1
  1415  1521  1534    1
  1416  1650  1651    2
  1417  1650  1652   ar
  1418  1532  1531   ar
  1419  1532  1533   ar
  1420  1903  1905   ar
  1421  1519  1518    1
  1422  1510  1509   ar
  1423  1510  1511   ar
  1424  1537  1534    1
  1425  1895  1893    1
  1426  1545  1546   ar
  1427  1545  1552   ar
  1428  1102  1104   ar
  1429  1102  1103    2
  1430  1518  1520    1
  1431  1518  1517    1
  1432  1653  1652   ar
  1433  1653  1654    2
  1434  1531  1530   ar
  1435  1509  1507   ar
  1436  1899  1898    1
  1437  1899  1906   ar
  1438  1546  1548   ar
  1439  1111  1109    2
  1440  1898  1894    1
  1441  1534  1536    1
  1442  1511  1512   ar
  1443  1905  1906   ar
  1444  1905  1907    1
  1445  1567  1566    2
  1446  1533  1524   ar
  1447  1533  1527   ar
  1448  1489  1488    1
  1449  1524  1525   ar
  1450  1552  1551   ar
  1451  1109  1110    1
  1452  1109  1112    1
  1453  1565  1566   ar
  1454  1565  1572   ar
  1455  1661  1662    1
  1456  1128  1126    1
  1457  1517  1516    1
  1458  1530  1528   ar
  1459  1893  1894    1
  1460  1893  1892    1
  1461  1566  1568   ar
  1462  1487  1488   ar
  1463  1487  1485   ar
  1464  1507  1508    2
  1465  1507  1506   ar
  1466  1548  1549   ar
  1467  1488  1490   ar
  1468  1662  1663    1
  1469  1883  1882    1
  1470  1508  1890    1
  1471  1512  1506   ar
  1472  1512  1503   ar
  1473  1572  1571   ar
  1474  1527  1528   ar
  1475  1527  1526   ar
  1476  1525  1526   ar
  1477  1884  1882   ar
  1478  1884  1885   ar
  1479  1486  1485    2
  1480  1551  1549   ar
  1481  1551  1553    1
  1482  1125  1124    2
  1483  1891  1892    1
  1484  1891  1888    1
  1485  1528  1529    1
  1486  1126  1124   ar
  1487  1126  1127   ar
  1488  1485  1484   ar
  1489  1882  1881   ar
  1490  1506  1505   ar
  1491  1112  1113    1
  1492  1516  1513    1
  1493  1549  1550    1
  1494  1568  1569   ar
  1495  1885  1886   ar
  1496  1124  1123   ar
  1497  1890  1888    1
  1498  1490  1491   ar
  1499  1127  1120   ar
  1500  1503  1502    1
  1501  1503  1504   ar
  1502  1681  1679    2
  1503  1571  1569   ar
  1504  1571  1573    1
  1505  1671  1670   ar
  1506  1671  1672   ar
  1507  1670  1669   ar
  1508  1881  1880   ar
  1509  1881  1887   ar
  1510  1502  1498    1
  1511  1502  1501    1
  1512  1663  1664    1
  1513  1663  1665    1
  1514  1113  1114    1
  1515  1888  1889    1
  1516  1786  1785    2
  1517  1886  1887   ar
  1518  1484  1491   ar
  1519  1484  1483    1
  1520  1569  1570    2
  1521  1550  1869    1
  1522  1664  1668    1
  1523  1115  1114    1
  1524  1115  1119    1
  1525  1880  1879   ar
  1526  1862  1861    1
  1527  1505  1504   ar
  1528  1123  1121   ar
  1529  1887  1878   ar
  1530  1500  1513    1
  1531  1500  1499    1
  1532  1498  1497    1
  1533  1513  1514    2
  1534  1513  1515    1
  1535  1665  1666    1
  1536  1665  1667    1
  1537  1120  1121   ar
  1538  1120  1119    1
  1539  1666  1679    1
  1540  1717  1716    2
  1541  1680  1679    1
  1542  1695  1694    2
  1543  1679  1682    1
  1544  1764  1763    2
  1545  1720  1718    1
  1546  1501  1499    1
  1547  1114  1116    1
  1548  1483  1479    1
  1549  1483  1482    1
  1550  1669  1668    1
  1551  1669  1678   ar
  1552  1121  1122    2
  1553  1889  1875    1
  1554  1876  1874    1
  1555  1876  1877    1
  1556  1672  1673   ar
  1557  1672  1678   ar
  1558  1807  1805    2
  1559  1674  1673    1
  1560  1879  1878   ar
  1561  1119  1118    1
  1562  1878  1877    1
  1563  1861  1863   ar
  1564  1861  1860   ar
  1565  1875  1874    1
  1566  1692  1693   ar
  1567  1692  1691   ar
  1568  1668  1667    1
  1569  1785  1787    1
  1570  1785  1788    1
  1571  1785  1771    1
  1572  1499  1497    1
  1573  1497  1496    1
  1574  1863  1864   ar
  1575  1869  1867    1
  1576  1874  1872    1
  1577  1806  1805    1
  1578  1673  1675   ar
  1579  1716  1718   ar
  1580  1716  1715   ar
  1581  1843  1842    1
  1582  1703  1701    2
  1583  1479  1478    1
  1584  1829  1827    2
  1585  1694  1693   ar
  1586  1694  1696   ar
  1587  1482  1480    1
  1588  1877  1873    1
  1589  1678  1677   ar
  1590  1860  1859   ar
  1591  1860  1866   ar
  1592  1859  1858   ar
  1593  1718  1719   ar
  1594  1682  1683    1
  1595  1116  1118    1
  1596  1116  1117    1
  1597  1805  1808    1
  1598  1805  1793    1
  1599  1828  1827    1
  1600  1848  1846    2
  1601  1693  1700   ar
  1602  1691  1690   ar
  1603  1763  1765    1
  1604  1763  1750    1
  1605  1763  1766    1
  1606  1788  1789    1
  1607  1474  1473    2
  1608  1145  1144    2
  1609  1864  1865   ar
  1610  1808  1809    1
  1611  1743  1742    2
  1612  1771  1770    1
  1613  1750  1749    1
  1614  1827  1830    1
  1615  1827  1813    1
  1616  1842  1844   ar
  1617  1842  1841   ar
  1618  1844  1845   ar
  1619  1867  1868    2
  1620  1867  1870    1
  1621  1867  1854    1
  1622  1789  1790    1
  1623  1496  1495    1
  1624  1858  1857   ar
  1625  1866  1865   ar
  1626  1866  1857   ar
  1627  1870  1871    1
  1628  1715  1713   ar
  1629  1142  1143   ar
  1630  1142  1141   ar
  1631  1696  1697   ar
  1632  1131  1129    2
  1633  1872  1873    1
  1634  1872  1871    1
  1635  1767  1766    1
  1636  1767  1768    1
  1637  1462  1463    1
  1638  1462  1460    1
  1639  1675  1676   ar
  1640  1117  1129    1
  1641  1701  1702    1
  1642  1701  1687    1
  1643  1701  1704    1
  1644  1476  1473    1
  1645  1476  1477    1
  1646  1144  1143   ar
  1647  1144  1146   ar
  1648  1461  1473    1
  1649  1461  1460    1
  1650  1311  1310    2
  1651  1495  1492    1
  1652  1478  1480    1
  1653  1478  1477    1
  1654  1677  1676   ar
  1655  1793  1792    1
  1656  1830  1831    1
  1657  1719  1712   ar
  1658  1466  1465    2
  1659  1480  1481    1
  1660  1683  1684    1
  1661  1846  1849    1
  1662  1846  1847    1
  1663  1846  1835    1
  1664  1804  1802    1
  1665  1857  1856    1
  1666  1143  1150   ar
  1667  1700  1690   ar
  1668  1700  1699   ar
  1669  1690  1689    1
  1670  1746  1747    1
  1671  1746  1745    1
  1672  1841  1839   ar
  1673  1473  1475    1
  1674  1141  1140   ar
  1675  1849  1850    1
  1676  1463  1459    1
  1677  1463  1464    1
  1678  1845  1838   ar
  1679  1813  1812    1
  1680  1770  1768    1
  1681  1770  1772    1
  1682  1809  1810    1
  1683  1129  1132    1
  1684  1129  1130    1
  1685  1792  1790    1
  1686  1792  1794    1
  1687  1460  1458    1
  1688  1686  1687    1
  1689  1686  1684    1
  1690  1686  1688    1
  1691  1742  1745    1
  1692  1742  1744    1
  1693  1742  1729    1
  1694  1749  1747    1
  1695  1749  1751    1
  1696  1768  1769    1
  1697  1854  1853    1
  1698  1458  1459    1
  1699  1458  1457    1
  1700  1853  1855    1
  1701  1853  1851    1
  1702  1146  1147   ar
  1703  1812  1810    1
  1704  1812  1814    1
  1705  1790  1791    1
  1706  1312  1310    1
  1707  1747  1748    1
  1708  1818  1817   ar
  1709  1818  1819   ar
  1710  1481  1492    1
  1711  1704  1705    1
  1712  1713  1712   ar
  1713  1713  1714    2
  1714  1697  1699   ar
  1715  1697  1698    1
  1716  1835  1834    1
  1717  1834  1832    1
  1718  1834  1836    1
  1719  1310  1299    1
  1720  1310  1313    1
  1721  1684  1685    1
  1722  1817  1816   ar
  1723  1712  1711    1
  1724  1831  1832    1
  1725  1465  1464   ar
  1726  1465  1467   ar
  1727  1150  1140   ar
  1728  1150  1149   ar
  1729  1821  1820    2
  1730  1492  1494    2
  1731  1492  1493    1
  1732  1839  1838   ar
  1733  1839  1840    2
  1734  1140  1139    1
  1735  1838  1837    1
  1736  1855  1856    1
  1737  1685  1689    1
  1738  1132  1133    1
  1739  1802  1803   ar
  1740  1802  1800   ar
  1741  1810  1811    1
  1742  1689  1688    1
  1743  1856  1852    1
  1744  1464  1471   ar
  1745  1803  1796   ar
  1746  1850  1851    1
  1747  1819  1820   ar
  1748  1819  1826   ar
  1749  1299  1298    1
  1750  1729  1728    1
  1751  1333  1331    2
  1752  1147  1149   ar
  1753  1147  1148    1
  1754  1751  1752    1
  1755  1446  1445    2
  1756  1820  1822   ar
  1757  1772  1773    1
  1758  1791  1795    1
  1759  1832  1833    1
  1760  1292  1291    2
  1761  1457  1456    1
  1762  1851  1852    1
  1763  1836  1837    1
  1764  1814  1815    1
  1765  1816  1826   ar
  1766  1816  1815    1
  1767  1794  1795    1
  1768  1135  1139    1
  1769  1135  1134    1
  1770  1769  1773    1
  1771  1811  1815    1
  1772  1801  1800    2
  1773  1167  1166    1
  1774  1833  1837    1
  1775  1800  1799   ar
  1776  1748  1752    1
  1777  1133  1134    1
  1778  1313  1314    1
  1779  1447  1445   ar
  1780  1447  1448   ar
  1781  1705  1706    1
  1782  1467  1468   ar
  1783  1826  1825   ar
  1784  1332  1331    1
  1785  1139  1138    1
  1786  1445  1444   ar
  1787  1723  1721    2
  1788  1711  1707    1
  1789  1711  1710    1
  1790  1796  1795    1
  1791  1796  1797   ar
  1792  1822  1823   ar
  1793  1707  1706    1
  1794  1331  1318    1
  1795  1331  1334    1
  1796  1710  1708    1
  1797  1449  1448    2
  1798  1295  1296    1
  1799  1295  1294    1
  1800  1773  1774    1
  1801  1314  1315    1
  1802  1752  1753    1
  1803  1471  1470   ar
  1804  1775  1774   ar
  1805  1775  1776   ar
  1806  1317  1318    1
  1807  1317  1319    1
  1808  1317  1315    1
  1809  1708  1706    1
  1810  1708  1709    1
  1811  1298  1296    1
  1812  1298  1300    1
  1813  1429  1430   ar
  1814  1429  1427   ar
  1815  1134  1136    1
  1816  1448  1450   ar
  1817  1728  1730    1
  1818  1728  1726    1
  1819  1296  1297    1
  1820  1166  1168   ar
  1821  1166  1165   ar
  1822  1825  1823   ar
  1823  1456  1453    1
  1824  1799  1797   ar
  1825  1823  1824    1
  1826  1774  1784   ar
  1827  1428  1427    1
  1828  1291  1294    1
  1829  1291  1280    1
  1830  1291  1293    1
  1831  1442  1443    1
  1832  1442  1440    1
  1833  1797  1798    1
  1834  1319  1320    1
  1835  1444  1443    1
  1836  1444  1451   ar
  1837  1443  1439    1
  1838  1430  1431   ar
  1839  1776  1777   ar
  1840  1168  1169   ar
  1841  1165  1163   ar
  1842  1315  1316    1
  1843  1754  1753    1
  1844  1754  1755    2
  1845  1136  1138    1
  1846  1136  1137    1
  1847  1468  1470   ar
  1848  1468  1469    2
  1849  1753  1762    1
  1850  1725  1726    1
  1851  1725  1724    1
  1852  1280  1279    1
  1853  1730  1731    1
  1854  1726  1727    1
  1855  1427  1426   ar
  1856  1334  1335    1
  1857  1470  1472    1
  1858  1300  1301    1
  1859  1721  1709    1
  1860  1721  1722    1
  1861  1721  1724    1
  1862  1450  1451   ar
  1863  1450  1452    1
  1864  1798  1347    1
  1865  1784  1777   ar
  1866  1784  1783    1
  1867  1344  1343   ar
  1868  1344  1345   ar
  1869  1755  1756    1
  1870  1137  1153    1
  1871  1297  1301    1
  1872  1186  1185    1
  1873  1322  1323   ar
  1874  1322  1321   ar
  1875  1777  1778    1
  1876  1169  1162   ar
  1877  1355  1353    2
  1878  1453  1454    2
  1879  1453  1441    1
  1880  1453  1455    1
  1881  1347  1346    1
  1882  1163  1162   ar
  1883  1163  1164    2
  1884  1762  1761    1
  1885  1762  1756    1
  1886  1439  1438    1
  1887  1323  1324   ar
  1888  1431  1432   ar
  1889  1316  1320    1
  1890  1440  1441    1
  1891  1440  1438    1
  1892  1320  1321    1
  1893  1343  1342   ar
  1894  1335  1336    1
  1895  1301  1302    1
  1896  1162  1161    1
  1897  1279  1281    1
  1898  1279  1277    1
  1899  1761  1760    2
  1900  1756  1757    2
  1901  1187  1185   ar
  1902  1187  1188   ar
  1903  1783  1781    1
  1904  1727  1731    1
  1905  1281  1282    1
  1906  1731  1732    1
  1907  1426  1432   ar
  1908  1426  1425   ar
  1909  1185  1184   ar
  1910  1153  1151    1
  1911  1408  1407    2
  1912  1438  1437    1
  1913  1321  1330   ar
  1914  1345  1346    1
  1915  1345  1352   ar
  1916  1354  1353    1
  1917  1346  1348    2
  1918  1277  1276    1
  1919  1277  1278    1
  1920  1432  1423   ar
  1921  1778  1779    2
  1922  1778  1780    1
  1923  1353  1339    1
  1924  1353  1356    1
  1925  1188  1189   ar
  1926  1388  1387    2
  1927  1324  1330   ar
  1928  1324  1325   ar
  1929  1391  1389    1
  1930  1760  1759    1
  1931  1276  1275    1
  1932  1781  1780    2
  1933  1781  1782    2
  1934  1757  1759    1
  1935  1757  1758    1
  1936  1732  1733   ar
  1937  1732  1741   ar
  1938  1151  1154    1
  1939  1151  1152    1
  1940  1184  1183   ar
  1941  1184  1190   ar
  1942  1161  1157    1
  1943  1161  1160    1
  1944  1157  1156    1
  1945  1302  1309   ar
  1946  1302  1303   ar
  1947  1336  1338    1
  1948  1336  1337    1
  1949  1342  1352   ar
  1950  1342  1341    1
  1951  1425  1424   ar
  1952  1330  1329   ar
  1953  1338  1339    1
  1954  1338  1340    1
  1955  1326  1325    2
  1956  1326  1782    1
  1957  1309  1308   ar
  1958  1337  1341    1
  1959  1733  1734   ar
  1960  1407  1406   ar
  1961  1407  1409   ar
  1962  1183  1182   ar
  1963  1759  1227    1
  1964  1154  1155    1
  1965  1282  1278    1
  1966  1282  1283    1
  1967  1369  1368    1
  1968  1352  1351    1
  1969  1740  1741   ar
  1970  1740  1739   ar
  1971  1325  1327   ar
  1972  1189  1190   ar
  1973  1741  1735   ar
  1974  1348  1349    2
  1975  1273  1272    2
  1976  1190  1181   ar
  1977  1387  1389   ar
  1978  1387  1386   ar
  1979  1423  1424   ar
  1980  1423  1422    1
  1981  1406  1404   ar
  1982  1370  1368   ar
  1983  1370  1371   ar
  1984  1356  1357    1
  1985  1437  1436    1
  1986  1374  1372    2
  1987  1275  1272    1
  1988  1304  1303    2
  1989  1389  1390   ar
  1990  1411  1409    1
  1991  1341  1340    1
  1992  1303  1305   ar
  1993  1155  1156    1
  1994  1734  1735   ar
  1995  1285  1284    2
  1996  1182  1181   ar
  1997  1739  1738   ar
  1998  1368  1367   ar
  1999  1329  1328   ar
  2000  1207  1206    1
  2001  1735  1736   ar
  2002  1156  1158    1
  2003  1160  1158    1
  2004  1409  1410   ar
  2005  1308  1306   ar
  2006  1421  1422    1
  2007  1421  1419    1
  2008  1205  1206   ar
  2009  1205  1203   ar
  2010  1181  1180    1
  2011  1436  1433    1
  2012  1422  1418    1
  2013  1204  1203    2
  2014  1371  1364   ar
  2015  1272  1274    1
  2016  1272  1259    1
  2017  1327  1328   ar
  2018  1283  1284   ar
  2019  1283  1290   ar
  2020  1227  1228    1
  2021  1227  1225    1
  2022  1351  1349    1
  2023  1349  1350    1
  2024  1206  1208   ar
  2025  1228  1229    2
  2026  1386  1384   ar
  2027  1158  1159    1
  2028  1435  1433    2
  2029  1284  1286   ar
  2030  1203  1202   ar
  2031  1357  1358    1
  2032  1738  1736   ar
  2033  1404  1405    2
  2034  1404  1403   ar
  2035  1736  1737    1
  2036  1390  1383   ar
  2037  1305  1306   ar
  2038  1372  1373    1
  2039  1372  1375    1
  2040  1372  1361    1
  2041  1226  1225    1
  2042  1180  1176    1
  2043  1180  1179    1
  2044  1306  1307    1
  2045  1290  1289   ar
  2046  1244  1243    2
  2047  1225  1224    2
  2048  1367  1365   ar
  2049  1419  1420    1
  2050  1419  1417    1
  2051  1410  1403   ar
  2052  1433  1420    1
  2053  1433  1434    1
  2054  1229  1230    1
  2055  1375  1376    1
  2056  1176  1175    1
  2057  1360  1361    1
  2058  1360  1358    1
  2059  1360  1362    1
  2060  1208  1209   ar
  2061  1259  1258    1
  2062  1364  1365   ar
  2063  1364  1363    1
  2064  1202  1209   ar
  2065  1202  1201    1
  2066  1403  1402    1
  2067  1418  1417    1
  2068  1286  1287   ar
  2069  1358  1359    1
  2070  1394  1392    2
  2071  1384  1383   ar
  2072  1384  1385    2
  2073  1383  1382    1
  2074  1172  1170    2
  2075  1159  1170    1
  2076  1359  1363    1
  2077  1243  1245   ar
  2078  1243  1242   ar
  2079  1365  1366    2
  2080  1289  1287   ar
  2081  1224  1230    1
  2082  1224  1223    1
  2083  1245  1246   ar
  2084  1230  1221    1
  2085  1179  1177    1
  2086  1417  1416    1
  2087  1260  1258    1
  2088  1260  1261    1
  2089  1287  1288    1
  2090  1363  1362    1
  2091  1414  1412    2
  2092  1201  1197    1
  2093  1201  1200    1
  2094  1258  1256    1
  2095  1376  1377    1
  2096  1415  1416    1
  2097  1415  1412    1
  2098  1197  1196    1
  2099  1241  1242    1
  2100  1241  1240    1
  2101  1241  1237    1
  2102  1170  1173    1
  2103  1170  1171    1
  2104  1173  1174    1
  2105  1175  1177    1
  2106  1175  1174    1
  2107  1242  1249   ar
  2108  1402  1401    1
  2109  1402  1398    1
  2110  1223  1222    2
  2111  1379  1377    1
  2112  1379  1381    1
  2113  1379  1380    1
  2114  1269  1270   ar
  2115  1269  1268   ar
  2116  1270  1271   ar
  2117  1177  1178    1
  2118  1378  1382    1
  2119  1378  1377    1
  2120  1246  1247    2
  2121  1246  1248   ar
  2122  1401  1399    1
  2123  1221  1220    1
  2124  1221  1222    1
  2125  1392  1395    1
  2126  1392  1380    1
  2127  1392  1393    1
  2128  1382  1381    1
  2129  1395  1396    1
  2130  1240  1238    1
  2131  1237  1236    1
  2132  1412  1400    1
  2133  1412  1413    1
  2134  1399  1400    1
  2135  1399  1397    1
  2136  1220  1219    1
  2137  1220  1216    1
  2138  1256  1257    1
  2139  1256  1255    1
  2140  1398  1397    1
  2141  1268  1266   ar
  2142  1261  1262    1
  2143  1261  1257    1
  2144  1200  1198    1
  2145  1249  1248   ar
  2146  1271  1262   ar
  2147  1271  1265   ar
  2148  1194  1195    1
  2149  1194  1191    1
  2150  1248  1250    1
  2151  1196  1195    1
  2152  1196  1198    1
  2153  1219  1217    1
  2154  1397  1396    1
  2155  1262  1263   ar
  2156  1178  1191    1
  2157  1255  1254    1
  2158  1216  1215    1
  2159  1193  1191    2
  2160  1236  1238    1
  2161  1236  1235    1
  2162  1266  1265   ar
  2163  1266  1267    1
  2164  1238  1239    1
  2165  1198  1199    1
  2166  1254  1251    1
  2167  1265  1264   ar
  2168  1191  1192    1
  2169  1253  1251    2
  2170  1263  1264   ar
  2171  1215  1217    1
  2172  1215  1214    1
  2173  1217  1218    1
  2174  1239  1251    1
  2175  1235  1234    1
  2176  1251  1252    1
  2177  1199  1210    1
  2178  1234  1231    1
  2179  1218  1231    1
  2180  1212  1210    2
  2181  1213  1214    1
  2182  1213  1210    1
  2183  1210  1211    1
  2184  1231  1233    2
  2185  1231  1232    1
