@<TRIPOS>MOLECULE
dna.pdb
 1573 1760 0 0 0
SMALL
GASTEIGER

@<TRIPOS>ATOM
      1  O5'       -6.1630  -14.1970   11.7010 O.3     1  DA1        -0.2176
      2  C5'       -5.6670  -14.6860   10.4630 C.3     1  DA1         0.2140
      3  C4'       -6.6270  -14.4110    9.3310 C.3     1  DA1         0.1776
      4  O4'       -7.4350  -13.2490    9.6500 O.3     1  DA1        -0.3326
      5  C3'       -5.9830  -14.0740    7.9940 C.3     1  DA1         0.1559
      6  O3'       -5.6020  -15.2200    7.2510 O.3     1  DA1        -0.3138
      7  C2'       -7.0480  -13.2220    7.3110 C.3     1  DA1         0.0865
      8  C1'       -7.6320  -12.4570    8.4990 C.3     1  DA1         0.2094
      9  N9        -7.0710  -11.1630    8.8420 N.ar    1  DA1        -0.2714
     10  C8        -6.3200  -10.8160    9.9340 C.ar    1  DA1         0.1815
     11  N7        -5.9950   -9.5450    9.9710 N.ar    1  DA1        -0.2193
     12  C5        -6.5700   -9.0230    8.8230 C.ar    1  DA1         0.1518
     13  C6        -6.5910   -7.7250    8.2820 C.ar    1  DA1         0.1919
     14  N6        -5.9940   -6.6760    8.8530 N.pl3   1  DA1        -0.1054
     15  N1        -7.2550   -7.5410    7.1210 N.ar    1  DA1        -0.2040
     16  C2        -7.8540   -8.5930    6.5500 C.ar    1  DA1         0.2016
     17  N3        -7.9040   -9.8570    6.9620 N.ar    1  DA1        -0.2048
     18  C4        -7.2350  -10.0070    8.1170 C.ar    1  DA1         0.1691
     19  P         -4.2610  -15.1350    6.1350 P.3     2  DT2         0.2141
     20  OP1       -4.0000  -16.1910    5.1250 O.2     2  DT2        -0.5172
     21  OP2       -3.2100  -14.7890    7.1200 O.3     2  DT2        -0.4373
     22  O5'       -4.6920  -13.8010    5.3670 O.3     2  DT2        -0.3114
     23  C5'       -5.6680  -13.8350    4.3020 C.3     2  DT2         0.1811
     24  C4'       -5.9350  -12.4370    3.7800 C.3     2  DT2         0.1746
     25  O4'       -6.4450  -11.5900    4.8440 O.3     2  DT2        -0.3327
     26  C3'       -4.7140  -11.6920    3.2710 C.3     2  DT2         0.1558
     27  O3'       -4.4230  -12.0740    1.9420 O.3     2  DT2        -0.3138
     28  C2'       -5.1450  -10.2350    3.3770 C.3     2  DT2         0.0866
     29  C1'       -5.9770  -10.2600    4.6600 C.3     2  DT2         0.2106
     30  N1        -5.1830   -9.8710    5.8000 N.ar    2  DT2        -0.2559
     31  C2        -5.0300   -8.5130    6.0010 C.ar    2  DT2         0.3545
     32  O2        -5.5040   -7.6740    5.2560 O.2     2  DT2        -0.2443
     33  N3        -4.2960   -8.1690    7.1100 N.ar    2  DT2        -0.1533
     34  C4        -3.7130   -9.0280    8.0190 C.ar    2  DT2         0.2804
     35  O4        -3.0830   -8.5680    8.9680 O.2     2  DT2        -0.2654
     36  C5        -3.9160  -10.4220    7.7410 C.ar    2  DT2         0.0534
     37  C6        -4.6260  -10.7840    6.6690 C.ar    2  DT2         0.0824
     38  C7        -3.3200  -11.4360    8.6720 C.3     2  DT2         0.0377
     39  P         -3.3860  -11.7730    1.5630 P.3     3  DA3         0.2141
     40  OP1       -2.7150  -12.9320    0.9260 O.2     3  DA3        -0.5172
     41  OP2       -2.6110  -10.6220    2.0860 O.3     3  DA3        -0.4373
     42  O5'       -4.3990  -11.0960    0.5290 O.3     3  DA3        -0.3114
     43  C5'       -4.9740  -11.8020   -0.5600 C.3     3  DA3         0.1811
     44  C4'       -5.7160  -10.8220   -1.4250 C.3     3  DA3         0.1746
     45  O4'       -6.6900  -10.1390   -0.5980 O.3     3  DA3        -0.3327
     46  C3'       -4.8560   -9.7080   -2.0010 C.3     3  DA3         0.1558
     47  O3'       -4.2420  -10.0770   -3.2220 O.3     3  DA3        -0.3138
     48  C2'       -5.8270   -8.5430   -2.1360 C.3     3  DA3         0.0865
     49  C1'       -6.7450   -8.7710   -0.9350 C.3     3  DA3         0.2094
     50  N9        -6.2290   -7.9890    0.2650 N.ar    3  DA3        -0.2715
     51  C8        -5.5810   -8.4510    1.3800 C.ar    3  DA3         0.1817
     52  N7        -5.2690   -7.5100    2.2400 N.ar    3  DA3        -0.2146
     53  C5        -5.7450   -6.3500    1.6480 C.ar    3  DA3         0.2065
     54  C6        -5.7270   -5.0040    2.0550 C.2     3  DA3         0.4316
     55  N6        -5.1910   -4.5870    3.2040 N.pl3   3  DA3         0.2175
     56  N1        -6.2860   -4.0930    1.2310 N.4     3  DA3        -0.0218
     57  C2        -6.8240   -4.5130    0.0800 C.3     3  DA3         0.3250
     58  N3        -6.9020   -5.7480   -0.4110 N.2     3  DA3        -0.2055
     59  C4        -6.3370   -6.6290    0.4310 C.ar    3  DA3         0.1715
     60  P         -2.8880   -9.7640   -3.3630 P.3     4  DC4         0.2141
     61  OP1       -2.0690  -10.8050   -4.0270 O.2     4  DC4        -0.5172
     62  OP2       -2.3430   -9.0480   -2.1900 O.3     4  DC4        -0.4373
     63  O5'       -3.2750   -8.6620   -4.4410 O.3     4  DC4        -0.3114
     64  C5'       -3.6440   -9.0340   -5.7790 C.3     4  DC4         0.1811
     65  C4'       -3.6770   -7.8090   -6.6510 C.3     4  DC4         0.1746
     66  O4'       -4.7840   -6.9590   -6.2470 O.3     4  DC4        -0.3327
     67  C3'       -2.4570   -6.9120   -6.5160 C.3     4  DC4         0.1558
     68  O3'       -1.3570   -7.3810   -7.2910 O.3     4  DC4        -0.3138
     69  C2'       -3.0050   -5.5690   -6.9780 C.3     4  DC4         0.0866
     70  C1'       -4.4050   -5.5970   -6.3610 C.3     4  DC4         0.2106
     71  N1        -4.3730   -4.9700   -4.9990 N.ar    4  DC4        -0.2556
     72  C2        -4.5810   -3.5870   -4.9510 C.ar    4  DC4         0.3531
     73  O2        -4.8220   -2.9810   -6.0100 O.2     4  DC4        -0.2443
     74  N3        -4.5140   -2.9500   -3.7570 N.ar    4  DC4        -0.1739
     75  C4        -4.2520   -3.6410   -2.6470 C.ar    4  DC4         0.1759
     76  N4        -4.1950   -2.9710   -1.4940 N.pl3   4  DC4        -0.1070
     77  C5        -4.0380   -5.0430   -2.6740 C.ar    4  DC4         0.0566
     78  C6        -4.1050   -5.6670   -3.8550 C.ar    4  DC4         0.0849
     79  P          0.1820   -7.1270   -6.7750 P.3     5  DC5         0.2141
     80  OP1        1.0830   -8.1890   -7.1360 O.2     5  DC5        -0.5172
     81  OP2        0.2080   -7.1930   -5.3920 O.3     5  DC5        -0.4373
     82  O5'        0.6030   -5.6460   -7.1880 O.3     5  DC5        -0.3114
     83  C5'        0.9430   -5.3500   -8.4850 C.3     5  DC5         0.1811
     84  C4'        1.0010   -3.8450   -8.6310 C.3     5  DC5         0.1746
     85  O4'       -0.2010   -3.2460   -8.1600 O.3     5  DC5        -0.3327
     86  C3'        1.9330   -3.1220   -7.6880 C.3     5  DC5         0.1558
     87  O3'        3.1640   -3.5110   -8.1200 O.3     5  DC5        -0.3138
     88  C2'        1.5430   -1.6960   -8.0150 C.3     5  DC5         0.0866
     89  C1'        0.0530   -1.9040   -7.8250 C.3     5  DC5         0.2106
     90  N1        -0.3280   -1.6970   -6.3600 N.ar    5  DC5        -0.2556
     91  C2        -0.4400   -0.3970   -5.8530 C.ar    5  DC5         0.3531
     92  O2        -0.1880    0.5610   -6.6040 O.2     5  DC5        -0.2443
     93  N3        -0.8170   -0.2220   -4.5640 N.ar    5  DC5        -0.1739
     94  C4        -1.0760   -1.2800   -3.7950 C.ar    5  DC5         0.1759
     95  N4        -1.4440   -1.0590   -2.5310 N.pl3   5  DC5        -0.1070
     96  C5        -0.9680   -2.6050   -4.2900 C.ar    5  DC5         0.0566
     97  C6        -0.5960   -2.7740   -5.5630 C.ar    5  DC5         0.0849
     98  P          4.5660   -3.1570   -7.5160 P.3     6  DA6         0.2141
     99  OP1        5.6220   -4.0240   -8.1070 O.2     6  DA6        -0.5172
    100  OP2        3.9870   -3.4940   -6.1820 O.3     6  DA6        -0.4373
    101  O5'        5.0840   -1.6610   -7.4290 O.3     6  DA6        -0.3114
    102  C5'        5.0400   -0.8350   -8.5730 C.3     6  DA6         0.1811
    103  C4'        4.6230    0.5490   -8.1810 C.3     6  DA6         0.1746
    104  O4'        3.3220    0.4870   -7.5370 O.3     6  DA6        -0.3327
    105  C3'        5.4860    1.2280   -7.1290 C.3     6  DA6         0.1558
    106  O3'        6.7080    1.7630   -7.6210 O.3     6  DA6        -0.3138
    107  C2'        4.5510    2.2980   -6.5830 C.3     6  DA6         0.0865
    108  C1'        3.1930    1.6000   -6.6650 C.3     6  DA6         0.2094
    109  N9         2.8160    1.1390   -5.3550 N.ar    6  DA6        -0.2714
    110  C8         2.7910   -0.1800   -4.9810 C.ar    6  DA6         0.1815
    111  N7         2.3480   -0.3750   -3.7620 N.ar    6  DA6        -0.2193
    112  C5         2.0630    0.9010   -3.3040 C.ar    6  DA6         0.1518
    113  C6         1.5580    1.3760   -2.0800 C.ar    6  DA6         0.1919
    114  N6         1.2380    0.5840   -1.0550 N.pl3   6  DA6        -0.1054
    115  N1         1.3920    2.7100   -1.9470 N.ar    6  DA6        -0.2040
    116  C2         1.7120    3.5030   -2.9760 C.ar    6  DA6         0.2016
    117  N3         2.1930    3.1750   -4.1720 N.ar    6  DA6        -0.2048
    118  C4         2.3470    1.8440   -4.2730 C.ar    6  DA6         0.1691
    119  P          7.8300    1.9260   -6.7120 P.3     7  DG7         0.2141
    120  OP1        9.2330    1.8780   -6.2390 O.2     7  DG7        -0.5172
    121  OP2        6.7040    1.6970   -5.7780 O.3     7  DG7        -0.4373
    122  O5'        7.5550    3.3810   -7.3220 O.3     7  DG7        -0.3114
    123  C5'        7.9730    4.5230   -6.5900 C.3     7  DG7         0.1811
    124  C4'        6.8020    5.3080   -6.0500 C.3     7  DG7         0.1746
    125  O4'        5.8210    4.4100   -5.4720 O.3     7  DG7        -0.3327
    126  C3'        7.1380    6.2710   -4.9240 C.3     7  DG7         0.1558
    127  O3'        7.6420    7.5020   -5.4120 O.3     7  DG7        -0.3138
    128  C2'        5.8330    6.3840   -4.1350 C.3     7  DG7         0.0865
    129  C1'        5.2220    4.9970   -4.3350 C.3     7  DG7         0.2094
    130  N9         5.3640    4.0220   -3.1960 N.ar    7  DG7        -0.2713
    131  C8         5.6010    2.6870   -3.4200 C.ar    7  DG7         0.1816
    132  N7         5.5890    1.9710   -2.3290 N.ar    7  DG7        -0.2173
    133  C5         5.3260    2.8830   -1.3240 C.ar    7  DG7         0.1748
    134  C6         5.1930    2.7000    0.0770 C.ar    7  DG7         0.3023
    135  O6         5.2870    1.6500    0.7250 O.2     7  DG7        -0.2633
    136  N1         4.9260    3.8970    0.7350 N.ar    7  DG7        -0.1709
    137  C2         4.8010    5.1200    0.1200 C.ar    7  DG7         0.2606
    138  N2         4.5400    6.1610    0.9220 N.pl3   7  DG7        -0.0859
    139  N3         4.9220    5.3050   -1.1790 N.ar    7  DG7        -0.1918
    140  C4         5.1830    4.1570   -1.8390 C.ar    7  DG7         0.1722
    141  P          9.1250    7.8660   -5.1010 P.3     8  DC8         0.2141
    142  OP1        9.7250    9.0120   -5.8110 O.2     8  DC8        -0.5172
    143  OP2        9.8680    6.5820   -4.9890 O.3     8  DC8        -0.4373
    144  O5'        8.7330    8.3730   -3.6490 O.3     8  DC8        -0.3114
    145  C5'        8.0610    9.6090   -3.4950 C.3     8  DC8         0.1811
    146  C4'        7.8860    9.9170   -2.0410 C.3     8  DC8         0.1746
    147  O4'        6.9690    8.9640   -1.4410 O.3     8  DC8        -0.3327
    148  C3'        9.1340    9.7330   -1.2130 C.3     8  DC8         0.1558
    149  O3'       10.0150   10.8190   -1.3290 O.3     8  DC8        -0.3138
    150  C2'        8.5520    9.6280    0.1820 C.3     8  DC8         0.0866
    151  C1'        7.3520    8.7270   -0.0910 C.3     8  DC8         0.2106
    152  N1         7.7300    7.3130    0.1150 N.ar    8  DC8        -0.2556
    153  C2         7.7480    6.8270    1.4270 C.ar    8  DC8         0.3531
    154  O2         7.4000    7.5840    2.3500 O.2     8  DC8        -0.2443
    155  N3         8.1440    5.5520    1.6530 N.ar    8  DC8        -0.1739
    156  C4         8.5100    4.7770    0.6310 C.ar    8  DC8         0.1759
    157  N4         8.8930    3.5260    0.9020 N.pl3   8  DC8        -0.1070
    158  C5         8.4990    5.2500   -0.7060 C.ar    8  DC8         0.0566
    159  C6         8.1070    6.5100   -0.9240 C.ar    8  DC8         0.0849
    160  P         11.5830   10.5370   -1.2060 P.3     9  DT9         0.2141
    161  OP1       12.5040   11.7020   -1.2290 O.3     9  DT9        -0.4373
    162  OP2       12.0830    9.2010   -1.6000 O.2     9  DT9        -0.5172
    163  O5'       10.9030   10.4210    0.2330 O.3     9  DT9        -0.3114
    164  C5'       10.7190   11.5660    1.0610 C.3     9  DT9         0.1811
    165  C4'       11.1810   11.2640    2.4700 C.3     9  DT9         0.1746
    166  O4'       10.2840   10.2970    3.0870 O.3     9  DT9        -0.3327
    167  C3'       12.5530   10.6080    2.5790 C.3     9  DT9         0.1558
    168  O3'       13.6160   11.5560    2.5350 O.3     9  DT9        -0.3138
    169  C2'       12.4580    9.9270    3.9340 C.3     9  DT9         0.0866
    170  C1'       11.0310    9.3940    3.8930 C.3     9  DT9         0.2106
    171  N1        10.9660    7.9930    3.2700 N.ar    9  DT9        -0.2559
    172  C2        11.0290    6.9160    4.1330 C.ar    9  DT9         0.3545
    173  O2        10.9780    7.0320    5.3450 O.2     9  DT9        -0.2443
    174  N3        11.1550    5.6900    3.5250 N.ar    9  DT9        -0.1533
    175  C4        11.2230    5.4400    2.1700 C.ar    9  DT9         0.2804
    176  O4        11.3360    4.2820    1.7740 O.2     9  DT9        -0.2654
    177  C5        11.1520    6.6090    1.3400 C.ar    9  DT9         0.0534
    178  C6        11.0290    7.8130    1.9050 C.ar    9  DT9         0.0824
    179  C7        11.2180    6.4410   -0.1490 C.3     9  DT9         0.0377
    180  P         14.8970   11.1860    1.9420 P.3    10  DT10        0.2141
    181  OP1       15.7800   12.3330    2.2500 O.3    10  DT10       -0.4373
    182  OP2       14.6380   10.8330    0.5290 O.2    10  DT10       -0.5172
    183  O5'       15.4500    9.8760    2.6810 O.3    10  DT10       -0.3114
    184  C5'       15.9700    9.9620    4.0050 C.3    10  DT10        0.1811
    185  C4'       16.5990    8.6510    4.4470 C.3    10  DT10        0.1746
    186  O4'       15.7000    7.5500    4.1560 O.3    10  DT10       -0.3327
    187  C3'       17.8850    8.2630    3.7340 C.3    10  DT10        0.1558
    188  O3'       19.0070    8.9370    4.2860 O.3    10  DT10       -0.3138
    189  C2'       17.9230    6.7670    4.0120 C.3    10  DT10        0.0866
    190  C1'       16.4520    6.4020    3.8110 C.3    10  DT10        0.2106
    191  N1        16.1660    5.9830    2.4160 N.ar   10  DT10       -0.2559
    192  C2        16.6860    4.7920    1.9450 C.ar   10  DT10        0.3545
    193  O2        17.3950    4.0650    2.6170 O.2    10  DT10       -0.2443
    194  N3        16.3450    4.4820    0.6510 N.ar   10  DT10       -0.1533
    195  C4        15.5540    5.2250   -0.2000 C.ar   10  DT10        0.2804
    196  O4        15.3370    4.8140   -1.3380 O.2    10  DT10       -0.2654
    197  C5        15.0530    6.4480    0.3620 C.ar   10  DT10        0.0534
    198  C6        15.3690    6.7740    1.6180 C.ar   10  DT10        0.0824
    199  C7        14.1830    7.3280   -0.4860 C.3    10  DT10        0.0377
    200  P         19.9080    9.3030    3.3990 P.3    11  DA11        0.2141
    201  OP1       20.7060   10.4620    3.8690 O.3    11  DA11       -0.4373
    202  OP2       19.1540    9.4110    2.1140 O.2    11  DA11       -0.5172
    203  O5'       20.8100    7.9830    3.2530 O.3    11  DA11       -0.3114
    204  C5'       21.0540    7.1010    4.3570 C.3    11  DA11        0.1811
    205  C4'       21.7420    5.8090    3.9110 C.3    11  DA11        0.1746
    206  O4'       20.8120    4.8810    3.2980 O.3    11  DA11       -0.3327
    207  C3'       22.8940    5.9180    2.9260 C.3    11  DA11        0.1558
    208  O3'       24.0990    6.2250    3.5990 O.3    11  DA11       -0.3138
    209  C2'       22.9520    4.5180    2.3380 C.3    11  DA11        0.0865
    210  C1'       21.4690    4.1650    2.2640 C.3    11  DA11        0.2094
    211  N9        20.7460    4.7210    1.0490 N.ar   11  DA11       -0.2714
    212  C8        20.1640    5.9530    0.8990 C.ar   11  DA11        0.1815
    213  N7        19.6300    6.1450   -0.2840 N.ar   11  DA11       -0.2193
    214  C5        19.8790    4.9590   -0.9570 C.ar   11  DA11        0.1518
    215  C6        19.5670    4.5260   -2.2580 C.ar   11  DA11        0.1919
    216  N6        18.9070    5.2720   -3.1470 N.pl3  11  DA11       -0.1054
    217  N1        19.9610    3.2850   -2.6160 N.ar   11  DA11       -0.2040
    218  C2        20.6210    2.5380   -1.7240 C.ar   11  DA11        0.2016
    219  N3        20.9720    2.8340   -0.4750 N.ar   11  DA11       -0.2048
    220  C4        20.5670    4.0730   -0.1500 C.ar   11  DA11        0.1691
    221  P         25.4780    6.5150    2.6140 P.3    12  DT12        0.2141
    222  OP1       26.5260    7.0440    3.5230 O.3    12  DT12       -0.4373
    223  OP2       25.1660    7.1980    1.3370 O.2    12  DT12       -0.5172
    224  O5'       25.8100    5.0040    2.2060 O.3    12  DT12       -0.3114
    225  C5'       26.7200    4.7840    1.1470 C.3    12  DT12        0.1811
    226  C4'       26.2750    3.7010    0.2000 C.3    12  DT12        0.1746
    227  O4'       24.8720    3.8360   -0.1510 O.3    12  DT12       -0.3327
    228  C3'       26.9560    3.7800   -1.1450 C.3    12  DT12        0.1558
    229  O3'       28.2960    3.3410   -1.0960 O.3    12  DT12       -0.3138
    230  C2'       26.0180    2.9880   -2.0420 C.3    12  DT12        0.0866
    231  C1'       24.6700    3.4630   -1.5030 C.3    12  DT12        0.2107
    232  N1        24.1490    4.6770   -2.2370 N.ar   12  DT12       -0.2549
    233  C2        23.4890    4.4680   -3.4330 C.ar   12  DT12        0.3684
    234  O2        23.4720    3.3920   -4.0040 O.2    12  DT12       -0.2430
    235  N3        22.8480    5.5710   -3.9430 N.ar   12  DT12       -0.0807
    236  C4        22.8000    6.8330   -3.3880 C.ar   12  DT12        0.2947
    237  O4        22.1820    7.7250   -3.9650 O.2    12  DT12       -0.2641
    238  C5        23.5100    6.9700   -2.1470 C.ar   12  DT12        0.0546
    239  C6        24.1420    5.9130   -1.6290 C.ar   12  DT12        0.0825
    240  C7        23.5180    8.3060   -1.4650 C.3    12  DT12        0.0377
    241  P         29.1920    4.2500   -1.6750 P.3    13  DT13        0.2141
    242  OP1       30.5820    3.9970   -1.2220 O.3    13  DT13       -0.4373
    243  OP2       28.6800    5.6440   -1.6820 O.2    13  DT13       -0.5172
    244  O5'       28.9070    3.5800   -3.1420 O.3    13  DT13       -0.3114
    245  C5'       29.6920    2.5500   -3.8120 C.3    13  DT13        0.1811
    246  C4'       28.8280    1.6000   -4.6520 C.3    13  DT13        0.1746
    247  O4'       27.4170    1.6840   -4.2410 O.3    13  DT13       -0.3327
    248  C3'       28.8060    1.8110   -6.1740 C.3    13  DT13        0.1558
    249  O3'       29.9040    1.1430   -6.9000 O.3    13  DT13       -0.3138
    250  C2'       27.3740    1.3410   -6.5610 C.3    13  DT13        0.0866
    251  C1'       26.5080    1.6580   -5.3460 C.3    13  DT13        0.2106
    252  N1        25.8260    2.8990   -5.4840 N.ar   13  DT13       -0.2559
    253  C2        24.5860    2.8870   -6.0940 C.ar   13  DT13        0.3544
    254  O2        24.1370    1.9110   -6.6690 O.2    13  DT13       -0.2443
    255  N3        23.8860    4.0660   -6.0080 N.ar   13  DT13       -0.1549
    256  C4        24.2920    5.2290   -5.3880 C.ar   13  DT13        0.2580
    257  O4        23.5500    6.2090   -5.3930 O.3    13  DT13       -0.3451
    258  C5        25.5910    5.1620   -4.7790 C.ar   13  DT13        0.0515
    259  C6        26.2930    4.0280   -4.8480 C.ar   13  DT13        0.0824
    260  C7        26.1230    6.3770   -4.0790 C.3    13  DT13        0.0376
    261  P         29.9960    1.3220   -8.1820 P.3    14  DC14        0.2141
    262  OP1       30.9870    0.2570   -8.4770 O.3    14  DC14       -0.4373
    263  OP2       30.3230    2.7410   -8.5120 O.2    14  DC14       -0.5172
    264  O5'       28.6460    0.9890   -8.9370 O.3    14  DC14       -0.3114
    265  C5'       28.0020   -0.2510   -8.7500 C.3    14  DC14        0.1811
    266  C4'       26.6750   -0.2370   -9.4580 C.3    14  DC14        0.1746
    267  O4'       25.7260    0.5550   -8.7000 O.3    14  DC14       -0.3327
    268  C3'       26.6630    0.3720  -10.8500 C.3    14  DC14        0.1558
    269  O3'       27.1330   -0.5350  -11.8500 O.3    14  DC14       -0.3138
    270  C2'       25.1990    0.7680  -11.0120 C.3    14  DC14        0.0866
    271  C1'       24.8190    1.1770   -9.5830 C.3    14  DC14        0.2106
    272  N1        24.8650    2.5880   -9.3760 N.ar   14  DC14       -0.2556
    273  C2        23.7500    3.3430   -9.7570 C.ar   14  DC14        0.3531
    274  O2        22.7040    2.7490  -10.0720 O.2    14  DC14       -0.2443
    275  N3        23.8430    4.6940   -9.7720 N.ar   14  DC14       -0.1739
    276  C4        24.9850    5.2880   -9.4260 C.ar   14  DC14        0.1759
    277  N4        25.0300    6.6220   -9.4560 N.pl3  14  DC14       -0.1070
    278  C5        26.1260    4.5410   -9.0370 C.ar   14  DC14        0.0566
    279  C6        26.0300    3.2070   -9.0240 C.ar   14  DC14        0.0849
    280  P         27.3570   -0.0070  -13.4080 P.3    15  DA15        0.2141
    281  OP1       27.7910   -0.6810  -14.6520 O.2    15  DA15       -0.5172
    282  OP2       28.0820    1.1790  -12.8960 O.3    15  DA15       -0.4373
    283  O5'       25.8470    0.5030  -13.5660 O.3    15  DA15       -0.3114
    284  C5'       24.8310   -0.3640  -14.0520 C.3    15  DA15        0.1811
    285  C4'       23.5440    0.3720  -14.3420 C.3    15  DA15        0.1744
    286  O4'       23.0740    1.0310  -13.1380 O.3    15  DA15       -0.3349
    287  C3'       23.6140    1.4920  -15.3750 C.3    15  DA15        0.1555
    288  O3'       23.5900    1.0320  -16.7200 O.3    15  DA15       -0.3139
    289  C2'       22.4050    2.3390  -15.0000 C.3    15  DA15        0.0835
    290  C1'       22.4220    2.2380  -13.4750 C.3    15  DA15        0.1974
    291  N9        23.1720    3.3620  -12.8520 N.pl3  15  DA15       -0.2458
    292  C8        24.4530    3.3870  -12.3650 C.2    15  DA15        0.1669
    293  N7        24.8260    4.5640  -11.9200 N.2    15  DA15       -0.2210
    294  C5        23.7160    5.3660  -12.1320 C.2    15  DA15        0.1837
    295  C6        23.4690    6.7260  -11.8750 C.2    15  DA15        0.3581
    296  N6        24.3640    7.5490  -11.3240 N.pl3  15  DA15        0.0804
    297  N1        22.2550    7.2160  -12.2070 N.pl3  15  DA15       -0.1157
    298  C2        21.3590    6.3900  -12.7580 C.2    15  DA15        0.2819
    299  N3        21.4730    5.0960  -13.0480 N.2    15  DA15       -0.2057
    300  C4        22.6900    4.6400  -12.7070 C.3    15  DA15        0.2328
    301  P         24.5420    1.6610  -17.9640 P.3    16  DA16        0.2141
    302  OP1       24.7300    0.7340  -19.1070 O.2    16  DA16       -0.5172
    303  OP2       25.7130    2.0080  -17.1190 O.3    16  DA16       -0.4373
    304  O5'       23.8010    3.0450  -18.4280 O.3    16  DA16       -0.3114
    305  C5'       23.0530    3.2800  -19.6570 C.3    16  DA16        0.1811
    306  C4'       21.8760    4.2440  -19.4590 C.3    16  DA16        0.1746
    307  O4'       21.5300    4.3520  -18.0330 O.3    16  DA16       -0.3327
    308  C3'       22.0540    5.6960  -19.9300 C.3    16  DA16        0.1558
    309  O3'       21.7450    5.9190  -21.3550 O.3    16  DA16       -0.3138
    310  C2'       21.1650    6.4890  -18.9280 C.3    16  DA16        0.0865
    311  C1'       21.2160    5.6890  -17.6300 C.3    16  DA16        0.2093
    312  N9        22.0470    6.1760  -16.6570 N.ar   16  DA16       -0.2736
    313  C8        23.3400    5.7750  -16.4470 C.ar   16  DA16        0.1812
    314  N7        23.9050    6.3370  -15.4040 N.ar   16  DA16       -0.2193
    315  C5        22.9160    7.1640  -14.8960 C.ar   16  DA16        0.1737
    316  C6        22.8850    8.0340  -13.7920 C.3    16  DA16        0.3627
    317  N6        23.9190    8.2190  -12.9680 N.3    16  DA16        0.0785
    318  N1        21.7420    8.7140  -13.5620 N.2    16  DA16       -0.1919
    319  C2        20.7060    8.5270  -14.3880 C.2    16  DA16        0.1873
    320  N3        20.6140    7.7380  -15.4560 N.pl3  16  DA16       -0.1732
    321  C4        21.7660    7.0770  -15.6580 C.ar   16  DA16        0.1585
    322  P         21.8140    7.2860  -21.9190 P.3    17  DT17        0.2141
    323  OP1       21.4280    7.3930  -23.3510 O.2    17  DT17       -0.5172
    324  OP2       23.2440    7.1420  -21.5500 O.3    17  DT17       -0.4373
    325  O5'       21.2250    8.5550  -21.1510 O.3    17  DT17       -0.3114
    326  C5'       19.8050    8.8230  -21.1450 C.3    17  DT17        0.1811
    327  C4'       19.5100   10.1140  -20.4150 C.3    17  DT17        0.1746
    328  O4'       19.6970    9.9410  -18.9910 O.3    17  DT17       -0.3327
    329  C3'       20.4250   11.2550  -20.7960 C.3    17  DT17        0.1558
    330  O3'       19.9740   11.9210  -21.9610 O.3    17  DT17       -0.3138
    331  C2'       20.4230   12.1390  -19.5560 C.3    17  DT17        0.0866
    332  C1'       20.2850   11.1040  -18.4390 C.3    17  DT17        0.2106
    333  N1        21.6060   10.7300  -17.8310 N.ar   17  DT17       -0.2559
    334  C2        22.0760   11.5660  -16.8360 C.ar   17  DT17        0.3545
    335  O2        21.4400   12.5120  -16.4080 O.2    17  DT17       -0.2443
    336  N3        23.3260   11.2540  -16.3580 N.ar   17  DT17       -0.1533
    337  C4        24.1350   10.2140  -16.7660 C.ar   17  DT17        0.2804
    338  O4        25.2350   10.0600  -16.2400 O.2    17  DT17       -0.2654
    339  C5        23.5770    9.3920  -17.8030 C.ar   17  DT17        0.0534
    340  C6        22.3640    9.6730  -18.2860 C.ar   17  DT17        0.0824
    341  C7        24.3810    8.2340  -18.3160 C.3    17  DT17        0.0377
    342  P         21.1110   12.5540  -23.0650 P.3    18  DT18        0.2141
    343  OP1       20.3740   12.9610  -24.2840 O.2    18  DT18       -0.5172
    344  OP2       22.0320   11.3990  -23.1060 O.3    18  DT18       -0.4373
    345  O5'       21.8880   13.8140  -22.4950 O.3    18  DT18       -0.3114
    346  C5'       21.1290   14.7170  -21.7380 C.3    18  DT18        0.1811
    347  C4'       22.0710   15.4970  -20.8760 C.3    18  DT18        0.1746
    348  O4'       22.4020   14.7380  -19.7030 O.3    18  DT18       -0.3327
    349  C3'       23.3970   15.6740  -21.5590 C.3    18  DT18        0.1558
    350  O3'       23.2940   16.6870  -22.5200 O.3    18  DT18       -0.3138
    351  C2'       24.2490   16.0600  -20.3620 C.3    18  DT18        0.0866
    352  C1'       23.6980   15.1250  -19.2840 C.3    18  DT18        0.2106
    353  N1        24.5420   13.9810  -19.0920 N.ar   18  DT18       -0.2559
    354  C2        25.7070   14.1000  -18.3570 C.ar   18  DT18        0.3545
    355  O2        26.0540   15.1400  -17.8270 O.2    18  DT18       -0.2443
    356  N3        26.4550   12.9510  -18.2650 N.ar   18  DT18       -0.1533
    357  C4        26.1630   11.7240  -18.8210 C.ar   18  DT18        0.2804
    358  O4        26.9340   10.7830  -18.6500 O.2    18  DT18       -0.2654
    359  C5        24.9380   11.6810  -19.5700 C.ar   18  DT18        0.0534
    360  C6        24.1910   12.7840  -19.6750 C.ar   18  DT18        0.0824
    361  C7        24.5320   10.3890  -20.2150 C.3    18  DT18        0.0377
    362  P         24.3360   16.6970  -23.5940 P.3    19  DA19        0.2141
    363  OP1       23.9290   17.6350  -24.6660 O.2    19  DA19       -0.5172
    364  OP2       24.6430   15.2830  -23.9120 O.3    19  DA19       -0.4373
    365  O5'       25.6610   17.2190  -22.8610 O.3    19  DA19       -0.3114
    366  C5'       25.7510   18.5130  -22.2800 C.3    19  DA19        0.1811
    367  C4'       27.0040   18.6540  -21.4500 C.3    19  DA19        0.1746
    368  O4'       27.0300   17.6010  -20.4560 O.3    19  DA19       -0.3327
    369  C3'       28.3310   18.5120  -22.1920 C.3    19  DA19        0.1558
    370  O3'       28.7740   19.7270  -22.7660 O.3    19  DA19       -0.3138
    371  C2'       29.2860   18.0160  -21.1180 C.3    19  DA19        0.0865
    372  C1'       28.3590   17.1880  -20.2250 C.3    19  DA19        0.2094
    373  N9        28.4420   15.6480  -20.3290 N.ar   19  DA19       -0.2714
    374  C8        27.6100   14.7560  -20.9530 C.ar   19  DA19        0.1815
    375  N7        27.9430   13.5010  -20.7670 N.ar   19  DA19       -0.2193
    376  C5        29.0730   13.5730  -19.9670 C.ar   19  DA19        0.1518
    377  C6        29.9070   12.5840  -19.4160 C.ar   19  DA19        0.1919
    378  N6        29.7200   11.2750  -19.5980 N.pl3  19  DA19       -0.1054
    379  N1        30.9510   12.9930  -18.6640 N.ar   19  DA19       -0.2040
    380  C2        31.1360   14.3050  -18.4820 C.ar   19  DA19        0.2016
    381  N3        30.4220   15.3280  -18.9460 N.ar   19  DA19       -0.2048
    382  C4        29.3930   14.8890  -19.6900 C.ar   19  DA19        0.1691
    383  P         29.2630   19.7320  -24.2390 P.3    20  DA20        0.2141
    384  OP1       29.7000   21.0410  -24.7720 O.3    20  DA20       -0.4373
    385  OP2       28.9130   18.6500  -25.1850 O.2    20  DA20       -0.5172
    386  O5'       30.3720   19.1640  -23.2330 O.3    20  DA20       -0.3114
    387  C5'       31.1570   20.0430  -22.4320 C.3    20  DA20        0.1811
    388  C4'       32.4480   19.3780  -21.9940 C.3    20  DA20        0.1746
    389  O4'       32.1500   18.3430  -21.0230 O.3    20  DA20       -0.3327
    390  C3'       33.2090   18.6510  -23.0940 C.3    20  DA20        0.1558
    391  O3'       34.0510   19.5310  -23.8220 O.3    20  DA20       -0.3138
    392  C2'       33.9900   17.6180  -22.2920 C.3    20  DA20        0.0865
    393  C1'       32.9210   17.1830  -21.2920 C.3    20  DA20        0.2094
    394  N9        32.1010   16.0900  -21.8060 N.ar   20  DA20       -0.2714
    395  C8        30.8760   16.1130  -22.4190 C.ar   20  DA20        0.1815
    396  N7        30.4280   14.9260  -22.7510 N.ar   20  DA20       -0.2193
    397  C5        31.4270   14.0640  -22.3270 C.ar   20  DA20        0.1518
    398  C6        31.5580   12.6650  -22.3870 C.ar   20  DA20        0.1919
    399  N6        30.6370   11.8590  -22.9200 N.pl3  20  DA20       -0.1054
    400  N1        32.6810   12.1190  -21.8740 N.ar   20  DA20       -0.2040
    401  C2        33.6030   12.9280  -21.3400 C.ar   20  DA20        0.2016
    402  N3        33.5920   14.2540  -21.2250 N.ar   20  DA20       -0.2048
    403  C4        32.4640   14.7660  -21.7450 C.ar   20  DA20        0.1691
    404  P         34.5630   19.1140  -25.4230 P.3    21  DT21        0.2141
    405  OP1       35.0820   20.2170  -26.2740 O.2    21  DT21       -0.5172
    406  OP2       33.1760   18.6150  -25.6290 O.3    21  DT21       -0.4373
    407  O5'       35.5520   17.8670  -25.5530 O.3    21  DT21       -0.3114
    408  C5'       36.9300   17.9720  -25.1500 C.3    21  DT21        0.1811
    409  C4'       37.4360   16.6450  -24.6270 C.3    21  DT21        0.1746
    410  O4'       36.4620   16.0970  -23.6980 O.3    21  DT21       -0.3327
    411  C3'       37.6370   15.5070  -25.6180 C.3    21  DT21        0.1558
    412  O3'       38.8750   15.6310  -26.3180 O.3    21  DT21       -0.3138
    413  C2'       37.6590   14.3010  -24.6860 C.3    21  DT21        0.0866
    414  C1'       36.5820   14.6850  -23.6720 C.3    21  DT21        0.2106
    415  N1        35.1850   14.1300  -23.9880 N.ar   21  DT21       -0.2559
    416  C2        34.9190   12.7930  -23.7630 C.ar   21  DT21        0.3545
    417  O2        35.7750   11.9920  -23.4300 O.2    21  DT21       -0.2443
    418  N3        33.6080   12.4230  -23.9430 N.ar   21  DT21       -0.1533
    419  C4        32.5600   13.2380  -24.3170 C.ar   21  DT21        0.2804
    420  O4        31.4350   12.7590  -24.4370 O.2    21  DT21       -0.2654
    421  C5        32.9160   14.6120  -24.5330 C.ar   21  DT21        0.0534
    422  C6        34.1840   14.9990  -24.3650 C.ar   21  DT21        0.0824
    423  C7        31.8450   15.5780  -24.9440 C.3    21  DT21        0.0377
    424  P         39.1170   14.7370  -27.5930 P.3    22  DC22        0.2141
    425  OP1       39.7600   15.1030  -28.8900 O.2    22  DC22       -0.5172
    426  OP2       37.6350   14.6040  -27.5110 O.3    22  DC22       -0.4373
    427  O5'       39.7350   13.3640  -27.0820 O.3    22  DC22       -0.3114
    428  C5'       39.4830   12.1880  -27.7950 C.3    22  DC22        0.1811
    429  C4'       38.7690   11.1800  -26.9370 C.3    22  DC22        0.1746
    430  O4'       37.7550   11.7540  -26.0710 O.3    22  DC22       -0.3327
    431  C3'       37.9620   10.2550  -27.8020 C.3    22  DC22        0.1558
    432  O3'       38.7790    9.3060  -28.3830 O.3    22  DC22       -0.3138
    433  C2'       36.9620    9.6460  -26.8480 C.3    22  DC22        0.0866
    434  C1'       36.6900   10.8180  -25.9080 C.3    22  DC22        0.2106
    435  N1        35.5240   11.3850  -26.3050 N.ar   22  DC22       -0.2556
    436  C2        34.3010   10.7100  -26.2180 C.ar   22  DC22        0.3531
    437  O2        34.2820    9.5660  -25.7330 O.2    22  DC22       -0.2443
    438  N3        33.1780   11.3220  -26.6650 N.ar   22  DC22       -0.1739
    439  C4        33.2460   12.5500  -27.1790 C.ar   22  DC22        0.1759
    440  N4        32.1130   13.1120  -27.6060 N.pl3  22  DC22       -0.1070
    441  C5        34.4750   13.2510  -27.2760 C.ar   22  DC22        0.0566
    442  C6        35.5820   12.6430  -26.8340 C.ar   22  DC22        0.0849
    443  P         38.2150    8.5700  -29.6540 P.3    23  DG23        0.2141
    444  OP1       39.2240    7.4810  -29.7100 O.3    23  DG23       -0.4373
    445  OP2       37.6640    9.1280  -30.9190 O.2    23  DG23       -0.5172
    446  O5'       36.9900    8.0600  -28.7770 O.3    23  DG23       -0.3114
    447  C5'       37.2050    7.4200  -27.5240 C.3    23  DG23        0.1811
    448  C4'       35.9400    6.7410  -27.0800 C.3    23  DG23        0.1746
    449  O4'       34.9660    7.7330  -26.6470 O.3    23  DG23       -0.3327
    450  C3'       35.2330    6.0090  -28.2010 C.3    23  DG23        0.1558
    451  O3'       35.8160    4.7410  -28.4570 O.3    23  DG23       -0.3138
    452  C2'       33.8080    5.9430  -27.6750 C.3    23  DG23        0.0865
    453  C1'       33.6640    7.3390  -27.0630 C.3    23  DG23        0.2094
    454  N9        33.1730    8.3530  -27.9760 N.ar   23  DG23       -0.2713
    455  C8        33.8600    9.2220  -28.7890 C.ar   23  DG23        0.1816
    456  N7        33.0920    9.8560  -29.6320 N.ar   23  DG23       -0.2173
    457  C5        31.8210    9.3830  -29.3610 C.ar   23  DG23        0.1748
    458  C6        30.5720    9.7010  -29.9530 C.ar   23  DG23        0.3023
    459  O6        30.3400   10.4970  -30.8710 O.2    23  DG23       -0.2633
    460  N1        29.5260    8.9860  -29.3770 N.ar   23  DG23       -0.1709
    461  C2        29.6660    8.0780  -28.3550 C.ar   23  DG23        0.2606
    462  N2        28.5400    7.4890  -27.9290 N.pl3  23  DG23       -0.0859
    463  N3        30.8200    7.7720  -27.7950 N.ar   23  DG23       -0.1918
    464  C4        31.8500    8.4530  -28.3400 C.ar   23  DG23        0.1722
    465  P         35.7830    4.1920  -29.9250 P.3    24  DC24        0.2141
    466  OP1       36.9790    3.7240  -30.6940 O.2    24  DC24       -0.5172
    467  OP2       34.9160    5.2750  -30.4860 O.3    24  DC24       -0.4373
    468  O5'       34.8030    2.9890  -29.5570 O.3    24  DC24       -0.3114
    469  C5'       33.4750    3.2330  -29.0970 C.3    24  DC24        0.1812
    470  C4'       32.8260    1.9680  -28.5930 C.3    24  DC24        0.1775
    471  O4'       33.0040    0.9080  -29.5880 O.3    24  DC24       -0.3326
    472  C3'       33.3160    1.3920  -27.2500 C.3    24  DC24        0.1859
    473  O3'       32.1540    0.8580  -26.5680 O.3    24  DC24       -0.2203
    474  C2'       34.1540    0.1840  -27.7050 C.3    24  DC24        0.0895
    475  C1'       33.3090   -0.2660  -28.8960 C.3    24  DC24        0.2107
    476  N1        33.7490   -1.3090  -29.4880 N.ar   24  DC24       -0.2556
    477  C2        34.4600   -0.8150  -30.5880 C.ar   24  DC24        0.3531
    478  O2        34.5140    0.4140  -30.7620 O.2    24  DC24       -0.2443
    479  N3        35.0660   -1.6880  -31.4270 N.ar   24  DC24       -0.1739
    480  C4        34.9810   -3.0000  -31.2020 C.ar   24  DC24        0.1759
    481  N4        35.5950   -3.8220  -32.0560 N.pl3  24  DC24       -0.1070
    482  C5        34.2650   -3.5200  -30.0930 C.ar   24  DC24        0.0566
    483  C6        33.6680   -2.6550  -29.2670 C.ar   24  DC24        0.0849
    484  P         31.6060    1.4190  -24.4910 P.3    25  DA25        0.5411
    485  OP1       30.6670    0.3730  -24.0230 O.2    25  DA25       -0.2272
    486  OP2       31.4460    2.8280  -24.0620 O.2    25  DA25       -0.2272
    487  O5'       33.1040    1.0410  -24.0790 O.3    25  DA25       -0.2722
    488  C5'       33.5510    1.3350  -22.7680 C.3    25  DA25        0.1850
    489  C4'       34.8040    2.1720  -22.7840 C.3    25  DA25        0.1748
    490  O4'       34.8110    3.0650  -23.9290 O.3    25  DA25       -0.3327
    491  C3'       34.9590    3.1120  -21.6050 C.3    25  DA25        0.1558
    492  O3'       35.3820    2.4550  -20.4280 O.3    25  DA25       -0.3138
    493  C2'       35.9380    4.1410  -22.1470 C.3    25  DA25        0.0865
    494  C1'       35.4070    4.2930  -23.5700 C.3    25  DA25        0.2094
    495  N9        34.3830    5.3470  -23.6150 N.ar   25  DA25       -0.2714
    496  C8        33.1410    5.0990  -24.1380 C.ar   25  DA25        0.1815
    497  N7        32.4510    6.1830  -24.4010 N.ar   25  DA25       -0.2193
    498  C5        33.2970    7.2140  -24.0230 C.ar   25  DA25        0.1518
    499  C6        33.1540    8.6130  -24.0500 C.ar   25  DA25        0.1919
    500  N6        32.0600    9.2360  -24.4940 N.pl3  25  DA25       -0.1054
    501  N1        34.1870    9.3560  -23.6000 N.ar   25  DA25       -0.2040
    502  C2        35.2830    8.7310  -23.1560 C.ar   25  DA25        0.2016
    503  N3        35.5350    7.4260  -23.0830 N.ar   25  DA25       -0.2048
    504  C4        34.4900    6.7150  -23.5360 C.ar   25  DA25        0.1691
    505  P         34.5060    2.6040  -19.1060 P.3    26  DT26        0.2141
    506  OP1       34.8830    1.5480  -18.1440 O.3    26  DT26       -0.4373
    507  OP2       33.0590    2.8020  -19.3680 O.2    26  DT26       -0.5172
    508  O5'       35.1220    4.0210  -18.6470 O.3    26  DT26       -0.3114
    509  C5'       36.5040    4.2200  -18.3130 C.3    26  DT26        0.1811
    510  C4'       36.9100    5.6910  -18.3600 C.3    26  DT26        0.1746
    511  O4'       36.6500    6.2970  -19.6610 O.3    26  DT26       -0.3327
    512  C3'       36.1840    6.6260  -17.4080 C.3    26  DT26        0.1558
    513  O3'       36.7160    6.5800  -16.0780 O.3    26  DT26       -0.3138
    514  C2'       36.4680    7.9810  -18.0640 C.3    26  DT26        0.0866
    515  C1'       36.3380    7.6670  -19.5560 C.3    26  DT26        0.2106
    516  N1        34.9460    7.8730  -19.9760 N.ar   26  DT26       -0.2559
    517  C2        34.5480    9.1720  -20.2280 C.ar   26  DT26        0.3545
    518  O2        35.2800   10.1330  -20.0720 O.2    26  DT26       -0.2443
    519  N3        33.2540    9.3080  -20.6710 N.ar   26  DT26       -0.1533
    520  C4        32.3390    8.2970  -20.8820 C.ar   26  DT26        0.2804
    521  O4        31.2120    8.5760  -21.2840 O.2    26  DT26       -0.2654
    522  C5        32.8270    6.9780  -20.5970 C.ar   26  DT26        0.0534
    523  C6        34.0810    6.8170  -20.1650 C.ar   26  DT26        0.0824
    524  C7        31.9060    5.8110  -20.7950 C.3    26  DT26        0.0377
    525  P         35.7870    6.9050  -14.7780 P.3    27  DT27        0.2141
    526  OP1       36.4090    6.2400  -13.6080 O.3    27  DT27       -0.4373
    527  OP2       34.3630    6.6210  -15.0770 O.2    27  DT27       -0.5172
    528  O5'       35.9370    8.4790  -14.5710 O.3    27  DT27       -0.3114
    529  C5'       37.1730    9.1120  -14.3390 C.3    27  DT27        0.1811
    530  C4'       36.9360   10.6040  -14.3840 C.3    27  DT27        0.1746
    531  O4'       36.5880   10.9700  -15.7450 O.3    27  DT27       -0.3327
    532  C3'       35.7180   11.0640  -13.6010 C.3    27  DT27        0.1558
    533  O3'       35.9620   11.2110  -12.2130 O.3    27  DT27       -0.3138
    534  C2'       35.3330   12.3690  -14.3000 C.3    27  DT27        0.0866
    535  C1'       35.5550   11.9440  -15.7480 C.3    27  DT27        0.2106
    536  N1        34.3660   11.2540  -16.4190 N.ar   27  DT27       -0.2559
    537  C2        33.4000   12.0180  -17.0450 C.ar   27  DT27        0.3545
    538  O2        33.4400   13.2350  -17.0900 O.2    27  DT27       -0.2443
    539  N3        32.3770   11.3030  -17.6210 N.ar   27  DT27       -0.1533
    540  C4        32.2280    9.9320  -17.6320 C.ar   27  DT27        0.2804
    541  O4        31.2540    9.4340  -18.1920 O.2    27  DT27       -0.2654
    542  C5        33.2710    9.2090  -16.9600 C.ar   27  DT27        0.0534
    543  C6        34.2770    9.8800  -16.3920 C.ar   27  DT27        0.0824
    544  C7        33.1980    7.7110  -16.9170 C.3    27  DT27        0.0377
    545  P         34.8500   10.5740  -11.2340 P.3    28  DA28        0.2141
    546  OP1       35.1150   10.7720   -9.7960 O.3    28  DA28       -0.4373
    547  OP2       33.8680    9.5480  -11.6730 O.2    28  DA28       -0.5172
    548  O5'       34.4200   11.9690  -11.8560 O.3    28  DA28       -0.3114
    549  C5'       35.1250   13.1570  -11.5410 C.3    28  DA28        0.1811
    550  C4'       34.2480   14.3450  -11.8160 C.3    28  DA28        0.1746
    551  O4'       34.0050   14.4260  -13.2460 O.3    28  DA28       -0.3327
    552  C3'       32.8540   14.1960  -11.2430 C.3    28  DA28        0.1558
    553  O3'       32.7650   14.5400   -9.8780 O.3    28  DA28       -0.3138
    554  C2'       32.0420   15.1250  -12.1260 C.3    28  DA28        0.0865
    555  C1'       32.6630   14.8310  -13.4870 C.3    28  DA28        0.2094
    556  N9        32.0040   13.6900  -14.1750 N.ar   28  DA28       -0.2714
    557  C8        32.1490   12.3430  -13.9690 C.ar   28  DA28        0.1815
    558  N7        31.2500   11.6140  -14.5860 N.ar   28  DA28       -0.2193
    559  C5        30.4600   12.5460  -15.2410 C.ar   28  DA28        0.1518
    560  C6        29.3330   12.4140  -16.0710 C.ar   28  DA28        0.1919
    561  N6        28.7870   11.2400  -16.3950 N.pl3  28  DA28       -0.1054
    562  N1        28.7810   13.5440  -16.5620 N.ar   28  DA28       -0.2040
    563  C2        29.3290   14.7200  -16.2370 C.ar   28  DA28        0.2016
    564  N3        30.3870   14.9710  -15.4690 N.ar   28  DA28       -0.2048
    565  C4        30.9120   13.8280  -14.9960 C.ar   28  DA28        0.1691
    566  P         31.5500   13.7970   -8.9270 P.3    29  DC29        0.2141
    567  OP1       32.3290   14.0830   -7.7030 O.3    29  DC29       -0.4373
    568  OP2       31.1760   12.4090   -9.2870 O.2    29  DC29       -0.5172
    569  O5'       30.2250   14.6800   -8.8340 O.3    29  DC29       -0.3114
    570  C5'       30.3840   16.1000   -8.6800 C.3    29  DC29        0.1811
    571  C4'       29.3350   16.8820   -9.4420 C.3    29  DC29        0.1746
    572  O4'       29.4790   16.6030  -10.8450 O.3    29  DC29       -0.3327
    573  C3'       27.9020   16.4730   -9.1740 C.3    29  DC29        0.1558
    574  O3'       27.4660   17.0090   -7.9470 O.3    29  DC29       -0.3138
    575  C2'       27.2750   17.1610  -10.3680 C.3    29  DC29        0.0866
    576  C1'       28.2260   16.7330  -11.4870 C.3    29  DC29        0.2106
    577  N1        27.7550   15.4130  -12.0360 N.ar   29  DC29       -0.2556
    578  C2        26.7370   15.3210  -12.9920 C.ar   29  DC29        0.3531
    579  O2        26.0330   16.3210  -13.2130 O.2    29  DC29       -0.2443
    580  N3        26.5490   14.1490  -13.6440 N.ar   29  DC29       -0.1739
    581  C4        27.3280   13.1010  -13.3720 C.ar   29  DC29        0.1759
    582  N4        27.1050   11.9670  -14.0400 N.pl3  29  DC29       -0.1070
    583  C5        28.3650   13.1740  -12.4070 C.ar   29  DC29        0.0566
    584  C6        28.5480   14.3330  -11.7650 C.ar   29  DC29        0.0849
    585  P         26.1350   16.3800   -7.0540 P.3    30  DC30        0.2141
    586  OP1       26.0490   17.2360   -5.8400 O.3    30  DC30       -0.4373
    587  OP2       26.7400   15.0300   -6.9540 O.2    30  DC30       -0.5172
    588  O5'       24.6920   16.2090   -7.7210 O.3    30  DC30       -0.3114
    589  C5'       23.7810   17.3330   -7.8570 C.3    30  DC30        0.1811
    590  C4'       22.6850   17.0140   -8.8590 C.3    30  DC30        0.1746
    591  O4'       23.3040   16.6540  -10.1210 O.3    30  DC30       -0.3327
    592  C3'       21.7560   15.8470   -8.5340 C.3    30  DC30        0.1558
    593  O3'       20.6500   16.2620   -7.7210 O.3    30  DC30       -0.3138
    594  C2'       21.2920   15.3860   -9.9140 C.3    30  DC30        0.0866
    595  C1'       22.5220   15.6720  -10.7770 C.3    30  DC30        0.2106
    596  N1        23.2890   14.5060  -11.0330 N.ar   30  DC30       -0.2556
    597  C2        22.7920   13.5760  -11.9530 C.ar   30  DC30        0.3531
    598  O2        21.7790   13.8680  -12.6100 O.2    30  DC30       -0.2443
    599  N3        23.4270   12.3880  -12.0980 N.ar   30  DC30       -0.1739
    600  C4        24.5110   12.1170  -11.3700 C.ar   30  DC30        0.1759
    601  N4        25.1030   10.9340  -11.5480 N.pl3  30  DC30       -0.1070
    602  C5        25.0300   13.0460  -10.4330 C.ar   30  DC30        0.0566
    603  C6        24.4000   14.2180  -10.2920 C.ar   30  DC30        0.0849
    604  P         19.4440   15.0460   -7.0050 P.3    31  DT31        0.2141
    605  OP1       18.4010   15.6030   -6.1070 O.3    31  DT31       -0.4373
    606  OP2       20.5030   14.1680   -6.4440 O.2    31  DT31       -0.5172
    607  O5'       18.7270   14.2630   -8.1960 O.3    31  DT31       -0.3114
    608  C5'       17.6440   14.8600   -8.9310 C.3    31  DT31        0.1811
    609  C4'       17.3260   14.0360  -10.1590 C.3    31  DT31        0.1746
    610  O4'       18.5150   13.9440  -10.9870 O.3    31  DT31       -0.3327
    611  C3'       16.9080   12.5870   -9.9310 C.3    31  DT31        0.1558
    612  O3'       15.5060   12.4950   -9.6600 O.3    31  DT31       -0.3138
    613  C2'       17.2530   11.9480  -11.2700 C.3    31  DT31        0.0866
    614  C1'       18.5470   12.6790  -11.6330 C.3    31  DT31        0.2106
    615  N1        19.7690   12.0050  -11.2300 N.ar   31  DT31       -0.2559
    616  C2        20.2400   10.9760  -12.0220 C.ar   31  DT31        0.3545
    617  O2        19.6650   10.5940  -13.0260 O.2    31  DT31       -0.2443
    618  N3        21.4140   10.4040  -11.5950 N.ar   31  DT31       -0.1533
    619  C4        22.1470   10.7510  -10.4790 C.ar   31  DT31        0.2804
    620  O4        23.1850   10.1440  -10.2250 O.2    31  DT31       -0.2654
    621  C5        21.5930   11.8270   -9.7080 C.ar   31  DT31        0.0534
    622  C6        20.4520   12.4010  -10.1010 C.ar   31  DT31        0.0824
    623  C7        22.3180   12.2780   -8.4740 C.3    31  DT31        0.0377
    624  P         14.8660   11.1850   -9.0010 P.3    32  DT32        0.2141
    625  OP1       13.9900   11.4490   -7.8170 O.3    32  DT32       -0.4373
    626  OP2       16.1620   10.4910   -8.7990 O.2    32  DT32       -0.5172
    627  O5'       14.0490   10.3270  -10.0590 O.3    32  DT32       -0.3114
    628  C5'       14.1300    8.9100  -10.0380 C.3    32  DT32        0.1811
    629  C4'       14.7160    8.4050  -11.3210 C.3    32  DT32        0.1746
    630  O4'       15.9100    9.1510  -11.6640 O.3    32  DT32       -0.3327
    631  C3'       15.1920    6.9800  -11.2220 C.3    32  DT32        0.1558
    632  O3'       14.1140    6.0790  -11.2730 O.3    32  DT32       -0.3138
    633  C2'       16.2300    6.8990  -12.3240 C.3    32  DT32        0.0866
    634  C1'       16.8760    8.2730  -12.2120 C.3    32  DT32        0.2106
    635  N1        18.0510    7.9380  -11.1010 N.ar   32  DT32       -0.2559
    636  C2        19.2020    7.2480  -11.4320 C.ar   32  DT32        0.3545
    637  O2        19.2720    6.4880  -12.3820 O.2    32  DT32       -0.2443
    638  N3        20.2760    7.4810  -10.6070 N.ar   32  DT32       -0.1533
    639  C4        20.3140    8.3140   -9.5090 C.ar   32  DT32        0.2804
    640  O4        21.3550    8.4200   -8.8650 O.2    32  DT32       -0.2654
    641  C5        19.0800    8.9930   -9.2300 C.ar   32  DT32        0.0534
    642  C6        18.0200    8.7860  -10.0160 C.ar   32  DT32        0.0824
    643  C7        19.0200    9.9220   -8.0540 C.3    32  DT32        0.0377
    644  P         13.8930    5.3460  -10.0140 P.3    33  DA33        0.2141
    645  OP1       12.6050    4.6370  -10.1870 O.2    33  DA33       -0.5172
    646  OP2       14.2760    5.8940   -8.6940 O.3    33  DA33       -0.4373
    647  O5'       15.0940    4.3610  -10.3980 O.3    33  DA33       -0.3114
    648  C5'       15.1670    3.7240  -11.6680 C.3    33  DA33        0.1811
    649  C4'       16.4630    2.9640  -11.7890 C.3    33  DA33        0.1746
    650  O4'       17.5600    3.8980  -11.6530 O.3    33  DA33       -0.3327
    651  C3'       16.6860    1.8990  -10.7240 C.3    33  DA33        0.1558
    652  O3'       16.2060    0.6340  -11.1550 O.3    33  DA33       -0.3138
    653  C2'       18.1910    1.9210  -10.4770 C.3    33  DA33        0.0865
    654  C1'       18.5920    3.3470  -10.8690 C.3    33  DA33        0.2094
    655  N9        18.8420    4.3470   -9.8420 N.ar   33  DA33       -0.2714
    656  C8        18.0350    5.3480   -9.3690 C.ar   33  DA33        0.1815
    657  N7        18.4540    5.8780   -8.2440 N.ar   33  DA33       -0.2193
    658  C5        19.6150    5.1770   -7.9590 C.ar   33  DA33        0.1518
    659  C6        20.5350    5.2610   -6.9000 C.ar   33  DA33        0.1919
    660  N6        20.4220    6.1270   -5.8890 N.pl3  33  DA33       -0.1054
    661  N1        21.5870    4.4150   -6.9150 N.ar   33  DA33       -0.2040
    662  C2        21.7000    3.5480   -7.9280 C.ar   33  DA33        0.2016
    663  N3        20.9020    3.3750   -8.9790 N.ar   33  DA33       -0.2048
    664  C4        19.8660    4.2300   -8.9340 C.ar   33  DA33        0.1691
    665  P         15.5580   -0.5200  -10.0990 P.3    34  DT34        0.2141
    666  OP1       14.9220   -1.6260  -10.8490 O.2    34  DT34       -0.5172
    667  OP2       14.7480    0.4230   -9.2950 O.3    34  DT34       -0.4373
    668  O5'       16.5700   -1.1620   -9.0430 O.3    34  DT34       -0.3114
    669  C5'       17.6370   -1.9730   -9.4950 C.3    34  DT34        0.1811
    670  C4'       18.7200   -2.0340   -8.4530 C.3    34  DT34        0.1746
    671  O4'       19.3220   -0.7260   -8.2690 O.3    34  DT34       -0.3327
    672  C3'       18.2530   -2.3910   -7.0570 C.3    34  DT34        0.1558
    673  O3'       17.9630   -3.7660   -6.9020 O.3    34  DT34       -0.3138
    674  C2'       19.4100   -1.8930   -6.2010 C.3    34  DT34        0.0866
    675  C1'       19.7550   -0.5950   -6.9290 C.3    34  DT34        0.2106
    676  N1        19.0930    0.5500   -6.3460 N.ar   34  DT34       -0.2559
    677  C2        19.5520    1.1060   -5.1670 C.ar   34  DT34        0.3545
    678  O2        20.4570    0.6210   -4.5120 O.2    34  DT34       -0.2443
    679  N3        18.9090    2.2570   -4.7780 N.ar   34  DT34       -0.1533
    680  C4        17.8760    2.8930   -5.4350 C.ar   34  DT34        0.2804
    681  O4        17.4000    3.9220   -4.9620 O.2    34  DT34       -0.2654
    682  C5        17.4560    2.2540   -6.6510 C.ar   34  DT34        0.0534
    683  C6        18.0640    1.1340   -7.0520 C.ar   34  DT34        0.0824
    684  C7        16.3380    2.8690   -7.4390 C.3    34  DT34        0.0377
    685  P         16.4500   -3.9570   -6.6900 P.3    35  DA35        0.2141
    686  OP1       16.3010   -5.4300   -6.8480 O.3    35  DA35       -0.4373
    687  OP2       15.2440   -3.1120   -6.8790 O.2    35  DA35       -0.5172
    688  O5'       17.1500   -3.6950   -5.2730 O.3    35  DA35       -0.3114
    689  C5'       18.3210   -4.4530   -4.9890 C.3    35  DA35        0.1811
    690  C4'       19.0340   -4.0690   -3.7030 C.3    35  DA35        0.1746
    691  O4'       19.5820   -2.7260   -3.7850 O.3    35  DA35       -0.3327
    692  C3'       18.1870   -4.0510   -2.4550 C.3    35  DA35        0.1558
    693  O3'       17.9220   -5.3680   -1.9850 O.3    35  DA35       -0.3138
    694  C2'       19.0840   -3.2050   -1.5520 C.3    35  DA35        0.0865
    695  C1'       19.4620   -2.0900   -2.5270 C.3    35  DA35        0.2094
    696  N9        18.3980   -1.0030   -2.5350 N.ar   35  DA35       -0.2714
    697  C8        17.4840   -0.8330   -3.5420 C.ar   35  DA35        0.1815
    698  N7        16.8090    0.2890   -3.4600 N.ar   35  DA35       -0.2193
    699  C5        17.3120    0.8960   -2.3210 C.ar   35  DA35        0.1518
    700  C6        17.0110    2.1150   -1.6870 C.ar   35  DA35        0.1919
    701  N6        16.0920    2.9730   -2.1350 N.pl3  35  DA35       -0.1054
    702  N1        17.6960    2.4240   -0.5660 N.ar   35  DA35       -0.2040
    703  C2        18.6180    1.5630   -0.1190 C.ar   35  DA35        0.2016
    704  N3        18.9900    0.3910   -0.6270 N.ar   35  DA35       -0.2048
    705  C4        18.2900    0.1120   -1.7400 C.ar   35  DA35        0.1691
    706  P         16.5110   -5.7150   -1.3980 P.3    36  DC36        0.2141
    707  OP1       16.3260   -7.0490   -0.7550 O.3    36  DC36       -0.4373
    708  OP2       15.4140   -5.1150   -2.1910 O.2    36  DC36       -0.5172
    709  O5'       16.9880   -4.7220   -0.2510 O.3    36  DC36       -0.3114
    710  C5'       18.0130   -5.1210    0.6520 C.3    36  DC36        0.1811
    711  C4'       17.9360   -4.3280    1.9300 C.3    36  DC36        0.1746
    712  O4'       18.1280   -2.9210    1.6280 O.3    36  DC36       -0.3327
    713  C3'       16.6000   -4.3650    2.6560 C.3    36  DC36        0.1558
    714  O3'       16.4840   -5.5160    3.4800 O.3    36  DC36       -0.3138
    715  C2'       16.6540   -3.0860    3.4800 C.3    36  DC36        0.0866
    716  C1'       17.3460   -2.1360    2.5090 C.3    36  DC36        0.2106
    717  N1        16.2570   -1.4470    1.6120 N.ar   36  DC36       -0.2556
    718  C2        15.8640   -0.1540    1.9790 C.ar   36  DC36        0.3531
    719  O2        16.4570    0.4070    2.9160 O.2    36  DC36       -0.2443
    720  N3        14.8530    0.4440    1.3060 N.ar   36  DC36       -0.1739
    721  C4        14.2450   -0.1970    0.3070 C.ar   36  DC36        0.1759
    722  N4        13.2530    0.4320   -0.3270 N.pl3  36  DC36       -0.1070
    723  C5        14.6280   -1.5070   -0.0810 C.ar   36  DC36        0.0566
    724  C6        15.6270   -2.0940    0.5870 C.ar   36  DC36        0.0849
    725  P         14.9620   -5.9680    4.0690 P.3    37  DC37        0.2141
    726  OP1       14.8070   -7.2730    4.7500 O.3    37  DC37       -0.4373
    727  OP2       14.2100   -5.6750    2.8280 O.2    37  DC37       -0.5172
    728  O5'       14.5020   -4.8070    5.0710 O.3    37  DC37       -0.3114
    729  C5'       14.6800   -5.0410    6.4590 C.3    37  DC37        0.1811
    730  C4'       14.6620   -3.7800    7.2850 C.3    37  DC37        0.1746
    731  O4'       15.1690   -2.6720    6.4860 O.3    37  DC37       -0.3327
    732  C3'       13.2760   -3.3640    7.7620 C.3    37  DC37        0.1558
    733  O3'       13.0640   -3.5420    9.1570 O.3    37  DC37       -0.3138
    734  C2'       13.1520   -1.8780    7.4500 C.3    37  DC37        0.0866
    735  C1'       14.4290   -1.4900    6.7230 C.3    37  DC37        0.2106
    736  N1        13.9900   -0.8790    5.5210 N.ar   37  DC37       -0.2556
    737  C2        13.7570    0.5010    5.5210 C.ar   37  DC37        0.3531
    738  O2        14.0120    1.1500    6.5490 O.2    37  DC37       -0.2443
    739  N3        13.2600    1.0860    4.4050 N.ar   37  DC37       -0.1739
    740  C4        13.0000    0.3480    3.3240 C.ar   37  DC37        0.1759
    741  N4        12.5110    0.9680    2.2480 N.pl3  37  DC37       -0.1070
    742  C5        13.2290   -1.0510    3.3040 C.ar   37  DC37        0.0566
    743  C6        13.7200   -1.6250    4.4080 C.ar   37  DC37        0.0849
    744  P         11.6070   -3.6380    9.4220 P.3    38  DA38        0.2141
    745  OP1       11.3710   -4.3820   10.6700 O.3    38  DA38       -0.4373
    746  OP2       10.6360   -3.8020    8.3090 O.2    38  DA38       -0.5172
    747  O5'       11.7070   -2.0810    9.8230 O.3    38  DA38       -0.3114
    748  C5'       12.2190   -1.6340   11.0780 C.3    38  DA38        0.1811
    749  C4'       12.1850   -0.1170   11.1860 C.3    38  DA38        0.1746
    750  O4'       13.0370    0.4860   10.1730 O.3    38  DA38       -0.3327
    751  C3'       10.8210    0.5430   10.9820 C.3    38  DA38        0.1558
    752  O3'       10.0510    0.5280   12.1780 O.3    38  DA38       -0.3138
    753  C2'       11.2440    1.9490   10.5560 C.3    38  DA38        0.0865
    754  C1'       12.4090    1.6350    9.6280 C.3    38  DA38        0.2094
    755  N9        11.9290    1.3450    8.1760 N.ar   38  DA38       -0.2714
    756  C8        11.7650    0.1320    7.5600 C.ar   38  DA38        0.1815
    757  N7        11.5020    0.2200    6.2780 N.ar   38  DA38       -0.2193
    758  C5        11.4900    1.5850    6.0350 C.ar   38  DA38        0.1518
    759  C6        11.2690    2.3360    4.8670 C.ar   38  DA38        0.1919
    760  N6        11.0080    1.7910    3.6770 N.pl3  38  DA38       -0.1054
    761  N1        11.3270    3.6810    4.9670 N.ar   38  DA38       -0.2040
    762  C2        11.5900    4.2250    6.1610 C.ar   38  DA38        0.2016
    763  N3        11.8160    3.6260    7.3270 N.ar   38  DA38       -0.2048
    764  C4        11.7500    2.2900    7.1950 C.ar   38  DA38        0.1691
    765  P          8.4870    0.1460   12.1890 P.3    39  DG39        0.2141
    766  OP1        7.8230   -0.9180   12.9870 O.3    39  DG39       -0.4373
    767  OP2        8.5620    0.0120   10.7180 O.2    39  DG39       -0.5172
    768  O5'        7.8160    1.5490   12.5180 O.3    39  DG39       -0.3114
    769  C5'        6.7550    2.0520   11.7220 C.3    39  DG39        0.1811
    770  C4'        7.0870    3.4400   11.2380 C.3    39  DG39        0.1746
    771  O4'        8.3280    3.4010   10.4870 O.3    39  DG39       -0.3327
    772  C3'        6.0800    4.0210   10.2660 C.3    39  DG39        0.1558
    773  O3'        5.0120    4.6400   10.9610 O.3    39  DG39       -0.3138
    774  C2'        6.9230    5.0320    9.5110 C.3    39  DG39        0.0865
    775  C1'        8.2370    4.2650    9.3670 C.3    39  DG39        0.2094
    776  N9         8.2900    3.4980    8.1580 N.ar   39  DG39       -0.2713
    777  C8         8.5560    2.1500    8.1370 C.ar   39  DG39        0.1816
    778  N7         8.6410    1.6610    6.9300 N.ar   39  DG39       -0.2173
    779  C5         8.4220    2.7470    6.1030 C.ar   39  DG39        0.1748
    780  C6         8.3900    2.8380    4.6880 C.ar   39  DG39        0.3023
    781  O6         8.5580    1.9350    3.8580 O.2    39  DG39       -0.2633
    782  N1         8.1310    4.1350    4.2550 N.ar   39  DG39       -0.1709
    783  C2         7.9290    5.2130    5.0840 C.ar   39  DG39        0.2606
    784  N2         7.6940    6.3860    4.4810 N.pl3  39  DG39       -0.0859
    785  N3         7.9540    5.1440    6.4000 N.ar   39  DG39       -0.1918
    786  C4         8.2030    3.8930    6.8430 C.ar   39  DG39        0.1722
    787  P          3.6270    4.2150   10.6290 P.3    40  DC40        0.2141
    788  OP1        2.7630    4.9080   11.6090 O.3    40  DC40       -0.4373
    789  OP2        3.2840    2.8600   10.1420 O.2    40  DC40       -0.5172
    790  O5'        3.7840    5.2070    9.3890 O.3    40  DC40       -0.3114
    791  C5'        4.1350    6.5620    9.6330 C.3    40  DC40        0.1811
    792  C4'        4.1860    7.3190    8.3240 C.3    40  DC40        0.1746
    793  O4'        5.3180    6.8440    7.5540 O.3    40  DC40       -0.3327
    794  C3'        3.0110    7.0800    7.3940 C.3    40  DC40        0.1558
    795  O3'        1.9360    7.9340    7.7210 O.3    40  DC40       -0.3138
    796  C2'        3.6270    7.5140    6.0750 C.3    40  DC40        0.0866
    797  C1'        5.0040    6.8700    6.1730 C.3    40  DC40        0.2106
    798  N1         5.0350    5.4810    5.6080 N.ar   40  DC40       -0.2556
    799  C2         5.2490    5.3450    4.2310 C.ar   40  DC40        0.3531
    800  O2         5.3870    6.3710    3.5430 O.2    40  DC40       -0.2443
    801  N3         5.2970    4.1040    3.6900 N.ar   40  DC40       -0.1739
    802  C4         5.1420    3.0320    4.4670 C.ar   40  DC40        0.1759
    803  N4         5.1970    1.8290    3.8900 N.pl3  40  DC40       -0.1070
    804  C5         4.9250    3.1480    5.8640 C.ar   40  DC40        0.0566
    805  C6         4.8780    4.3750    6.3940 C.ar   40  DC40        0.0849
    806  P          0.4480    7.4090    7.5390 P.3    41  DT41        0.2141
    807  OP1       -0.5510    7.9410    8.5000 O.3    41  DT41       -0.4373
    808  OP2        0.7090    5.9520    7.4970 O.2    41  DT41       -0.5172
    809  O5'        0.1340    7.8120    6.0270 O.3    41  DT41       -0.3114
    810  C5'        0.2530    9.1530    5.5950 C.3    41  DT41        0.1811
    811  C4'        0.3180    9.2280    4.0790 C.3    41  DT41        0.1746
    812  O4'        1.4620    8.4840    3.5920 O.3    41  DT41       -0.3327
    813  C3'       -0.8350    8.6910    3.2410 C.3    41  DT41        0.1558
    814  O3'       -1.9590    9.5550    3.1600 O.3    41  DT41       -0.3138
    815  C2'       -0.1750    8.5390    1.8800 C.3    41  DT41        0.0866
    816  C1'        1.2110    8.0480    2.2740 C.3    41  DT41        0.2106
    817  N1         1.0860    6.5480    2.1700 N.ar   41  DT41       -0.2559
    818  C2         1.1970    5.9210    0.9430 C.ar   41  DT41        0.3545
    819  O2         1.1280    6.5190   -0.1160 O.2    41  DT41       -0.2443
    820  N3         1.3930    4.5630    1.0010 N.ar   41  DT41       -0.1533
    821  C4         1.4860    3.7850    2.1360 C.ar   41  DT41        0.2804
    822  O4         1.6640    2.5740    2.0270 O.2    41  DT41       -0.2654
    823  C5         1.3600    4.5080    3.3700 C.ar   41  DT41        0.0534
    824  C6         1.1690    5.8300    3.3430 C.ar   41  DT41        0.0824
    825  C7         1.4470    3.7500    4.6610 C.3    41  DT41        0.0377
    826  P         -3.3590    8.9810    3.4380 P.3    42  DT42        0.2141
    827  OP1       -4.4430    9.9640    3.6600 O.2    42  DT42       -0.5172
    828  OP2       -3.1960    7.8530    4.3840 O.3    42  DT42       -0.4373
    829  O5'       -3.5080    8.2500    2.0170 O.3    42  DT42       -0.3114
    830  C5'       -3.4210    8.9660    0.7900 C.3    42  DT42        0.1811
    831  C4'       -3.3550    8.0650   -0.4250 C.3    42  DT42        0.1746
    832  O4'       -2.0650    7.4060   -0.5120 O.3    42  DT42       -0.3327
    833  C3'       -4.3370    6.9100   -0.4730 C.3    42  DT42        0.1558
    834  O3'       -5.6390    7.2950   -0.8590 O.3    42  DT42       -0.3138
    835  C2'       -3.6750    5.9650   -1.4630 C.3    42  DT42        0.0866
    836  C1'       -2.2150    6.1130   -1.0550 C.3    42  DT42        0.2106
    837  N1        -1.9160    5.0310    0.0670 N.ar   42  DT42       -0.2559
    838  C2        -1.6940    3.7280   -0.3360 C.ar   42  DT42        0.3545
    839  O2        -1.7940    3.3650   -1.4940 O.2    42  DT42       -0.2443
    840  N3        -1.3500    2.8590    0.6710 N.ar   42  DT42       -0.1533
    841  C4        -1.2090    3.1550    2.0110 C.ar   42  DT42        0.2804
    842  O4        -0.8930    2.2660    2.7970 O.2    42  DT42       -0.2654
    843  C5        -1.4570    4.5280    2.3500 C.ar   42  DT42        0.0534
    844  C6        -1.7930    5.3940    1.3910 C.ar   42  DT42        0.0824
    845  C7        -1.3300    4.9500    3.7840 C.3    42  DT42        0.0377
    846  P         -6.8670    6.5730   -0.0880 P.3    43  DA43        0.2141
    847  OP1       -8.0970    7.0920   -0.7420 O.2    43  DA43       -0.5172
    848  OP2       -6.9340    6.1100    1.3310 O.3    43  DA43       -0.4373
    849  O5'       -6.3370    5.3700   -1.0000 O.3    43  DA43       -0.3114
    850  C5'       -6.8970    5.1160   -2.2990 C.3    43  DA43        0.1811
    851  C4'       -6.8050    3.6380   -2.6510 C.3    43  DA43        0.1746
    852  O4'       -5.4200    3.2020   -2.5490 O.3    43  DA43       -0.3327
    853  C3'       -7.5750    2.6730   -1.7560 C.3    43  DA43        0.1558
    854  O3'       -8.9290    2.5230   -2.1830 O.3    43  DA43       -0.3138
    855  C2'       -6.8070    1.3760   -1.9600 C.3    43  DA43        0.0865
    856  C1'       -5.3720    1.8900   -2.0130 C.3    43  DA43        0.2094
    857  N9        -4.8080    1.9620   -0.6730 N.ar   43  DA43       -0.2714
    858  C8        -4.8580    3.0250    0.1920 C.ar   43  DA43        0.1815
    859  N7        -4.2630    2.8010    1.3390 N.ar   43  DA43       -0.2193
    860  C5        -3.7910    1.5040    1.2210 C.ar   43  DA43        0.1518
    861  C6        -3.0690    0.6760    2.0990 C.ar   43  DA43        0.1919
    862  N6        -2.6830    1.0520    3.3200 N.pl3  43  DA43       -0.1054
    863  N1        -2.7560   -0.5670    1.6730 N.ar   43  DA43       -0.2040
    864  C2        -3.1430   -0.9430    0.4490 C.ar   43  DA43        0.2016
    865  N3        -3.8220   -0.2550   -0.4660 N.ar   43  DA43       -0.2048
    866  C4        -4.1200    0.9740   -0.0120 C.ar   43  DA43        0.1691
    867  P        -10.3030    1.7240   -1.0760 P.3    44  DT44        0.2141
    868  OP1      -11.5980    1.7010   -1.7970 O.2    44  DT44       -0.5172
    869  OP2      -10.2100    2.3040    0.2820 O.3    44  DT44       -0.4373
    870  O5'       -9.7770    0.2290   -0.8810 O.3    44  DT44       -0.3114
    871  C5'       -9.3560   -0.5000   -2.0220 C.3    44  DT44        0.1811
    872  C4'       -8.6380   -1.7510   -1.6050 C.3    44  DT44        0.1749
    873  O4'       -7.3260   -1.4060   -1.0910 O.3    44  DT44       -0.3325
    874  C3'       -9.2710   -2.4990   -0.4460 C.3    44  DT44        0.1619
    875  O3'      -10.4050   -3.2640   -0.7990 O.3    44  DT44       -0.3136
    876  C2'       -8.1000   -3.3270    0.0540 C.3    44  DT44        0.1528
    877  C1'       -6.9920   -2.2800   -0.0350 C.3    44  DT44        0.2168
    878  N1        -6.8350   -1.4950    1.2370 N.ar   44  DT44       -0.2553
    879  C2        -6.1800   -2.1110    2.2860 C.ar   44  DT44        0.3568
    880  O2        -5.7420   -3.2460    2.2200 O.3    44  DT44       -0.2562
    881  N3        -6.0560   -1.3480    3.4220 N.ar   44  DT44       -0.1530
    882  C4        -6.5110   -0.0600    3.6090 C.ar   44  DT44        0.2804
    883  O4        -6.3230    0.4970    4.6880 O.2    44  DT44       -0.2654
    884  C5        -7.1810    0.5100    2.4750 C.ar   44  DT44        0.0534
    885  C6        -7.3160   -0.2090    1.3580 C.ar   44  DT44        0.0824
    886  C7        -7.7130    1.9080    2.5800 C.3    44  DT44        0.0377
    887  P        -11.4990   -3.7090    0.4510 P.3    45  DT45        0.2141
    888  OP1      -12.4720   -4.3790   -0.4440 O.2    45  DT45       -0.5172
    889  OP2      -11.9720   -2.8180    1.5390 O.3    45  DT45       -0.4373
    890  O5'      -10.5420   -4.8110    1.1140 O.3    45  DT45       -0.3114
    891  C5'      -11.1010   -6.0070    1.6460 C.3    45  DT45        0.1811
    892  C4'      -10.1260   -6.7400    2.5480 C.3    45  DT45        0.1746
    893  O4'       -8.9540   -5.9210    2.7850 O.3    45  DT45       -0.3327
    894  C3'      -10.6650   -7.0340    3.9380 C.3    45  DT45        0.1558
    895  O3'      -11.4060   -8.2400    3.9440 O.3    45  DT45       -0.3138
    896  C2'       -9.3830   -7.1260    4.7610 C.3    45  DT45        0.0866
    897  C1'       -8.5850   -5.9740    4.1550 C.3    45  DT45        0.2106
    898  N1        -8.7660   -4.4790    4.8030 N.ar   45  DT45       -0.2559
    899  C2        -8.2100   -4.2350    6.0440 C.ar   45  DT45        0.3545
    900  O2        -7.7050   -5.1070    6.7290 O.2    45  DT45       -0.2443
    901  N3        -8.2670   -2.9270    6.4590 N.ar   45  DT45       -0.1533
    902  C4        -8.8120   -1.8620    5.7730 C.ar   45  DT45        0.2804
    903  O4        -8.7870   -0.7410    6.2770 O.2    45  DT45       -0.2654
    904  C5        -9.3700   -2.1960    4.4930 C.ar   45  DT45        0.0534
    905  C6        -9.3280   -3.4600    4.0650 C.ar   45  DT45        0.0824
    906  C7        -9.9880   -1.1050    3.6690 C.3    45  DT45        0.0377
    907  P        -12.7990   -8.3100    4.6980 P.3    46  DC46        0.2141
    908  OP1      -13.5110   -9.3400    3.9060 O.2    46  DC46       -0.5172
    909  OP2      -13.3960   -6.9760    4.8910 O.3    46  DC46       -0.4373
    910  O5'      -12.4690   -8.9320    6.1290 O.3    46  DC46       -0.3114
    911  C5'      -11.2630   -9.6350    6.2910 C.3    46  DC46        0.1811
    912  C4'      -10.7460   -9.4270    7.6930 C.3    46  DC46        0.1746
    913  O4'       -9.9640   -8.2130    7.7680 O.3    46  DC46       -0.3327
    914  C3'      -11.8330   -9.1950    8.7140 C.3    46  DC46        0.1558
    915  O3'      -12.4470  -10.4250    9.0660 O.3    46  DC46       -0.3138
    916  C2'      -11.0150   -8.5890    9.8490 C.3    46  DC46        0.0866
    917  C1'      -10.0340   -7.7020    9.0860 C.3    46  DC46        0.2106
    918  N1       -10.5010   -6.3080    8.9500 N.ar   46  DC46       -0.2556
    919  C2       -10.1970   -5.4030    9.9730 C.ar   46  DC46        0.3531
    920  O2        -9.4960   -5.7890   10.9240 O.2    46  DC46       -0.2443
    921  N3       -10.6740   -4.1370    9.8970 N.ar   46  DC46       -0.1739
    922  C4       -11.4240   -3.7680    8.8580 C.ar   46  DC46        0.1759
    923  N4       -11.8720   -2.5110    8.8270 N.pl3  46  DC46       -0.1070
    924  C5       -11.7440   -4.6700    7.8110 C.ar   46  DC46        0.0566
    925  C6       -11.2700   -5.9190    7.8900 C.ar   46  DC46        0.0849
    926  P        -13.8950  -10.3780    9.9230 P.3    47  DA47        0.2141
    927  OP1      -14.3240  -11.7720   10.2730 O.3    47  DA47       -0.4373
    928  OP2      -14.9180   -9.3220    9.6750 O.2    47  DA47       -0.5172
    929  O5'      -12.9140   -9.9160   11.0850 O.3    47  DA47       -0.3114
    930  C5'      -13.0730  -10.4600   12.3960 C.3    47  DA47        0.1811
    931  C4'      -12.1820   -9.7510   13.3760 C.3    47  DA47        0.1746
    932  O4'      -11.3800   -8.6810   12.7790 O.3    47  DA47       -0.3327
    933  C3'      -12.9850   -9.0350   14.4200 C.3    47  DA47        0.1558
    934  O3'      -13.4920   -9.9840   15.3200 O.3    47  DA47       -0.3138
    935  C2'      -11.9590   -8.0840   15.0000 C.3    47  DA47        0.0865
    936  C1'      -11.2420   -7.6230   13.7220 C.3    47  DA47        0.2094
    937  N9       -11.9080   -6.4070   13.1410 N.ar   47  DA47       -0.2714
    938  C8       -12.5300   -6.3350   11.9220 C.ar   47  DA47        0.1815
    939  N7       -12.8930   -5.1210   11.5840 N.ar   47  DA47       -0.2193
    940  C5       -12.4830   -4.3420   12.6550 C.ar   47  DA47        0.1518
    941  C6       -12.5740   -2.9630   12.9110 C.ar   47  DA47        0.1919
    942  N6       -13.1330   -2.0900   12.0700 N.pl3  47  DA47       -0.1054
    943  N1       -12.0660   -2.5070   14.0760 N.ar   47  DA47       -0.2040
    944  C2       -11.5050   -3.3820   14.9180 C.ar   47  DA47        0.2016
    945  N3       -11.3590   -4.6990   14.7880 N.ar   47  DA47       -0.2048
    946  C4       -11.8750   -5.1210   13.6210 C.ar   47  DA47        0.1691
    947  P        -15.0050   -9.8890   15.7190 P.3    48  DA48        0.2141
    948  OP1      -15.3350  -11.2300   16.2530 O.3    48  DA48       -0.4373
    949  OP2      -15.7130   -9.3910   14.5100 O.2    48  DA48       -0.5172
    950  O5'      -15.1480   -8.7970   16.8670 O.3    48  DA48       -0.3114
    951  C5'      -14.2750   -8.8100   18.0160 C.3    48  DA48        0.1811
    952  C4'      -14.2000   -7.4330   18.6330 C.3    48  DA48        0.1746
    953  O4'      -13.3680   -6.5590   17.8360 O.3    48  DA48       -0.3327
    954  C3'      -15.5230   -6.7000   18.7440 C.3    48  DA48        0.1558
    955  O3'      -16.1990   -7.1110   19.9150 O.3    48  DA48       -0.3138
    956  C2'      -15.0810   -5.2510   18.8540 C.3    48  DA48        0.0865
    957  C1'      -13.8510   -5.2310   17.9410 C.3    48  DA48        0.2094
    958  N9       -14.0690   -4.7370   16.5950 N.ar   48  DA48       -0.2714
    959  C8       -14.0840   -5.4700   15.4370 C.ar   48  DA48        0.1815
    960  N7       -14.3100   -4.7540   14.3610 N.ar   48  DA48       -0.2193
    961  C5       -14.4550   -3.4640   14.8450 C.ar   48  DA48        0.1518
    962  C6       -14.7110   -2.2370   14.2060 C.ar   48  DA48        0.1919
    963  N6       -14.8720   -2.1100   12.8870 N.pl3  48  DA48       -0.1054
    964  N1       -14.7970   -1.1340   14.9800 N.ar   48  DA48       -0.2040
    965  C2       -14.6340   -1.2630   16.3020 C.ar   48  DA48        0.2016
    966  N3       -14.3880   -2.3590   17.0160 N.ar   48  DA48       -0.2048
    967  C4       -14.3100   -3.4370   16.2190 C.ar   48  DA48        0.1691
    968  P        -17.6690   -7.4240   19.8130 P.3    49  DT49        0.2141
    969  OP1      -18.1310   -8.4280   20.8000 O.3    49  DT49       -0.4373
    970  OP2      -17.8570   -7.6790   18.3640 O.2    49  DT49       -0.5172
    971  O5'      -18.2850   -6.0140   20.2160 O.3    49  DT49       -0.3114
    972  C5'      -17.7550   -5.3090   21.3410 C.3    49  DT49        0.1811
    973  C4'      -18.0670   -3.8340   21.2490 C.3    49  DT49        0.1746
    974  O4'      -17.1110   -3.1260   20.4170 O.3    49  DT49       -0.3327
    975  C3'      -19.3950   -3.5020   20.6200 C.3    49  DT49        0.1558
    976  O3'      -20.4640   -3.7440   21.4990 O.3    49  DT49       -0.3138
    977  C2'      -19.2040   -2.0350   20.2920 C.3    49  DT49        0.0866
    978  C1'      -17.7710   -2.0580   19.7520 C.3    49  DT49        0.2106
    979  N1       -17.7970   -2.3350   18.2650 N.ar   49  DT49       -0.2559
    980  C2       -17.9300   -1.2460   17.4240 C.ar   49  DT49        0.3545
    981  O2       -18.0240   -0.1010   17.8290 O.2    49  DT49       -0.2443
    982  N3       -17.9490   -1.5470   16.0830 N.ar   49  DT49       -0.1533
    983  C4       -17.8520   -2.7990   15.5130 C.ar   49  DT49        0.2804
    984  O4       -17.8840   -2.9110   14.2900 O.2    49  DT49       -0.2654
    985  C5       -17.7180   -3.8770   16.4520 C.ar   49  DT49        0.0534
    986  C6       -17.6960   -3.6130   17.7610 C.ar   49  DT49        0.0824
    987  C7       -17.6060   -5.2790   15.9290 C.3    49  DT49        0.0377
    988  P        -21.7470   -4.2780   20.9160 P.3    50  DT50        0.2141
    989  OP1      -22.9390   -4.6630   21.7040 O.3    50  DT50       -0.4373
    990  OP2      -21.3070   -5.0910   19.7580 O.2    50  DT50       -0.5172
    991  O5'      -21.9540   -2.8130   20.3010 O.3    50  DT50       -0.3114
    992  C5'      -22.3910   -1.7350   21.1170 C.3    50  DT50        0.1811
    993  C4'      -22.7430   -0.5110   20.3030 C.3    50  DT50        0.1746
    994  O4'      -21.5900   -0.0890   19.5300 O.3    50  DT50       -0.3327
    995  C3'      -23.8470   -0.6740   19.2640 C.3    50  DT50        0.1558
    996  O3'      -25.1590   -0.6200   19.8100 O.3    50  DT50       -0.3138
    997  C2'      -23.5410    0.4660   18.3010 C.3    50  DT50        0.0866
    998  C1'      -22.0130    0.4650   18.3010 C.3    50  DT50        0.2106
    999  N1       -21.4430   -0.3350   17.1920 N.ar   50  DT50       -0.2559
   1000  C2       -21.0540    0.3600   16.0620 C.ar   50  DT50        0.3545
   1001  O2       -21.1120    1.5740   15.9770 O.2    50  DT50       -0.2443
   1002  N3       -20.5940   -0.4210   15.0300 N.ar   50  DT50       -0.1533
   1003  C4       -20.4860   -1.7960   15.0130 C.ar   50  DT50        0.2804
   1004  O4       -20.0520   -2.3570   14.0100 O.2    50  DT50       -0.2654
   1005  C5       -20.9100   -2.4450   16.2220 C.ar   50  DT50        0.0534
   1006  C6       -21.3620   -1.7100   17.2420 C.ar   50  DT50        0.0824
   1007  C7       -20.8310   -3.9410   16.3020 C.3    50  DT50        0.0377
   1008  P        -26.3640   -1.5100   19.2710 P.3    51  DA51        0.2141
   1009  OP1      -27.5360   -1.7140   20.1800 O.3    51  DA51       -0.4373
   1010  OP2      -26.0940   -2.5040   18.2070 O.2    51  DA51       -0.5172
   1011  O5'      -26.5040   -0.0560   18.6200 O.3    51  DA51       -0.3114
   1012  C5'      -27.6070    0.1160   17.7650 C.3    51  DA51        0.1811
   1013  C4'      -27.4200    1.3330   16.8880 C.3    51  DA51        0.1746
   1014  O4'      -26.0170    1.6410   16.6670 O.3    51  DA51       -0.3327
   1015  C3'      -27.9450    1.1120   15.4880 C.3    51  DA51        0.1558
   1016  O3'      -29.3470    1.3080   15.4810 O.3    51  DA51       -0.3138
   1017  C2'      -27.2000    2.1850   14.7250 C.3    51  DA51        0.0865
   1018  C1'      -25.8290    1.9470   15.2940 C.3    51  DA51        0.2094
   1019  N9       -25.0410    0.8930   14.4890 N.ar   51  DA51       -0.2714
   1020  C8       -24.5940   -0.2450   15.1060 C.ar   51  DA51        0.1815
   1021  N7       -23.5760   -0.8100   14.5010 N.ar   51  DA51       -0.2193
   1022  C5       -23.3410    0.0120   13.4100 C.ar   51  DA51        0.1518
   1023  C6       -22.3930   -0.0400   12.3730 C.ar   51  DA51        0.1919
   1024  N6       -21.4670   -0.9960   12.2650 N.pl3  51  DA51       -0.1054
   1025  N1       -22.4290    0.9360   11.4410 N.ar   51  DA51       -0.2040
   1026  C2       -23.3570    1.8940   11.5510 C.ar   51  DA51        0.2016
   1027  N3       -24.2980    2.0500   12.4780 N.ar   51  DA51       -0.2048
   1028  C4       -24.2360    1.0650   13.3890 C.ar   51  DA51        0.1691
   1029  P        -30.1320    0.3400   14.7960 P.3    52  DC52        0.2141
   1030  OP1      -31.4460    0.2730   14.1100 O.2    52  DC52       -0.5172
   1031  OP2      -29.4450   -0.8790   15.2880 O.3    52  DC52       -0.4373
   1032  O5'      -29.0580    1.0090   13.8200 O.3    52  DC52       -0.3114
   1033  C5'      -29.1940    2.3510   13.3860 C.3    52  DC52        0.1812
   1034  C4'      -28.9650    2.4550   11.9020 C.3    52  DC52        0.1775
   1035  O4'      -27.5430    2.4750   11.5900 O.3    52  DC52       -0.3326
   1036  C3'      -29.5540    1.3130   11.0790 C.3    52  DC52        0.1859
   1037  O3'      -30.0450    1.8480    9.8560 O.3    52  DC52       -0.2202
   1038  C2'      -28.3370    0.4590   10.7630 C.3    52  DC52        0.0895
   1039  C1'      -27.3060    1.5560   10.5430 C.3    52  DC52        0.2107
   1040  N1       -26.2750    1.3100   10.4910 N.ar   52  DC52       -0.2556
   1041  C2       -25.2670    1.1630    9.5310 C.ar   52  DC52        0.3531
   1042  O2       -25.0340    2.1100    8.7600 O.2    52  DC52       -0.2443
   1043  N3       -24.5790   -0.0020    9.4710 N.ar   52  DC52       -0.1739
   1044  C4       -24.8650   -0.9900   10.3190 C.ar   52  DC52        0.1759
   1045  N4       -24.1610   -2.1200   10.2210 N.pl3  52  DC52       -0.1070
   1046  C5       -25.8820   -0.8610   11.2980 C.ar   52  DC52        0.0566
   1047  C6       -26.5590    0.2910   11.3550 C.ar   52  DC52        0.0849
   1048  P        -31.6980    1.7400    9.6960 P.3    53  DG53        0.4149
   1049  OP1      -32.8930    2.1910    8.9620 O.3    53  DG53       -0.1481
   1050  OP2      -31.5900    0.3320   10.1350 O.2    53  DG53       -0.2668
   1051  O5'      -30.4950    2.1010    8.7460 O.3    53  DG53       -0.2177
   1052  C5'      -30.7500    3.0810    7.8100 C.3    53  DG53        0.2140
   1053  C4'      -30.0260    2.6760    6.5460 C.3    53  DG53        0.1776
   1054  O4'      -28.6400    2.3740    6.8390 O.3    53  DG53       -0.3326
   1055  C3'      -30.5260    1.3970    5.9160 C.3    53  DG53        0.1559
   1056  O3'      -31.7110    1.7130    5.2140 O.3    53  DG53       -0.3138
   1057  C2'      -29.3380    1.1050    5.0020 C.3    53  DG53        0.0865
   1058  C1'      -28.1500    1.4500    5.8910 C.3    53  DG53        0.2094
   1059  N9       -27.7860    0.2280    6.6200 N.ar   53  DG53       -0.2713
   1060  C8       -28.3820   -0.2660    7.7550 C.ar   53  DG53        0.1816
   1061  N7       -27.9250   -1.4360    8.1090 N.ar   53  DG53       -0.2173
   1062  C5       -26.9710   -1.7350    7.1550 C.ar   53  DG53        0.1748
   1063  C6       -26.1360   -2.8730    7.0090 C.ar   53  DG53        0.3023
   1064  O6       -26.0790   -3.8780    7.7280 O.2    53  DG53       -0.2633
   1065  N1       -25.3080   -2.7710    5.8950 N.ar   53  DG53       -0.1709
   1066  C2       -25.2860   -1.7050    5.0280 C.ar   53  DG53        0.2606
   1067  N2       -24.4180   -1.7880    4.0110 N.pl3  53  DG53       -0.0859
   1068  N3       -26.0560   -0.6410    5.1510 N.ar   53  DG53       -0.1918
   1069  C4       -26.8690   -0.7180    6.2250 C.ar   53  DG53        0.1722
   1070  P        -32.4650    0.5230    4.4100 P.3    54  DT54        0.2141
   1071  OP1      -33.5540    1.1500    3.6060 O.2    54  DT54       -0.5172
   1072  OP2      -32.7780   -0.1620    5.6850 O.3    54  DT54       -0.4373
   1073  O5'      -31.6360   -0.5140    3.5070 O.3    54  DT54       -0.3114
   1074  C5'      -31.2960   -0.2050    2.1750 C.3    54  DT54        0.1811
   1075  C4'      -30.2160   -1.1420    1.6990 C.3    54  DT54        0.1746
   1076  O4'      -29.2230   -1.2700    2.7420 O.3    54  DT54       -0.3327
   1077  C3'      -30.6390   -2.5740    1.4440 C.3    54  DT54        0.1558
   1078  O3'      -31.3580   -2.7410    0.1860 O.3    54  DT54       -0.3138
   1079  C2'      -29.2700   -3.2610    1.4870 C.3    54  DT54        0.0866
   1080  C1'      -28.6110   -2.5370    2.6510 C.3    54  DT54        0.2106
   1081  N1       -28.6550   -3.2920    3.7610 N.ar   54  DT54       -0.2559
   1082  C2       -27.7310   -4.2480    4.1370 C.ar   54  DT54        0.3545
   1083  O2       -26.7970   -4.5830    3.4300 O.2    54  DT54       -0.2443
   1084  N3       -27.9390   -4.8020    5.3760 N.ar   54  DT54       -0.1533
   1085  C4       -28.9570   -4.5030    6.2580 C.ar   54  DT54        0.2804
   1086  O4       -29.0120   -5.0860    7.3380 O.2    54  DT54       -0.2654
   1087  C5       -29.8760   -3.5020    5.7950 C.ar   54  DT54        0.0534
   1088  C6       -29.6970   -2.9460    4.5940 C.ar   54  DT54        0.0824
   1089  C7       -31.0190   -3.1080    6.6830 C.3    54  DT54        0.0377
   1090  P        -31.8640   -4.1700   -0.3300 P.3    55  DC55        0.2141
   1091  OP1      -32.8810   -4.1420   -1.4030 O.2    55  DC55       -0.5172
   1092  OP2      -31.7780   -5.3470    0.5640 O.3    55  DC55       -0.4373
   1093  O5'      -30.4590   -3.9650   -1.0900 O.3    55  DC55       -0.3114
   1094  C5'      -29.9910   -4.9170   -2.1360 C.3    55  DC55        0.1811
   1095  C4'      -28.7430   -5.4960   -1.5710 C.3    55  DC55        0.1746
   1096  O4'      -28.5580   -5.3680   -0.0940 O.3    55  DC55       -0.3327
   1097  C3'      -28.9240   -7.0120   -1.4930 C.3    55  DC55        0.1558
   1098  O3'      -29.3450   -7.7440   -2.6360 O.3    55  DC55       -0.3138
   1099  C2'      -27.6050   -7.3970   -0.8530 C.3    55  DC55        0.0866
   1100  C1'      -27.4840   -6.2600    0.2100 C.3    55  DC55        0.2106
   1101  N1       -27.6130   -6.4080    1.5440 N.ar   55  DC55       -0.2556
   1102  C2       -26.6820   -7.0830    2.3410 C.ar   55  DC55        0.3531
   1103  O2       -25.6160   -7.4600    1.8250 O.2    55  DC55       -0.2443
   1104  N3       -26.9690   -7.3060    3.6460 N.ar   55  DC55       -0.1739
   1105  C4       -28.1270   -6.8840    4.1550 C.ar   55  DC55        0.1759
   1106  N4       -28.3660   -7.1260    5.4460 N.pl3  55  DC55       -0.1070
   1107  C5       -29.0840   -6.1980    3.3640 C.ar   55  DC55        0.0566
   1108  C6       -28.7960   -5.9800    2.0760 C.ar   55  DC55        0.0849
   1109  P        -29.9020   -9.4550   -2.2550 P.3    56  DT56        0.2141
   1110  OP1      -30.2320   -9.9300   -3.6320 O.2    56  DT56       -0.5172
   1111  OP2      -30.9890   -9.3080   -1.2460 O.3    56  DT56       -0.4373
   1112  O5'      -28.7810  -10.3860   -1.6000 O.3    56  DT56       -0.3114
   1113  C5'      -27.6520  -10.8330   -2.3560 C.3    56  DT56        0.1811
   1114  C4'      -26.8690  -11.8580   -1.5780 C.3    56  DT56        0.1746
   1115  O4'      -26.1500  -11.2030   -0.5050 O.3    56  DT56       -0.3327
   1116  C3'      -27.7350  -12.9000   -0.8980 C.3    56  DT56        0.1558
   1117  O3'      -28.0560  -13.9700   -1.7650 O.3    56  DT56       -0.3138
   1118  C2'      -26.9000  -13.3200    0.3020 C.3    56  DT56        0.0866
   1119  C1'      -26.1860  -12.0120    0.6580 C.3    56  DT56        0.2106
   1120  N1       -26.8460  -11.2840    1.7010 N.ar   56  DT56       -0.2559
   1121  C2       -26.5790  -11.6690    3.0010 C.ar   56  DT56        0.3545
   1122  O2       -25.7050  -12.4670    3.2920 O.2    56  DT56       -0.2443
   1123  N3       -27.3750  -11.0840    3.9560 N.ar   56  DT56       -0.1533
   1124  C4       -28.3890  -10.1730    3.7460 C.ar   56  DT56        0.2804
   1125  O4       -29.0170   -9.7340    4.7060 O.2    56  DT56       -0.2654
   1126  C5       -28.6060   -9.8250    2.3700 C.ar   56  DT56        0.0534
   1127  C6       -27.8460  -10.3790    1.4210 C.ar   56  DT56        0.0824
   1128  C7       -29.6890   -8.8410    2.0380 C.3    56  DT56        0.0377
   1129  P        -29.5360  -14.8970   -1.5540 P.3    57  DG57        0.2141
   1130  OP1      -28.8410  -15.4260   -2.7530 O.2    57  DG57       -0.5172
   1131  OP2      -30.9080  -14.3530   -1.6770 O.3    57  DG57       -0.4373
   1132  O5'      -29.6360  -16.0180   -0.4070 O.3    57  DG57       -0.3114
   1133  C5'      -28.7080  -17.0930   -0.4080 C.3    57  DG57        0.1811
   1134  C4'      -28.0130  -17.2800    0.9180 C.3    57  DG57        0.1746
   1135  O4'      -27.5620  -16.0060    1.4400 O.3    57  DG57       -0.3327
   1136  C3'      -28.8370  -17.8590    2.0550 C.3    57  DG57        0.1558
   1137  O3'      -28.9720  -19.2640    1.9710 O.3    57  DG57       -0.3138
   1138  C2'      -28.0400  -17.4360    3.2790 C.3    57  DG57        0.0865
   1139  C1'      -27.5500  -16.0530    2.8520 C.3    57  DG57        0.2094
   1140  N9       -28.3940  -15.0980    3.4240 N.ar   57  DG57       -0.2713
   1141  C8       -29.1290  -14.2300    2.6540 C.ar   57  DG57        0.1816
   1142  N7       -29.7880  -13.3490    3.3570 N.ar   57  DG57       -0.2173
   1143  C5       -29.4710  -13.6500    4.6690 C.ar   57  DG57        0.1748
   1144  C6       -29.8860  -13.0420    5.8820 C.ar   57  DG57        0.3023
   1145  O6       -30.6460  -12.0770    6.0340 O.2    57  DG57       -0.2633
   1146  N1       -29.3250  -13.6640    6.9940 N.ar   57  DG57       -0.1709
   1147  C2       -28.4710  -14.7390    6.9440 C.ar   57  DG57        0.2606
   1148  N2       -28.0330  -15.2010    8.1230 N.pl3  57  DG57       -0.0859
   1149  N3       -28.0780  -15.3150    5.8250 N.ar   57  DG57       -0.1918
   1150  C4       -28.6100  -14.7280    4.7320 C.ar   57  DG57        0.1722
   1151  P        -30.2660  -19.9570    2.2990 P.3    58  DC58        0.2141
   1152  OP1      -30.2090  -21.3910    1.9330 O.2    58  DC58       -0.5172
   1153  OP2      -31.4780  -19.1490    2.0420 O.3    58  DC58       -0.4373
   1154  O5'      -29.9960  -19.8020    3.8690 O.3    58  DC58       -0.3114
   1155  C5'      -28.7890  -20.2920    4.4400 C.3    58  DC58        0.1812
   1156  C4'      -28.7680  -20.1310    5.9430 C.3    58  DC58        0.1775
   1157  O4'      -28.3390  -18.7910    6.3070 O.3    58  DC58       -0.3326
   1158  C3'      -30.1070  -20.2780    6.6500 C.3    58  DC58        0.1859
   1159  O3'      -30.5310  -21.6210    6.7920 O.3    58  DC58       -0.2202
   1160  C2'      -29.8490  -19.5640    7.9700 C.3    58  DC58        0.0895
   1161  C1'      -28.9990  -18.3880    7.4910 C.3    58  DC58        0.2107
   1162  N1       -29.9230  -17.1950    7.1920 N.ar   58  DC58       -0.2556
   1163  C2       -30.3450  -16.4740    8.3160 C.ar   58  DC58        0.3531
   1164  O2       -29.9180  -16.8070    9.4340 O.2    58  DC58       -0.2443
   1165  N3       -31.2060  -15.4410    8.1510 N.ar   58  DC58       -0.1739
   1166  C4       -31.6390  -15.1210    6.9320 C.ar   58  DC58        0.1759
   1167  N4       -32.4860  -14.0950    6.8190 N.pl3  58  DC58       -0.1070
   1168  C5       -31.2230  -15.8390    5.7810 C.ar   58  DC58        0.0566
   1169  C6       -30.3730  -16.8580    5.9470 C.ar   58  DC58        0.0849
   1170  P        -31.8510  -21.9000    6.1830 P.3    59  DA59        0.4149
   1171  OP1      -32.4590  -23.2200    6.4410 O.2    59  DA59       -0.2668
   1172  OP2      -32.5230  -20.9670    5.2550 O.3    59  DA59       -0.1481
   1173  O5'      -31.6600  -21.1820    7.5850 O.3    59  DA59       -0.2177
   1174  C5'      -31.2730  -21.9280    8.7330 C.3    59  DA59        0.2140
   1175  C4'      -32.1280  -21.5280    9.8920 C.3    59  DA59        0.1776
   1176  O4'      -31.8480  -20.1420   10.2020 O.3    59  DA59       -0.3326
   1177  C3'      -33.6170  -21.5880    9.5910 C.3    59  DA59        0.1559
   1178  O3'      -34.0990  -22.9170    9.8430 O.3    59  DA59       -0.3138
   1179  C2'      -34.1870  -20.4850   10.4870 C.3    59  DA59        0.0865
   1180  C1'      -33.0500  -19.4560   10.4830 C.3    59  DA59        0.2094
   1181  N9       -33.2050  -18.3720    9.7660 N.ar   59  DA59       -0.2714
   1182  C8       -32.9740  -18.3140    8.4160 C.ar   59  DA59        0.1815
   1183  N7       -33.4050  -17.2110    7.8520 N.ar   59  DA59       -0.2193
   1184  C5       -33.9580  -16.4960    8.9030 C.ar   59  DA59        0.1518
   1185  C6       -34.5850  -15.2390    8.9650 C.ar   59  DA59        0.1919
   1186  N6       -34.7640  -14.4490    7.9040 N.pl3  59  DA59       -0.1054
   1187  N1       -35.0250  -14.8170   10.1700 N.ar   59  DA59       -0.2040
   1188  C2       -34.8440  -15.6090   11.2330 C.ar   59  DA59        0.2016
   1189  N3       -34.2700  -16.8080   11.3000 N.ar   59  DA59       -0.2048
   1190  C4       -33.8440  -17.1990   10.0870 C.ar   59  DA59        0.1691
   1191  P        -35.5120  -23.2640    9.4440 P.3    60  DC60        0.2141
   1192  OP1      -35.9130  -24.5220   10.1400 O.3    60  DC60       -0.4373
   1193  OP2      -35.4590  -23.2290    7.9560 O.2    60  DC60       -0.5172
   1194  O5'      -36.4660  -22.0730    9.9320 O.3    60  DC60       -0.3114
   1195  C5'      -36.7930  -21.9110   11.3220 C.3    60  DC60        0.1811
   1196  C4'      -37.1370  -20.4590   11.6600 C.3    60  DC60        0.1746
   1197  O4'      -36.3570  -19.5430   10.8380 O.3    60  DC60       -0.3327
   1198  C3'      -38.5540  -19.9570   11.4230 C.3    60  DC60        0.1558
   1199  O3'      -39.4780  -20.3370   12.4200 O.3    60  DC60       -0.3138
   1200  C2'      -38.3760  -18.4460   11.4380 C.3    60  DC60        0.0866
   1201  C1'      -37.0350  -18.2970   10.7380 C.3    60  DC60        0.2106
   1202  N1       -37.2230  -17.9820    9.3630 N.ar   60  DC60       -0.2556
   1203  C2       -37.7100  -16.7490    8.9120 C.ar   60  DC60        0.3531
   1204  O2       -38.0520  -15.8990    9.7500 O.2    60  DC60       -0.2443
   1205  N3       -37.7930  -16.5210    7.5790 N.ar   60  DC60       -0.1739
   1206  C4       -37.4150  -17.4640    6.7160 C.ar   60  DC60        0.1759
   1207  N4       -37.5150  -17.1940    5.4120 N.pl3  60  DC60       -0.1070
   1208  C5       -36.9190  -18.7200    7.1530 C.ar   60  DC60        0.0566
   1209  C6       -36.8380  -18.9410    8.4700 C.ar   60  DC60        0.0849
   1210  P        -41.1590  -20.1510   12.0780 P.3    61  DA61        0.2141
   1211  OP1      -42.1890  -20.9880   12.7320 O.3    61  DA61       -0.4373
   1212  OP2      -41.3790  -19.6230   10.7110 O.2    61  DA61       -0.5172
   1213  O5'      -40.8860  -18.8470   12.9690 O.3    61  DA61       -0.3114
   1214  C5'      -41.8790  -17.8360   13.1220 C.3    61  DA61        0.1811
   1215  C4'      -41.2670  -16.4540   13.1250 C.3    61  DA61        0.1746
   1216  O4'      -40.1440  -16.4320   12.2060 O.3    61  DA61       -0.3327
   1217  C3'      -42.1650  -15.3170   12.6520 C.3    61  DA61        0.1558
   1218  O3'      -43.0250  -14.7950   13.6540 O.3    61  DA61       -0.3138
   1219  C2'      -41.1680  -14.2950   12.1180 C.3    61  DA61        0.0865
   1220  C1'      -40.0950  -15.2010   11.5180 C.3    61  DA61        0.2094
   1221  N9       -40.2660  -15.1700   10.0780 N.ar   61  DA61       -0.2714
   1222  C8       -40.2750  -16.3210    9.3350 C.ar   61  DA61        0.1815
   1223  N7       -40.2470  -16.1150    8.0400 N.ar   61  DA61       -0.2193
   1224  C5       -40.2190  -14.7350    7.9240 C.ar   61  DA61        0.1518
   1225  C6       -40.1820  -13.8790    6.8090 C.ar   61  DA61        0.1919
   1226  N6       -40.1660  -14.3120    5.5460 N.pl3  61  DA61       -0.1054
   1227  N1       -40.1630  -12.5490    7.0390 N.ar   61  DA61       -0.2040
   1228  C2       -40.1780  -12.1170    8.3050 C.ar   61  DA61        0.2016
   1229  N3       -40.2110  -12.8210    9.4340 N.ar   61  DA61       -0.2048
   1230  C4       -40.2310  -14.1390    9.1710 C.ar   61  DA61        0.1691
   1231  P        -43.9870  -14.0730   12.8590 P.3    62  DT62        0.2141
   1232  OP1      -44.7810  -15.2110   13.3630 O.3    62  DT62       -0.4373
   1233  OP2      -44.6750  -12.9830   12.1320 O.2    62  DT62       -0.5172
   1234  O5'      -43.3090  -13.3120   14.0980 O.3    62  DT62       -0.3114
   1235  C5'      -44.1770  -12.7360   15.0740 C.3    62  DT62        0.1811
   1236  C4'      -43.4720  -11.8880   16.1130 C.3    62  DT62        0.1746
   1237  O4'      -43.0780  -12.7380   17.2330 O.3    62  DT62       -0.3327
   1238  C3'      -42.2170  -11.1600   15.6230 C.3    62  DT62        0.1558
   1239  O3'      -42.1960   -9.7640   15.9180 O.3    62  DT62       -0.3138
   1240  C2'      -41.0760  -11.8190   16.3880 C.3    62  DT62        0.0866
   1241  C1'      -41.7300  -12.4960   17.5870 C.3    62  DT62        0.2106
   1242  N1       -41.3310  -13.2760   17.8580 N.ar   62  DT62       -0.2559
   1243  C2       -40.2880  -13.5780   18.7130 C.ar   62  DT62        0.3545
   1244  O2       -39.9040  -12.8210   19.5860 O.2    62  DT62       -0.2443
   1245  N3       -39.7060  -14.8060   18.5080 N.ar   62  DT62       -0.1533
   1246  C4       -40.0540  -15.7400   17.5550 C.ar   62  DT62        0.2804
   1247  O4       -39.4370  -16.8010   17.4940 O.2    62  DT62       -0.2654
   1248  C5       -41.1450  -15.3520   16.7060 C.ar   62  DT62        0.0534
   1249  C6       -41.7290  -14.1640   16.8830 C.ar   62  DT62        0.0824
   1250  C7       -41.5990  -16.3010   15.6370 C.3    62  DT62        0.0377
   1251  P        -41.3590   -8.7450   15.0000 P.3    63  DA63        0.2141
   1252  OP1      -42.2310   -7.6430   15.4520 O.3    63  DA63       -0.4373
   1253  OP2      -41.1170   -8.9200   13.5460 O.2    63  DA63       -0.5172
   1254  O5'      -39.9580   -8.5550   15.7230 O.3    63  DA63       -0.3114
   1255  C5'      -39.8600   -8.8250   17.1240 C.3    63  DA63        0.1811
   1256  C4'      -38.7550   -9.8200   17.4280 C.3    63  DA63        0.1746
   1257  O4'      -39.1270  -11.1930   17.1390 O.3    63  DA63       -0.3327
   1258  C3'      -37.4470   -9.6750   16.6860 C.3    63  DA63        0.1558
   1259  O3'      -36.7120   -8.5730   17.1700 O.3    63  DA63       -0.3138
   1260  C2'      -36.7610  -10.9870   17.0390 C.3    63  DA63        0.0865
   1261  C1'      -37.9370  -11.9600   16.9770 C.3    63  DA63        0.2094
   1262  N9       -38.0110  -12.5420   15.6350 N.ar   63  DA63       -0.2714
   1263  C8       -38.7580  -12.1680   14.5490 C.ar   63  DA63        0.1815
   1264  N7       -38.5910  -12.9400   13.5010 N.ar   63  DA63       -0.2193
   1265  C5       -37.6710  -13.8840   13.9280 C.ar   63  DA63        0.1518
   1266  C6       -37.0780  -14.9850   13.2850 C.ar   63  DA63        0.1919
   1267  N6       -37.3380  -15.3310   12.0220 N.pl3  63  DA63       -0.1054
   1268  N1       -36.1990  -15.7250   13.9930 N.ar   63  DA63       -0.2040
   1269  C2       -35.9410  -15.3780   15.2590 C.ar   63  DA63        0.2016
   1270  N3       -36.4350  -14.3690   15.9720 N.ar   63  DA63       -0.2048
   1271  C4       -37.3040  -13.6520   15.2400 C.ar   63  DA63        0.1691
   1272  P        -35.8170   -7.7940   16.1470 P.3    64  DC64        0.2141
   1273  OP1      -35.5490   -6.4560   16.7290 O.3    64  DC64       -0.4373
   1274  OP2      -36.4740   -7.8950   14.8190 O.2    64  DC64       -0.5172
   1275  O5'      -34.4500   -8.6150   16.1020 O.3    64  DC64       -0.3114
   1276  C5'      -33.8700   -9.1100   17.3080 C.3    64  DC64        0.1811
   1277  C4'      -32.9320  -10.2600   17.0170 C.3    64  DC64        0.1746
   1278  O4'      -33.6620  -11.3650   16.4220 O.3    64  DC64       -0.3327
   1279  C3'      -31.8310   -9.9740   16.0140 C.3    64  DC64        0.1558
   1280  O3'      -30.7430   -9.3070   16.6360 O.3    64  DC64       -0.3138
   1281  C2'      -31.4480  -11.3780   15.5540 C.3    64  DC64        0.0866
   1282  C1'      -32.8080  -12.0800   15.5420 C.3    64  DC64        0.2106
   1283  N1       -33.4370  -12.0840   14.2400 N.ar   64  DC64       -0.2556
   1284  C2       -33.0690  -13.0300   13.2760 C.ar   64  DC64        0.3531
   1285  O2       -32.2320  -13.8980   13.5780 O.2    64  DC64       -0.2443
   1286  N3       -33.6330  -12.9710   12.0460 N.ar   64  DC64       -0.1739
   1287  C4       -34.5250  -12.0210   11.7650 C.ar   64  DC64        0.1759
   1288  N4       -35.0540  -12.0030   10.5400 N.pl3  64  DC64       -0.1070
   1289  C5       -34.9110  -11.0530   12.7280 C.ar   64  DC64        0.0566
   1290  C6       -34.3520  -11.1150   13.9420 C.ar   64  DC64        0.0849
   1291  P        -29.6290   -8.3730   15.6960 P.3    65  DC65        0.2141
   1292  OP1      -28.7600   -7.5520   16.5940 O.3    65  DC65       -0.4373
   1293  OP2      -30.2450   -7.7570   14.4920 O.2    65  DC65       -0.5172
   1294  O5'      -28.8150   -9.6570   15.2350 O.3    65  DC65       -0.3114
   1295  C5'      -28.3700  -10.6220   16.1800 C.3    65  DC65        0.1811
   1296  C4'      -27.9290  -11.8700   15.4680 C.3    65  DC65        0.1746
   1297  O4'      -29.0360  -12.3800   14.6830 O.3    65  DC65       -0.3327
   1298  C3'      -26.8270  -11.7020   14.4440 C.3    65  DC65        0.1558
   1299  O3'      -25.5380  -11.6550   15.0070 O.3    65  DC65       -0.3138
   1300  C2'      -27.0270  -12.9100   13.5470 C.3    65  DC65        0.0866
   1301  C1'      -28.5440  -12.9970   13.5030 C.3    65  DC65        0.2106
   1302  N1       -29.0760  -12.3640   12.3230 N.ar   65  DC65       -0.2556
   1303  C2       -28.8700  -12.9760   11.0820 C.ar   65  DC65        0.3531
   1304  O2       -28.2500  -14.0520   11.0410 O.2    65  DC65       -0.2443
   1305  N3       -29.3510  -12.3790    9.9650 N.ar   65  DC65       -0.1739
   1306  C4       -30.0090  -11.2230   10.0570 C.ar   65  DC65        0.1759
   1307  N4       -30.4640  -10.6720    8.9290 N.pl3  65  DC65       -0.1070
   1308  C5       -30.2280  -10.5870   11.3050 C.ar   65  DC65        0.0566
   1309  C6       -29.7520  -11.1800   12.4060 C.ar   65  DC65        0.0849
   1310  P        -24.8010  -10.7770   14.5050 P.3    66  DA66        0.2141
   1311  OP1      -23.6990  -10.2990   15.3710 O.3    66  DA66       -0.4373
   1312  OP2      -25.6430   -9.8230   13.7390 O.2    66  DA66       -0.5172
   1313  O5'      -24.1880  -11.7250   13.3720 O.3    66  DA66       -0.3114
   1314  C5'      -23.4530  -12.8980   13.6830 C.3    66  DA66        0.1811
   1315  C4'      -23.1020  -13.6560   12.4280 C.3    66  DA66        0.1746
   1316  O4'      -24.3240  -14.0140   11.7330 O.3    66  DA66       -0.3327
   1317  C3'      -22.3080  -12.8730   11.3920 C.3    66  DA66        0.1558
   1318  O3'      -20.9170  -12.8410   11.6410 O.3    66  DA66       -0.3138
   1319  C2'      -22.6660  -13.5720   10.0900 C.3    66  DA66        0.0865
   1320  C1'      -24.1350  -13.9100   10.3380 C.3    66  DA66        0.2094
   1321  N9       -25.0570  -12.8570    9.8220 N.ar   66  DA66       -0.2714
   1322  C8       -25.8440  -12.0480   10.6000 C.ar   66  DA66        0.1815
   1323  N7       -26.6370  -11.2620    9.9120 N.ar   66  DA66       -0.2193
   1324  C5       -26.3510  -11.5750    8.5920 C.ar   66  DA66        0.1518
   1325  C6       -26.8570  -11.0890    7.3740 C.ar   66  DA66        0.1919
   1326  N6       -27.7970  -10.1450    7.2870 N.pl3  66  DA66       -0.1054
   1327  N1       -26.3570  -11.6130    6.2340 N.ar   66  DA66       -0.2040
   1328  C2       -25.4150  -12.5600    6.3220 C.ar   66  DA66        0.2016
   1329  N3       -24.8620  -13.0970    7.4070 N.ar   66  DA66       -0.2048
   1330  C4       -25.3790  -12.5550    8.5210 C.ar   66  DA66        0.1691
   1331  P        -20.4760  -11.5940   11.6740 P.3    67  DG67        0.2141
   1332  OP1      -19.1290  -11.9290   12.1880 O.2    67  DG67       -0.5172
   1333  OP2      -21.2770  -10.5330   12.3450 O.3    67  DG67       -0.4373
   1334  O5'      -20.3190  -11.2430   10.1300 O.3    67  DG67       -0.3114
   1335  C5'      -19.5410  -12.0970    9.2790 C.3    67  DG67        0.1811
   1336  C4'      -19.8660  -11.8440    7.8290 C.3    67  DG67        0.1746
   1337  O4'      -21.2600  -12.1510    7.5580 O.3    67  DG67       -0.3327
   1338  C3'      -19.7240  -10.4230    7.3140 C.3    67  DG67        0.1558
   1339  O3'      -18.3750  -10.1050    7.0430 O.3    67  DG67       -0.3138
   1340  C2'      -20.5090  -10.5150    6.0190 C.3    67  DG67        0.0865
   1341  C1'      -21.7040  -11.3590    6.4660 C.3    67  DG67        0.2094
   1342  N9       -22.8000  -10.4510    6.9040 N.ar   67  DG67       -0.2713
   1343  C8       -23.2630  -10.3880    8.1950 C.ar   67  DG67        0.1816
   1344  N7       -24.2910   -9.5960    8.3360 N.ar   67  DG67       -0.2173
   1345  C5       -24.5240   -9.1080    7.0640 C.ar   67  DG67        0.1748
   1346  C6       -25.5080   -8.2030    6.5880 C.ar   67  DG67        0.3023
   1347  O6       -26.4010   -7.6360    7.2300 O.2    67  DG67       -0.2633
   1348  N1       -25.3870   -7.9740    5.2210 N.ar   67  DG67       -0.1709
   1349  C2       -24.4360   -8.5470    4.4110 C.ar   67  DG67        0.2606
   1350  N2       -24.4790   -8.2050    3.1160 N.pl3  67  DG67       -0.0859
   1351  N3       -23.5160   -9.3880    4.8380 N.ar   67  DG67       -0.1918
   1352  C4       -23.6130   -9.6250    6.1630 C.ar   67  DG67        0.1722
   1353  P        -17.8050   -8.7150    7.5230 P.3    68  DC68        0.2141
   1354  OP1      -16.3360   -8.6600    7.6700 O.2    68  DC68       -0.5172
   1355  OP2      -18.6770   -8.2850    8.6440 O.3    68  DC68       -0.4373
   1356  O5'      -18.1940   -7.8550    6.2530 O.3    68  DC68       -0.3114
   1357  C5'      -17.7730   -8.2570    4.9620 C.3    68  DC68        0.1811
   1358  C4'      -18.4870   -7.4420    3.9250 C.3    68  DC68        0.1746
   1359  O4'      -19.9100   -7.7210    4.0100 O.3    68  DC68       -0.3327
   1360  C3'      -18.3730   -5.9390    4.1280 C.3    68  DC68        0.1558
   1361  O3'      -17.1640   -5.3890    3.5980 O.3    68  DC68       -0.3138
   1362  C2'      -19.6300   -5.4210    3.4430 C.3    68  DC68        0.0866
   1363  C1'      -20.6400   -6.5350    3.7440 C.3    68  DC68        0.2106
   1364  N1       -21.4680   -6.3150    4.8600 N.ar   68  DC68       -0.2556
   1365  C2       -22.3760   -5.2630    5.0330 C.ar   68  DC68        0.3531
   1366  O2       -22.4130   -4.3600    4.1810 O.2    68  DC68       -0.2443
   1367  N3       -23.1820   -5.2610    6.1210 N.ar   68  DC68       -0.1739
   1368  C4       -23.1060   -6.2510    7.0110 C.ar   68  DC68        0.1759
   1369  N4       -23.9210   -6.2060    8.0670 N.pl3  68  DC68       -0.1070
   1370  C5       -22.1930   -7.3260    6.8540 C.ar   68  DC68        0.0566
   1371  C6       -21.3980   -7.3240    5.7780 C.ar   68  DC68        0.0849
   1372  P        -16.2670   -4.4540    4.5280 P.3    69  DT69        0.2141
   1373  OP1      -15.0260   -4.3080    3.7300 O.2    69  DT69       -0.5172
   1374  OP2      -16.1680   -4.7260    5.9910 O.3    69  DT69       -0.4373
   1375  O5'      -17.1880   -3.1810    4.2700 O.3    69  DT69       -0.3114
   1376  C5'      -17.4030   -2.6430    2.9750 C.3    69  DT69        0.1811
   1377  C4'      -18.5390   -1.6390    3.0920 C.3    69  DT69        0.1746
   1378  O4'      -19.7170   -2.2680    3.6940 O.3    69  DT69       -0.3327
   1379  C3'      -18.2550   -0.4840    4.0440 C.3    69  DT69        0.1558
   1380  O3'      -17.4810    0.4920    3.4230 O.3    69  DT69       -0.3138
   1381  C2'      -19.6640    0.0230    4.3250 C.3    69  DT69        0.0866
   1382  C1'      -20.4150   -1.3040    4.4780 C.3    69  DT69        0.2106
   1383  N1       -20.5390   -1.7120    5.9110 N.ar   69  DT69       -0.2559
   1384  C2       -21.3190   -1.0360    6.8290 C.ar   69  DT69        0.3545
   1385  O2       -21.8510    0.0340    6.5890 O.2    69  DT69       -0.2443
   1386  N3       -21.4550   -1.6580    8.0470 N.ar   69  DT69       -0.1533
   1387  C4       -20.9010   -2.8620    8.4290 C.ar   69  DT69        0.2804
   1388  O4       -21.1140   -3.2940    9.5590 O.2    69  DT69       -0.2654
   1389  C5       -20.1040   -3.5020    7.4210 C.ar   69  DT69        0.0534
   1390  C6       -19.9550   -2.9190    6.2290 C.ar   69  DT69        0.0824
   1391  C7       -19.4580   -4.8170    7.7410 C.3    69  DT69        0.0377
   1392  P        -16.2610    0.8630    4.0550 P.3    70  DT70        0.2141
   1393  OP1      -15.4610    1.3450    2.9080 O.2    70  DT70       -0.5172
   1394  OP2      -15.7590   -0.2530    4.8850 O.3    70  DT70       -0.4373
   1395  O5'      -16.5780    2.1080    5.0080 O.3    70  DT70       -0.3114
   1396  C5'      -16.8610    3.3780    4.4330 C.3    70  DT70        0.1811
   1397  C4'      -18.0180    4.0390    5.1530 C.3    70  DT70        0.1746
   1398  O4'      -19.0090    3.0300    5.4630 O.3    70  DT70       -0.3327
   1399  C3'      -17.7070    4.6380    6.5150 C.3    70  DT70        0.1558
   1400  O3'      -17.0870    5.9110    6.3900 O.3    70  DT70       -0.3138
   1401  C2'      -19.1210    4.7540    7.0740 C.3    70  DT70        0.0866
   1402  C1'      -19.7190    3.4220    6.6240 C.3    70  DT70        0.2106
   1403  N1       -19.6320    2.4450    7.6520 N.ar   70  DT70       -0.2559
   1404  C2       -20.6400    2.3330    8.5910 C.ar   70  DT70        0.3545
   1405  O2       -21.5500    3.1370    8.6880 O.2    70  DT70       -0.2443
   1406  N3       -20.5430    1.2400    9.4190 N.ar   70  DT70       -0.1533
   1407  C4       -19.5620    0.2710    9.4030 C.ar   70  DT70        0.2804
   1408  O4       -19.6110   -0.6530   10.2110 O.2    70  DT70       -0.2654
   1409  C5       -18.5510    0.4580    8.4000 C.ar   70  DT70        0.0534
   1410  C6       -18.6210    1.5120    7.5820 C.ar   70  DT70        0.0824
   1411  C7       -17.4390   -0.5440    8.3020 C.3    70  DT70        0.0377
   1412  P        -16.0660    6.3120    7.4120 P.3    71  DA71        0.2141
   1413  OP1      -15.5820    7.6740    7.0620 O.2    71  DA71       -0.5172
   1414  OP2      -15.1260    5.1610    7.3790 O.3    71  DA71       -0.4373
   1415  O5'      -16.7600    6.3610    8.8350 O.3    71  DA71       -0.3114
   1416  C5'      -17.7370    7.3500    9.1010 C.3    71  DA71        0.1811
   1417  C4'      -18.1370    7.2700   10.5320 C.3    71  DA71        0.1746
   1418  O4'      -18.9370    6.0840   10.7320 O.3    71  DA71       -0.3327
   1419  C3'      -16.9480    7.0870   11.4550 C.3    71  DA71        0.1558
   1420  O3'      -16.3460    8.3240   11.7770 O.3    71  DA71       -0.3138
   1421  C2'      -17.5670    6.4120   12.6590 C.3    71  DA71        0.0865
   1422  C1'      -18.6310    5.5250   11.9980 C.3    71  DA71        0.2094
   1423  N9       -18.2450    4.1630   11.8200 N.ar   71  DA71       -0.2714
   1424  C8       -17.6720    3.6370   10.6920 C.ar   71  DA71        0.1815
   1425  N7       -17.2830    2.3910   10.8270 N.ar   71  DA71       -0.2193
   1426  C5       -17.6240    2.0780   12.1340 C.ar   71  DA71        0.1518
   1427  C6       -17.4760    0.9040   12.8940 C.ar   71  DA71        0.1919
   1428  N6       -16.9240   -0.2170   12.4240 N.pl3  71  DA71       -0.1054
   1429  N1       -17.9200    0.9240   14.1690 N.ar   71  DA71       -0.2040
   1430  C2       -18.4740    2.0480   14.6390 C.ar   71  DA71        0.2016
   1431  N3       -18.6680    3.2110   14.0210 N.ar   71  DA71       -0.2048
   1432  C4       -18.2150    3.1590   12.7580 C.ar   71  DA71        0.1691
   1433  P        -14.6270    8.4370   11.9240 P.3    72  DT72        0.2141
   1434  OP1      -13.8550    9.7060   11.9190 O.3    72  DT72       -0.4373
   1435  OP2      -14.4160    7.4490   10.8240 O.2    72  DT72       -0.5172
   1436  O5'      -14.4390    7.6910   13.3280 O.3    72  DT72       -0.3114
   1437  C5'      -14.9030    8.2920   14.5580 C.3    72  DT72        0.1811
   1438  C4'      -14.6980    7.3480   15.7260 C.3    72  DT72        0.1746
   1439  O4'      -15.6510    6.2490   15.6630 O.3    72  DT72       -0.3327
   1440  C3'      -13.3440    6.6650   15.7800 C.3    72  DT72        0.1558
   1441  O3'      -12.3040    7.4750   16.3080 O.3    72  DT72       -0.3138
   1442  C2'      -13.6330    5.4090   16.6000 C.3    72  DT72        0.0866
   1443  C1'      -15.0340    5.0460   16.1050 C.3    72  DT72        0.2106
   1444  N1       -14.8940    4.0580   14.9240 N.ar   72  DT72       -0.2559
   1445  C2       -14.7470    2.7190   15.2340 C.ar   72  DT72        0.3545
   1446  O2       -14.6760    2.3060   16.3780 O.2    72  DT72       -0.2443
   1447  N3       -14.6850    1.8750   14.1510 N.ar   72  DT72       -0.1533
   1448  C4       -14.7540    2.2280   12.8200 C.ar   72  DT72        0.2804
   1449  O4       -14.6850    1.3550   11.9580 O.2    72  DT72       -0.2654
   1450  C5       -14.9050    3.6360   12.5800 C.ar   72  DT72        0.0534
   1451  C6       -14.9680    4.4780   13.6140 C.ar   72  DT72        0.0824
   1452  C7       -14.9890    4.1210   11.1630 C.3    72  DT72        0.0377
   1453  P        -10.7100    7.2690   15.7600 P.3    73  DT73        0.2141
   1454  OP1       -9.8930    8.3130   16.4160 O.3    73  DT73       -0.4373
   1455  OP2      -10.5380    7.0090   14.2980 O.2    73  DT73       -0.5172
   1456  O5'      -10.4930    5.8850   16.5430 O.3    73  DT73       -0.3114
   1457  C5'      -10.3260    5.8420   17.9680 C.3    73  DT73        0.1811
   1458  C4'      -10.0070    4.4330   18.4300 C.3    73  DT73        0.1746
   1459  O4'      -11.1740    3.5800   18.2450 O.3    73  DT73       -0.3327
   1460  C3'       -8.8750    3.7190   17.6900 C.3    73  DT73        0.1558
   1461  O3'       -7.5810    4.1180   18.1710 O.3    73  DT73       -0.3138
   1462  C2'       -9.2380    2.2460   17.8910 C.3    73  DT73        0.0866
   1463  C1'      -10.7640    2.2970   17.8130 C.3    73  DT73        0.2106
   1464  N1       -11.1710    2.0450   16.4180 N.ar   73  DT73       -0.2559
   1465  C2       -11.5360    0.7620   16.0570 C.ar   73  DT73        0.3545
   1466  O2       -11.5360   -0.1730   16.8380 O.2    73  DT73       -0.2443
   1467  N3       -11.9030    0.6110   14.7420 N.ar   73  DT73       -0.1533
   1468  C4       -11.9400    1.5920   13.7730 C.ar   73  DT73        0.2804
   1469  O4       -12.2930    1.3030   12.6320 O.2    73  DT73       -0.2654
   1470  C5       -11.5460    2.8960   14.2250 C.ar   73  DT73        0.0534
   1471  C6       -11.1850    3.0710   15.4990 C.ar   73  DT73        0.0824
   1472  C7       -11.5530    4.0310   13.2440 C.3    73  DT73        0.0377
   1473  P         -5.9510    3.7760   17.1910 P.3    74  DC74        0.2141
   1474  OP1       -4.7590    4.2650   17.9150 O.3    74  DC74       -0.4373
   1475  OP2       -6.1660    4.1130   15.7650 O.2    74  DC74       -0.5172
   1476  O5'       -5.9320    2.1780   17.2210 O.3    74  DC74       -0.3114
   1477  C5'       -5.6650    1.4930   18.4350 C.3    74  DC74        0.1811
   1478  C4'       -5.5860    0.0060   18.2120 C.3    74  DC74        0.1746
   1479  O4'       -6.9090   -0.5070   17.9090 O.3    74  DC74       -0.3327
   1480  C3'       -4.7630   -0.4380   17.0120 C.3    74  DC74        0.1558
   1481  O3'       -3.3660   -0.4390   17.2220 O.3    74  DC74       -0.3138
   1482  C2'       -5.3160   -1.8220   16.7400 C.3    74  DC74        0.0866
   1483  C1'       -6.8060   -1.5760   16.9880 C.3    74  DC74        0.2106
   1484  N1        -7.5870   -1.1970   15.7410 N.ar   74  DC74       -0.2556
   1485  C2        -7.9910   -2.2650   14.9330 C.ar   74  DC74        0.3531
   1486  O2        -7.7510   -3.4250   15.3100 O.2    74  DC74       -0.2443
   1487  N3        -8.6290   -2.0050   13.7670 N.ar   74  DC74       -0.1739
   1488  C4        -8.8640   -0.7440   13.4020 C.ar   74  DC74        0.1759
   1489  N4        -9.4960   -0.5370   12.2440 N.pl3  74  DC74       -0.1070
   1490  C5        -8.4620    0.3520   14.2070 C.ar   74  DC74        0.0566
   1491  C6        -7.8330    0.0910   15.3570 C.ar   74  DC74        0.0849
   1492  P         -2.7940    0.1440   16.1840 P.3    75  DA75        0.2141
   1493  OP1       -1.4960    0.3870   16.8620 O.3    75  DA75       -0.4373
   1494  OP2       -3.3520    1.1820   15.2820 O.2    75  DA75       -0.5172
   1495  O5'       -2.7000   -1.2320   15.3820 O.3    75  DA75       -0.3114
   1496  C5'       -2.6840   -2.4740   16.0840 C.3    75  DA75        0.1811
   1497  C4'       -3.1230   -3.6040   15.1810 C.3    75  DA75        0.1746
   1498  O4'       -4.4900   -3.3930   14.7400 O.3    75  DA75       -0.3327
   1499  C3'       -2.3470   -3.7520   13.8870 C.3    75  DA75        0.1558
   1500  O3'       -1.1350   -4.4600   14.1040 O.3    75  DA75       -0.3138
   1501  C2'       -3.3200   -4.5460   13.0210 C.3    75  DA75        0.0865
   1502  C1'       -4.6660   -3.9550   13.4490 C.3    75  DA75        0.2094
   1503  N9        -5.1770   -2.8680   12.6260 N.ar   75  DA75       -0.2714
   1504  C8        -5.0940   -1.5160   12.8340 C.ar   75  DA75        0.1815
   1505  N7        -5.5730   -0.7980   11.8460 N.ar   75  DA75       -0.2193
   1506  C5        -5.9990   -1.7430   10.9260 C.ar   75  DA75        0.1518
   1507  C6        -6.6020   -1.6270    9.6610 C.ar   75  DA75        0.1919
   1508  N6        -6.8930   -0.4580    9.0850 N.pl3  75  DA75       -0.1054
   1509  N1        -6.9000   -2.7670    9.0020 N.ar   75  DA75       -0.2040
   1510  C2        -6.6090   -3.9380    9.5800 C.ar   75  DA75        0.2016
   1511  N3        -6.0440   -4.1740   10.7620 N.ar   75  DA75       -0.2048
   1512  C4        -5.7600   -3.0220   11.3920 C.ar   75  DA75        0.1691
   1513  P          0.0380   -4.4740   12.9310 P.3    76  DA76        0.2141
   1514  OP1        1.1460   -5.3520   13.3930 O.3    76  DA76       -0.4373
   1515  OP2        0.3470   -3.1070   12.4350 O.2    76  DA76       -0.5172
   1516  O5'       -0.7680   -5.2340   11.7810 O.3    76  DA76       -0.3114
   1517  C5'       -1.3570   -6.5040   12.0230 C.3    76  DA76        0.1811
   1518  C4'       -2.0710   -7.0090   10.7810 C.3    76  DA76        0.1746
   1519  O4'       -3.3130   -6.2680   10.5770 O.3    76  DA76       -0.3327
   1520  C3'       -1.3200   -6.8040    9.4770 C.3    76  DA76        0.1558
   1521  O3'       -0.3140   -7.7780    9.2620 O.3    76  DA76       -0.3138
   1522  C2'       -2.4440   -6.8650    8.4520 C.3    76  DA76        0.0865
   1523  C1'       -3.5620   -6.1180    9.1820 C.3    76  DA76        0.2094
   1524  N9        -3.5340   -4.6860    8.8520 N.ar   76  DA76       -0.2714
   1525  C8        -2.8750   -3.6660    9.4880 C.ar   76  DA76        0.1815
   1526  N7        -2.9670   -2.5110    8.8710 N.ar   76  DA76       -0.2193
   1527  C5        -3.7360   -2.7930    7.7530 C.ar   76  DA76        0.1518
   1528  C6        -4.1930   -1.9900    6.6930 C.ar   76  DA76        0.1919
   1529  N6        -3.9300   -0.6860    6.5860 N.pl3  76  DA76       -0.1054
   1530  N1        -4.9400   -2.5820    5.7360 N.ar   76  DA76       -0.2040
   1531  C2        -5.2050   -3.8890    5.8450 C.ar   76  DA76        0.2016
   1532  N3        -4.8320   -4.7460    6.7930 N.ar   76  DA76       -0.2048
   1533  C4        -4.0910   -4.1280    7.7270 C.ar   76  DA76        0.1691
   1534  P          0.9070   -7.4680    8.3790 P.3    77  DT77        0.2141
   1535  OP1        1.8210   -7.7250    9.5180 O.3    77  DT77       -0.4373
   1536  OP2        0.9860   -6.1780    7.6490 O.2    77  DT77       -0.5172
   1537  O5'        1.0480   -8.6500    7.3140 O.3    77  DT77       -0.3114
   1538  C5'        1.2830   -8.2840    5.9680 C.3    77  DT77        0.1811
   1539  C4'        0.0300   -8.2520    5.1050 C.3    77  DT77        0.1746
   1540  O4'       -1.0850   -7.5140    5.6740 O.3    77  DT77       -0.3327
   1541  C3'        0.2730   -7.4930    3.8180 C.3    77  DT77        0.1558
   1542  O3'        1.0920   -8.2680    2.9990 O.3    77  DT77       -0.3138
   1543  C2'       -1.1410   -7.2700    3.3070 C.3    77  DT77        0.0866
   1544  C1'       -1.7870   -6.8500    4.6270 C.3    77  DT77        0.2106
   1545  N1        -1.3010   -5.1690    4.5960 N.ar   77  DT77       -0.2559
   1546  C2        -1.8490   -4.2320    3.7400 C.ar   77  DT77        0.3545
   1547  O2        -2.3480   -4.5240    2.6670 O.2    77  DT77       -0.2443
   1548  N3        -1.7920   -2.9340    4.1860 N.ar   77  DT77       -0.1533
   1549  C4        -1.2530   -2.4890    5.3750 C.ar   77  DT77        0.2804
   1550  O4        -1.2760   -1.2890    5.6380 O.2    77  DT77       -0.2654
   1551  C5        -0.7030   -3.5210    6.2080 C.ar   77  DT77        0.0534
   1552  C6        -0.7460   -4.7920    5.7990 C.ar   77  DT77        0.0824
   1553  C7        -0.0920   -3.1370    7.5230 C.3    77  DT77        0.0377
   1554  P          2.9290   -7.9990    2.2940 P.3    78  DT78        0.2141
   1555  OP1        3.0840   -9.2760    1.5540 O.2    78  DT78       -0.5172
   1556  OP2        4.1350   -7.2590    2.7690 O.3    78  DT78       -0.4373
   1557  O5'        2.0650   -7.0070    1.4040 O.3    78  DT78       -0.3114
   1558  C5'        0.8220   -7.4190    0.8420 C.3    78  DT78        0.1812
   1559  C4'        0.3040   -6.3470   -0.0800 C.3    78  DT78        0.1775
   1560  O4'       -0.2150   -5.2380    0.7010 O.3    78  DT78       -0.3326
   1561  C3'        1.3820   -5.7150   -0.9440 C.3    78  DT78        0.1859
   1562  O3'        1.6480   -6.4950   -2.0960 O.3    78  DT78       -0.2203
   1563  C2'        0.7730   -4.3620   -1.2800 C.3    78  DT78        0.0895
   1564  C1'        0.0680   -4.0140    0.0350 C.3    78  DT78        0.2107
   1565  N1        -0.0700   -3.1750    1.2050 N.ar   78  DT78       -0.2559
   1566  C2        -0.3740   -1.8480    0.9690 C.ar   78  DT78        0.3545
   1567  O2        -0.9920   -1.4710   -0.0110 O.2    78  DT78       -0.2443
   1568  N3         0.0750   -0.9710    1.9270 N.ar   78  DT78       -0.1533
   1569  C4         0.7810   -1.2810    3.0700 C.ar   78  DT78        0.2804
   1570  O4         1.1150   -0.3810    3.8380 O.2    78  DT78       -0.2654
   1571  C5         1.0580   -2.6790    3.2430 C.ar   78  DT78        0.0534
   1572  C6         0.6340   -3.5540    2.3270 C.ar   78  DT78        0.0824
   1573  C7         1.8220   -3.1180    4.4570 C.3    78  DT78        0.0377
@<TRIPOS>BOND
     1   481   480    1
     2   479   480   ar
     3   479   477   ar
     4   480   482   ar
     5   445   443    2
     6   459   458    2
     7   478   477    2
     8   466   465    2
     9   477   476   ar
    10   467   465    1
    11   482   483   ar
    12   458   460   ar
    13   458   457   ar
    14   465   468    1
    15   465   451    1
    16   444   443    1
    17   443   446    1
    18   443   432    1
    19   456   457   ar
    20   456   455   ar
    21   471   475    1
    22   471   470    1
    23   468   469    1
    24   476   483   ar
    25   476   475    1
    26   460   461   ar
    27   457   464   ar
    28   469   470    1
    29   475   474    1
    30   425   424    2
    31   455   454   ar
    32   446   447    1
    33   470   472    1
    34   451   450    1
    35   432   431    1
    36   461   462    1
    37   461   463   ar
    38   464   454   ar
    39   464   463   ar
    40   450   452    1
    41   450   448    1
    42   454   453    1
    43   431   429    1
    44   431   433    1
    45   428   427    1
    46   428   429    1
    47   474   472    1
    48   452   453    1
    49   440   439    1
    50   424   426    1
    51   424   427    1
    52   424   412    1
    53   447   448    1
    54   441   439   ar
    55   441   442   ar
    56   472   473    1
    57   439   438   ar
    58   448   449    1
    59   453   449    1
    60   429   430    1
    61   433   434    1
    62   442   435   ar
    63   438   436   ar
    64   412   411    1
    65   435   436   ar
    66   435   434    1
    67   405   404    2
    68   436   437    2
    69   430   434    1
    70   406   404    1
    71   411   413    1
    72   411   409    1
    73   407   404    1
    74   407   408    1
    75   404   391    1
    76   385   383    2
    77   408   409    1
    78   423   421    1
    79   384   383    1
    80   413   414    1
    81   363   362    2
    82   409   410    1
    83   421   422   ar
    84   421   419   ar
    85   500   499    1
    86   484   487    1
    87   484   486    2
    88   484   485    2
    89   420   419    2
    90   497   496   ar
    91   497   498   ar
    92   422   415   ar
    93   419   418   ar
    94   343   342    2
    95   383   386    1
    96   383   370    1
    97   496   495   ar
    98   487   488    1
    99   499   498   ar
   100   499   501   ar
   101   498   504   ar
   102   415   416   ar
   103   415   414    1
   104   418   416   ar
   105   490   494    1
   106   490   489    1
   107   364   362    1
   108   391   390    1
   109   416   417    2
   110   410   414    1
   111   495   494    1
   112   495   504   ar
   113   501   502   ar
   114   362   365    1
   115   362   350    1
   116   494   493    1
   117   504   503   ar
   118   323   322    2
   119   386   387    1
   120   502   503   ar
   121   344   342    1
   122   390   392    1
   123   390   388    1
   124   342   345    1
   125   342   330    1
   126   399   398    1
   127   365   366    1
   128   489   488    1
   129   489   491    1
   130   370   369    1
   131   396   395   ar
   132   396   397   ar
   133   350   349    1
   134   345   346    1
   135   387   388    1
   136   395   394   ar
   137   398   397   ar
   138   398   400   ar
   139   397   403   ar
   140   392   393    1
   141   366   367    1
   142   369   367    1
   143   369   371    1
   144   493   491    1
   145   388   389    1
   146   330   329    1
   147   322   324    1
   148   322   309    1
   149   322   325    1
   150   400   401   ar
   151   394   403   ar
   152   394   393    1
   153   403   402   ar
   154   346   347    1
   155   491   492    1
   156   349   347    1
   157   349   351    1
   158   367   368    1
   159   309   308    1
   160   401   402   ar
   161   393   389    1
   162   521   520    2
   163   325   326    1
   164   326   327    1
   165   371   372    1
   166   374   375   ar
   167   374   373   ar
   168   520   519   ar
   169   520   522   ar
   170   347   348    1
   171   329   327    1
   172   329   331    1
   173   524   522    1
   174   375   376   ar
   175   519   517   ar
   176   522   523   ar
   177   368   372    1
   178   492   505    1
   179   327   328    1
   180   351   352    1
   181   373   372    1
   182   373   382   ar
   183   517   518    2
   184   517   516   ar
   185   361   359    1
   186   523   516   ar
   187   516   515    1
   188   376   382   ar
   189   376   377   ar
   190   308   306    1
   191   308   310    1
   192   348   352    1
   193   382   381   ar
   194   360   359   ar
   195   360   353   ar
   196   511   515    1
   197   511   510    1
   198   305   306    1
   199   305   304    1
   200   378   377    1
   201   359   357   ar
   202   515   514    1
   203   331   332    1
   204   306   307    1
   205   377   379   ar
   206   507   505    2
   207   352   353    1
   208   302   301    2
   209   505   508    1
   210   505   506    1
   211   353   354   ar
   212   328   332    1
   213   381   380   ar
   214   310   311    1
   215   357   358    2
   216   357   356   ar
   217   379   380   ar
   218   508   509    1
   219   332   333    1
   220   304   301    1
   221   510   509    1
   222   510   512    1
   223   354   356   ar
   224   354   355    2
   225   341   339    1
   226   340   333   ar
   227   340   339   ar
   228   541   540    2
   229   514   512    1
   230   307   311    1
   231   301   303    1
   232   301   288    1
   233   333   334   ar
   234   339   337   ar
   235   540   539   ar
   236   540   542   ar
   237   311   312    1
   238   539   537   ar
   239   512   513    1
   240   538   537    2
   241   537   536   ar
   242   542   544    1
   243   542   543   ar
   244   334   335    2
   245   334   336   ar
   246   337   336   ar
   247   337   338    2
   248   288   287    1
   249   312   313   ar
   250   312   321   ar
   251   562   563   ar
   252   562   560   ar
   253   313   314   ar
   254   536   543   ar
   255   536   535    1
   256   561   560    1
   257   563   564   ar
   258   513   525    1
   259   560   559   ar
   260   535   531    1
   261   535   534    1
   262   531   530    1
   263   321   320    1
   264   321   315   ar
   265   564   565   ar
   266   320   319    1
   267   314   315   ar
   268   287   289    1
   269   287   285    1
   270   559   565   ar
   271   559   558   ar
   272   527   525    2
   273   289   290    1
   274   565   556   ar
   275   315   316    1
   276   525   528    1
   277   525   526    1
   278   281   280    2
   279   558   557   ar
   280   528   529    1
   281   319   318    2
   282   530   529    1
   283   530   532    1
   284   285   284    1
   285   285   286    1
   286   534   532    1
   287   556   557   ar
   288   556   555    1
   289   284   283    1
   290   582   581    1
   291   316   318    1
   292   316   317    1
   293   316   297    1
   294   580   581   ar
   295   580   578   ar
   296   532   533    1
   297   283   280    1
   298   555   551    1
   299   555   554    1
   300   290   286    1
   301   290   291    1
   302   280   282    1
   303   280   269    1
   304   581   583   ar
   305   551   550    1
   306   579   578    2
   307   299   298    2
   308   299   300    1
   309   617   616    2
   310   578   577   ar
   311   317   296    1
   312   291   300    1
   313   291   292    1
   314   298   297    1
   315   300   294    1
   316   598   597    2
   317   583   584   ar
   318   637   636    2
   319   292   293    2
   320   633   634    1
   321   633   631    1
   322   533   545    1
   323   634   630    1
   324   634   635    1
   325   297   295    1
   326   294   293    1
   327   294   295    2
   328   554   552    1
   329   599   597   ar
   330   599   600   ar
   331   577   584   ar
   332   577   576    1
   333   616   618   ar
   334   616   615   ar
   335   597   596   ar
   336   295   296    1
   337   548   549    1
   338   548   545    1
   339   269   268    1
   340   550   549    1
   341   550   552    1
   342   649   648    1
   343   649   650    1
   344   649   651    1
   345   547   545    2
   346   648   647    1
   347   630   629    1
   348   650   654    1
   349   614   613    1
   350   614   615    1
   351   614   610    1
   352   618   619   ar
   353   601   600    1
   354   576   572    1
   355   576   575    1
   356   636   635   ar
   357   636   638   ar
   358   600   602   ar
   359   629   631    1
   360   629   628    1
   361   632   631    1
   362   632   644    1
   363   613   611    1
   364   552   553    1
   365   545   546    1
   366   615   622   ar
   367   652   651    1
   368   652   665    1
   369   635   642   ar
   370   596   595    1
   371   596   603   ar
   372   270   268    1
   373   270   271    1
   374   610   609    1
   375   654   653    1
   376   654   655    1
   377   268   266    1
   378   666   665    2
   379   572   571    1
   380   595   591    1
   381   595   594    1
   382   651   653    1
   383   638   639   ar
   384   619   620    2
   385   619   621   ar
   386   602   603   ar
   387   647   644    1
   388   575   573    1
   389   645   644    2
   390   609   611    1
   391   609   608    1
   392   591   590    1
   393   622   621   ar
   394   665   667    1
   395   665   668    1
   396   274   273    2
   397   627   628    1
   398   627   624    1
   399   642   641   ar
   400   644   646    1
   401   611   612    1
   402   594   592    1
   403   553   566    1
   404   655   656   ar
   405   655   664   ar
   406   275   273   ar
   407   275   276   ar
   408   273   272   ar
   409   621   623    1
   410   612   624    1
   411   271   272    1
   412   271   267    1
   413   639   641   ar
   414   639   640    2
   415   669   668    1
   416   669   670    1
   417   266   265    1
   418   266   267    1
   419   277   276    1
   420   571   573    1
   421   571   570    1
   422   276   278   ar
   423   272   279   ar
   424   656   657   ar
   425   568   566    2
   426   641   643    1
   427   573   574    1
   428   278   279   ar
   429   624   626    2
   430   624   625    1
   431   663   664   ar
   432   663   662   ar
   433   264   265    1
   434   264   261    1
   435   664   658   ar
   436   608   607    1
   437   566   569    1
   438   566   567    1
   439   590   592    1
   440   590   589    1
   441   569   570    1
   442    84    83    1
   443    84    85    1
   444    84    86    1
   445   102   103    1
   446   102   101    1
   447   592   593    1
   448   263   261    2
   449    83    82    1
   450   262   261    1
   451   670   671    1
   452   670   672    1
   453   671   675    1
   454   657   658   ar
   455   607   604    1
   456   261   249    1
   457   103   104    1
   458   103   105    1
   459    85    89    1
   460    87    86    1
   461    87    98    1
   462    99    98    2
   463    88    89    1
   464    88    86    1
   465   658   659   ar
   466   574   585    1
   467   662   661   ar
   468   589   588    1
   469    89    90    1
   470   588   585    1
   471   593   604    1
   472   106   105    1
   473   106   119    1
   474   104   108    1
   475    98   101    1
   476    98   100    1
   477   684   682    1
   478   122   119    1
   479   122   123    1
   480    68    79    1
   481    68    67    1
   482    82    79    1
   483    80    79    2
   484   105   107    1
   485   672   673    1
   486   672   674    1
   487   585   587    2
   488   585   586    1
   489   683   682   ar
   490   683   676   ar
   491   604   606    2
   492   604   605    1
   493    69    67    1
   494    69    70    1
   495   675   676    1
   496   675   674    1
   497   661   659   ar
   498   673   685    1
   499   249   248    1
   500   659   660    1
   501   687   685    2
   502   686   685    1
   503    79    81    1
   504   119   120    2
   505   119   121    1
   506   685   688    1
   507   254   253    2
   508   108   107    1
   509   108   109    1
   510    65    67    1
   511    65    66    1
   512    65    64    1
   513   682   680   ar
   514    92    91    2
   515   123   124    1
   516   250   248    1
   517   250   251    1
   518    70    66    1
   519    70    71    1
   520    90    91   ar
   521    90    97   ar
   522   676   677   ar
   523   248   246    1
   524   253   255   ar
   525   253   252   ar
   526   124   125    1
   527   124   126    1
   528    73    72    2
   529   255   256   ar
   530    91    93   ar
   531   142   141    2
   532    64    63    1
   533    97    96   ar
   534   252   251    1
   535   252   259   ar
   536   125   129    1
   537   680   681    2
   538   680   679   ar
   539   127   141    1
   540   127   126    1
   541   257   256    1
   542   257   235    1
   543   256   258   ar
   544   109   110   ar
   545   109   118   ar
   546   251   247    1
   547   688   689    1
   548   677   679   ar
   549   677   678    2
   550   141   143    1
   551   141   144    1
   552    71    72   ar
   553    71    78   ar
   554   689   690    1
   555   110   111   ar
   556    72    74   ar
   557   126   128    1
   558   259   258   ar
   559   258   260    1
   560   246   247    1
   561   246   245    1
   562    93    94   ar
   563    63    60    1
   564   129   128    1
   565   129   130    1
   566    96    94   ar
   567   118   117   ar
   568   118   112   ar
   569   117   116   ar
   570    61    60    2
   571   234   233    2
   572   237   236    2
   573   235   233   ar
   574   235   236   ar
   575    78    77   ar
   576   245   244    1
   577    94    95    1
   578   691   690    1
   579   691   695    1
   580   111   112   ar
   581    74    75   ar
   582   690   692    1
   583   144   145    1
   584  1110  1109    2
   585   697   698   ar
   586   697   696   ar
   587   145   146    1
   588   698   699   ar
   589   233   232   ar
   590   131   130   ar
   591   131   132   ar
   592   236   238   ar
   593    60    47    1
   594    60    62    1
   595   112   113   ar
   596    47    46    1
   597   130   140   ar
   598   216   215    1
   599   244   241    1
   600   116   115   ar
   601  1130  1129    2
   602    77    75   ar
   603   851   852    1
   604   851   850    1
   605   851   853    1
   606    75    76    1
   607  1098  1109    1
   608  1098  1097    1
   609   217   215   ar
   610   217   218   ar
   611   852   856    1
   612   696   695    1
   613   696   705   ar
   614   695   694    1
   615   692   693    1
   616   692   694    1
   617  1113  1112    1
   618  1113  1114    1
   619   132   133   ar
   620   699   705   ar
   621   699   700   ar
   622   850   849    1
   623   215   214   ar
   624  1109  1112    1
   625  1109  1111    1
   626   232   239   ar
   627   232   231    1
   628   708   706    2
   629   854   853    1
   630   854   867    1
   631   238   239   ar
   632   238   240    1
   633    48    46    1
   634    48    49    1
   635  1094  1095    1
   636  1094  1093    1
   637   701   700    1
   638  1562  1561    1
   639   113   115   ar
   640   113   114    1
   641   230   231    1
   642   230   228    1
   643   146   147    1
   644   146   148    1
   645   871   872    1
   646   871   870    1
   647   856   855    1
   648   856   857    1
   649    46    44    1
   650   693   706    1
   651   855   853    1
   652   140   133   ar
   653   140   139   ar
   654   868   867    2
   655  1117  1129    1
   656  1117  1116    1
   657   705   704   ar
   658   218   219   ar
   659   700   702   ar
   660   243   241    2
   661  1131  1129    1
   662   241   242    1
   663   241   229    1
   664   872   873    1
   665   872   874    1
   666   162   160    2
   667  1114  1116    1
   668  1114  1115    1
   669  1095  1097    1
   670  1095  1096    1
   671  1129  1132    1
   672   231   227    1
   673   839   838    2
   674  1097  1099    1
   675   835   836    1
   676   835   833    1
   677   147   151    1
   678    44    45    1
   679    44    43    1
   680  1091  1090    2
   681   706   707    1
   682   706   709    1
   683   196   195    2
   684   149   148    1
   685   149   160    1
   686   133   134   ar
   687  1563  1561    1
   688  1563  1564    1
   689   161   160    1
   690   148   150    1
   691   160   163    1
   692   139   137   ar
   693   228   229    1
   694   228   226    1
   695   873   877    1
   696  1093  1090    1
   697   867   870    1
   698   867   869    1
   699   836   832    1
   700   836   837    1
   701   849   846    1
   702   214   213   ar
   703   214   220   ar
   704  1561  1559    1
   705    49    45    1
   706    49    50    1
   707   159   158   ar
   708   159   152   ar
   709  1116  1118    1
   710   834   833    1
   711   834   846    1
   712  1099  1100    1
   713   875   874    1
   714   875   887    1
   715   847   846    2
   716   158   156   ar
   717   857   866   ar
   718   857   858   ar
   719   704   703   ar
   720   702   703   ar
   721    43    42    1
   722   832   831    1
   723  1115  1119    1
   724   199   197    1
   725   219   220   ar
   726   833   831    1
   727   865   866   ar
   728   865   864   ar
   729   874   876    1
   730   888   887    2
   731   831   830    1
   732    58    57    1
   733    58    59    2
   734  1133  1132    1
   735  1133  1134    1
   736   838   837   ar
   737   838   840   ar
   738  1090  1078    1
   739  1090  1092    1
   740   722   721    1
   741   213   212   ar
   742   709   710    1
   743   195   197   ar
   744   195   194   ar
   745   227   226    1
   746   220   211   ar
   747   179   177    1
   748   819   818    2
   749  1096  1100    1
   750   151   152    1
   751   151   150    1
   752   846   848    1
   753   723   721   ar
   754   723   724   ar
   755  1559  1560    1
   756  1559  1558    1
   757   877   876    1
   758   877   878    1
   759   866   860   ar
   760  1567  1566    2
   761  1564  1560    1
   762  1564  1565    1
   763   876    57    1
   764   837   844   ar
   765   134   135    2
   766   134   136   ar
   767    57    56    1
   768   152   153   ar
   769   137   136   ar
   770   137   138    1
   771  1078  1077    1
   772   858   859   ar
   773   226   225    1
   774  1100  1101    1
   775   163   164    1
   776    50    59   ar
   777    50    51   ar
   778  1118  1119    1
   779   721   720   ar
   780   197   198   ar
   781    59    53   ar
   782   864   863   ar
   783   887   890    1
   784   887   889    1
   785   182   180    2
   786    42    39    1
   787   724   717   ar
   788   156   157    1
   789   156   155   ar
   790   194   192   ar
   791   710   711    1
   792  1119  1120    1
   793   840   841   ar
   794   830   829    1
   795  1558  1557    1
   796   212   211   ar
   797  1134  1135    1
   798  1134  1136    1
   799    40    39    2
   800   818   820   ar
   801   818   817   ar
   802  1566  1565   ar
   803  1566  1568   ar
   804   820   821   ar
   805   211   210    1
   806   164   165    1
   807   890   891    1
   808   225   224    1
   809  1565  1572   ar
   810   860   859   ar
   811   860   861   ar
   812    56    54    1
   813    56   880    1
   814   878   885   ar
   815   878   879   ar
   816   720   718   ar
   817   223   221    2
   818   177   178   ar
   819   177   175   ar
   820   885   884   ar
   821    51    52   ar
   822   844   843   ar
   823  1557  1554    1
   824  1127  1120   ar
   825  1127  1126   ar
   826   153   155   ar
   827   153   154    2
   828  1135  1139    1
   829  1077  1079    1
   830  1077  1075    1
   831  1079  1080    1
   832  1101  1108   ar
   833  1101  1102   ar
   834  1555  1554    2
   835    39    27    1
   836    39    41    1
   837   717   718   ar
   838   717   716    1
   839   198   191   ar
   840   712   711    1
   841   712   716    1
   842   891   892    1
   843    53    54    2
   844    53    52   ar
   845   863   861   ar
   846  1075  1074    1
   847  1075  1076    1
   848  1120  1121   ar
   849   176   175    2
   850  1103  1102    2
   851   815   816    1
   852   815   813    1
   853   178   171   ar
   854  1568  1569   ar
   855   711   713    1
   856  1152  1151    2
   857    27    26    1
   858   180   181    1
   859   180   168    1
   860   180   183    1
   861   192   191   ar
   862   192   193    2
   863  1137  1136    1
   864  1137  1151    1
   865   718   719    2
   866   841   843   ar
   867   841   842    2
   868   829   826    1
   869   822   821    2
   870  1128  1126    1
   871  1153  1151    1
   872    54    55    1
   873  1136  1138    1
   874  1108  1107   ar
   875   861   862    1
   876   202   200    2
   877   821   823   ar
   878   175   174   ar
   879   817   816    1
   880   817   824   ar
   881  1074  1073    1
   882   224   221    1
   883   880   879    1
   884   741   740    1
   885   210   209    1
   886   210   206    1
   887   816   812    1
   888   879   881   ar
   889  1554  1556    1
   890  1554  1542    1
   891  1151  1154    1
   892  1572  1571   ar
   893   209   207    1
   894  1102  1104   ar
   895   843   845    1
   896  1126  1124   ar
   897   191   190    1
   898   165   167    1
   899   165   166    1
   900   884   886    1
   901   884   882   ar
   902   716   715    1
   903   168   167    1
   904   892   893    1
   905   892   894    1
   906   167   169    1
   907   221   222    1
   908   221   208    1
   909  1080  1076    1
   910  1080  1081    1
   911  1141  1142   ar
   912  1141  1140   ar
   913   713   715    1
   914   713   714    1
   915  1547  1546    2
   916   183   184    1
   917   893   897    1
   918   727   725    2
   919  1139  1138    1
   920  1139  1140    1
   921  1393  1392    2
   922   207   208    1
   923   207   205    1
   924  1376  1377    1
   925  1376  1375    1
   926  1542  1541    1
   927  1121  1122    2
   928  1121  1123   ar
   929  1569  1571   ar
   930  1569  1570    2
   931   166   170    1
   932  1377  1378    1
   933  1377  1379    1
   934  1350  1349    1
   935   814   813    1
   936   814   826    1
   937   813   811    1
   938  1571  1573    1
   939   203   200    1
   940   203   204    1
   941   171   170    1
   942   171   172   ar
   943    26    28    1
   944    26    24    1
   945   206   205    1
   946   742   740   ar
   947   742   743   ar
   948  1543  1541    1
   949  1543  1544    1
   950   740   739   ar
   951   824   823   ar
   952  1142  1143   ar
   953  1107  1105   ar
   954   823   825    1
   955    28    29    1
   956   200   201    1
   957   200   188    1
   958   881   882   ar
   959  1380  1379    1
   960  1380  1392    1
   961  1140  1150   ar
   962  1083  1082    2
   963   826   827    2
   964   826   828    1
   965  1362  1363    1
   966  1362  1360    1
   967   714   725    1
   968  1073  1070    1
   969   174   172   ar
   970   800   799    2
   971   812   811    1
   972  1361  1360    1
   973  1361  1372    1
   974  1071  1070    2
   975   882   883    2
   976  1104  1105   ar
   977   906   904    1
   978   760   759    1
   979   801   799   ar
   980   801   802   ar
   981  1378  1382    1
   982  1373  1372    2
   983   187   189    1
   984   187   188    1
   985   187   185    1
   986  1546  1548   ar
   987  1546  1545   ar
   988  1363  1359    1
   989  1363  1364    1
   990  1124  1123   ar
   991  1124  1125    2
   992  1081  1082   ar
   993  1081  1088   ar
   994    24    23    1
   995    24    25    1
   996   190   189    1
   997   190   186    1
   998  1541  1539    1
   999   781   780    2
  1000  1154  1155    1
  1001   803   802    1
  1002   170   169    1
  1003   908   907    2
  1004   205   204    1
  1005  1358  1359    1
  1006  1358  1360    1
  1007  1358  1357    1
  1008   894   895    1
  1009   894   896    1
  1010   895   907    1
  1011   184   185    1
  1012  1067  1066    1
  1013  1379  1381    1
  1014  1392  1394    1
  1015  1392  1395    1
  1016   905   904   ar
  1017   905   898   ar
  1018   725   726    1
  1019   725   728    1
  1020   811   810    1
  1021   172   173    2
  1022  1082  1084   ar
  1023   897   896    1
  1024   897   898    1
  1025  1105  1106    1
  1026   186   185    1
  1027  1366  1365    2
  1028  1548  1549   ar
  1029   799   798   ar
  1030   782   780   ar
  1031   782   783   ar
  1032  1375  1372    1
  1033    23    22    1
  1034  1381  1382    1
  1035   739   737   ar
  1036   743   736   ar
  1037  1070  1056    1
  1038  1070  1072    1
  1039  1349  1351   ar
  1040  1349  1348   ar
  1041  1396  1395    1
  1042  1396  1397    1
  1043  1155  1156    1
  1044   802   804   ar
  1045  1382  1383    1
  1046   784   783    1
  1047   904   902   ar
  1048  1372  1374    1
  1049  1088  1087   ar
  1050  1545  1544    1
  1051  1545  1552   ar
  1052  1544  1540    1
  1053    29    25    1
  1054    29    30    1
  1055  1143  1150   ar
  1056  1143  1144   ar
  1057   780   779   ar
  1058   907   909    1
  1059   907   910    1
  1060  1150  1149   ar
  1061   898   899   ar
  1062  1351  1352   ar
  1063  1364  1365   ar
  1064  1364  1371   ar
  1065   759   761   ar
  1066   759   758   ar
  1067  1357  1356    1
  1068   761   762   ar
  1069  1057  1058    1
  1070  1057  1055    1
  1071  1066  1068   ar
  1072  1066  1065   ar
  1073  1365  1367   ar
  1074   728   729    1
  1075   783   785   ar
  1076  1539  1540    1
  1077  1539  1538    1
  1078    20    19    2
  1079  1068  1069   ar
  1080  1397  1398    1
  1081  1397  1399    1
  1082  1056  1055    1
  1083  1348  1346   ar
  1084  1172  1170    1
  1085    32    31    2
  1086    22    19    1
  1087  1549  1550    2
  1088  1549  1551   ar
  1089  1084  1085   ar
  1090  1207  1206    1
  1091  1398  1402    1
  1092   737   736   ar
  1093   737   738    2
  1094   736   735    1
  1095  1226  1225    1
  1096   810   809    1
  1097   798   797    1
  1098   798   805   ar
  1099  1530  1531   ar
  1100  1530  1528   ar
  1101   902   903    2
  1102   902   901   ar
  1103  1371  1370   ar
  1104  1168  1169   ar
  1105  1168  1166   ar
  1106  1087  1085   ar
  1107  1087  1089    1
  1108  1552  1551   ar
  1109    30    31   ar
  1110    30    37   ar
  1111  1149  1147   ar
  1112  1531  1532   ar
  1113   804   805   ar
  1114  1144  1145    2
  1115  1144  1146   ar
  1116  1058  1059    1
  1117  1058  1054    1
  1118  1065  1063   ar
  1119  1383  1390   ar
  1120  1383  1384   ar
  1121  1055  1053    1
  1122  1156  1157    1
  1123  1156  1158    1
  1124  1169  1162   ar
  1125  1538  1537    1
  1126    31    33   ar
  1127  1340  1341    1
  1128  1340  1338    1
  1129   809   806    1
  1130   758   757   ar
  1131   758   764   ar
  1132   899   901   ar
  1133   899   900    2
  1134   796   797    1
  1135   796   794    1
  1136   779   786   ar
  1137   779   778   ar
  1138  1367  1368   ar
  1139   910   911    1
  1140    19    21    1
  1141    19     6    1
  1142   762   763   ar
  1143  1352  1342   ar
  1144  1352  1345   ar
  1145   797   793    1
  1146  1170  1171    2
  1147  1551  1553    1
  1148  1069  1059   ar
  1149  1069  1062   ar
  1150  1390  1389   ar
  1151  1327  1328   ar
  1152  1327  1325   ar
  1153  1356  1353    1
  1154  1085  1086    2
  1155   757   756   ar
  1156   911   912    1
  1157  1157  1161    1
  1158  1328  1329   ar
  1159  1400  1399    1
  1160  1400  1412    1
  1161   785   786   ar
  1162   729   730    1
  1163  1341  1342    1
  1164  1341  1337    1
  1165   731   735    1
  1166   731   730    1
  1167  1399  1401    1
  1168  1053  1054    1
  1169  1053  1052    1
  1170    16    17   ar
  1171    16    15   ar
  1172  1529  1528    1
  1173  1346  1345   ar
  1174  1346  1347    2
  1175  1385  1384    2
  1176  1059  1060   ar
  1177  1402  1401    1
  1178  1402  1403    1
  1179  1158  1159    1
  1180  1158  1160    1
  1181    37    36   ar
  1182  1528  1527   ar
  1183  1206  1208   ar
  1184  1206  1205   ar
  1185   735   734    1
  1186  1159  1173    1
  1187  1532  1533   ar
  1188  1225  1227   ar
  1189  1225  1224   ar
  1190  1167  1166    1
  1191  1384  1386   ar
  1192   786   776   ar
  1193  1370  1368   ar
  1194  1342  1343   ar
  1195   778   777   ar
  1196  1166  1165   ar
  1197  1147  1146   ar
  1198  1147  1148    1
  1199    17    18   ar
  1200  1063  1062   ar
  1201  1063  1064    2
  1202  1368  1369    1
  1203  1227  1228   ar
  1204  1339  1338    1
  1205  1339  1353    1
  1206  1413  1412    2
  1207  1345  1344   ar
  1208    33    34   ar
  1209    15    13   ar
  1210  1208  1209   ar
  1211  1062  1061   ar
  1212  1162  1161    1
  1213  1162  1163   ar
  1214   764   763   ar
  1215   764   755   ar
  1216     6     5    1
  1217   730   732    1
  1218  1326  1325    1
  1219     7     5    1
  1220     7     8    1
  1221  1537  1534    1
  1222  1338  1336    1
  1223  1325  1324   ar
  1224  1414  1412    1
  1225   794   795    1
  1226   794   792    1
  1227  1329  1330   ar
  1228  1412  1415    1
  1229  1389  1391    1
  1230  1389  1387   ar
  1231   734   732    1
  1232  1161  1160    1
  1233   808   806    2
  1234  1353  1354    2
  1235  1353  1355    1
  1236   806   795    1
  1237   806   807    1
  1238   793   792    1
  1239  1337  1336    1
  1240   756   755   ar
  1241  1205  1203   ar
  1242  1410  1403   ar
  1243  1410  1409   ar
  1244  1173  1174    1
  1245  1536  1534    2
  1246  1403  1404   ar
  1247   912   913    1
  1248   912   914    1
  1249  1533  1527   ar
  1250  1533  1524   ar
  1251    36    34   ar
  1252    36    38    1
  1253  1527  1526   ar
  1254  1060  1061   ar
  1255   732   733    1
  1256   913   917    1
  1257  1052  1051    1
  1258   924   925   ar
  1259   924   922   ar
  1260  1336  1335    1
  1261  1183  1182   ar
  1262  1183  1184   ar
  1263   925   918   ar
  1264  1186  1185    1
  1265  1224  1223   ar
  1266  1224  1230   ar
  1267  1193  1191    2
  1268     5     3    1
  1269    34    35    2
  1270  1223  1222   ar
  1271  1386  1387   ar
  1272    18    12   ar
  1273    18     9   ar
  1274   777   776   ar
  1275  1165  1163   ar
  1276   776   775    1
  1277   755   754    1
  1278  1343  1344   ar
  1279    13    12   ar
  1280    13    14    1
  1281  1411  1409    1
  1282  1228  1229   ar
  1283   746   744    2
  1284  1163  1164    2
  1285   792   791    1
  1286  1534  1521    1
  1287  1534  1535    1
  1288  1409  1407   ar
  1289  1182  1181   ar
  1290  1387  1388    2
  1291  1522  1523    1
  1292  1522  1520    1
  1293  1209  1202   ar
  1294     8     9    1
  1295     8     4    1
  1296  1330  1324   ar
  1297  1330  1321   ar
  1298  1404  1405    2
  1299  1404  1406   ar
  1300  1324  1323   ar
  1301   914   915    1
  1302   914   916    1
  1303  1174  1175    1
  1304  1051  1037    1
  1305  1042  1041    2
  1306    12    11   ar
  1307   923   922    1
  1308  1415  1416    1
  1309     9    10   ar
  1310  1524  1523    1
  1311  1524  1525   ar
  1312   922   921   ar
  1313  1526  1525   ar
  1314  1184  1185   ar
  1315  1184  1190   ar
  1316  1203  1202   ar
  1317  1203  1204    2
  1318  1307  1306    1
  1319   918   917    1
  1320   918   919   ar
  1321  1049  1048    1
  1322  1185  1187   ar
  1323  1509  1510   ar
  1324  1509  1507   ar
  1325   915   926    1
  1326  1508  1507    1
  1327   917   916    1
  1328  1416  1417    1
  1329   733   744    1
  1330  1230  1229   ar
  1331  1230  1221   ar
  1332  1523  1519    1
  1333  1521  1520    1
  1334  1335  1334    1
  1335     3     4    1
  1336     3     2    1
  1337  1222  1221   ar
  1338  1202  1201    1
  1339   775   774    1
  1340   775   771    1
  1341   790   791    1
  1342   790   787    1
  1343  1407  1406   ar
  1344  1407  1408    2
  1345   744   747    1
  1346   744   745    1
  1347  1191  1178    1
  1348  1191  1194    1
  1349  1191  1192    1
  1350  1043  1041   ar
  1351  1043  1044   ar
  1352  1520  1518    1
  1353   774   772    1
  1354  1041  1040   ar
  1355  1510  1511   ar
  1356  1177  1178    1
  1357  1177  1175    1
  1358  1177  1179    1
  1359   754   750    1
  1360   754   753    1
  1361  1507  1506   ar
  1362   928   926    2
  1363  1048  1050    2
  1364  1181  1190   ar
  1365  1181  1180    1
  1366  1321  1320    1
  1367  1321  1322   ar
  1368   747   748    1
  1369  1037  1036    1
  1370  1175  1176    1
  1371   921   919   ar
  1372  1323  1322   ar
  1373   926   927    1
  1374   926   929    1
  1375  1194  1195    1
  1376    10    11   ar
  1377  1305  1306   ar
  1378  1305  1303   ar
  1379   919   920    2
  1380  1306  1308   ar
  1381  1221  1220    1
  1382  1190  1189   ar
  1383  1319  1320    1
  1384  1319  1317    1
  1385  1334  1331    1
  1386   789   787    2
  1387  1187  1188   ar
  1388   750   749    1
  1389  1176  1180    1
  1390  1045  1044    1
  1391   772   773    1
  1392   772   770    1
  1393  1044  1046   ar
  1394  1320  1316    1
  1395     2     1    1
  1396  1180  1179    1
  1397   771   770    1
  1398  1040  1039    1
  1399  1040  1047   ar
  1400  1417  1418    1
  1401  1417  1419    1
  1402  1288  1287    1
  1403  1039  1038    1
  1404  1039  1035    1
  1405   753   751    1
  1406  1519  1518    1
  1407   787   773    1
  1408   787   788    1
  1409  1424  1425   ar
  1410  1424  1423   ar
  1411  1212  1210    2
  1412   767   765    2
  1413  1418  1422    1
  1414  1201  1197    1
  1415  1201  1200    1
  1416  1511  1512   ar
  1417  1038  1036    1
  1418  1518  1517    1
  1419  1435  1433    2
  1420  1425  1426   ar
  1421  1197  1196    1
  1422  1506  1512   ar
  1423  1506  1505   ar
  1424   751   749    1
  1425   751   752    1
  1426  1304  1303    2
  1427   748   749    1
  1428  1036  1034    1
  1429  1303  1302   ar
  1430   929   930    1
  1431  1452  1450    1
  1432  1188  1189   ar
  1433   770   769    1
  1434  1046  1047   ar
  1435  1308  1309   ar
  1436  1195  1196    1
  1437  1512  1503   ar
  1438  1317  1318    1
  1439  1317  1315    1
  1440  1198  1200    1
  1441  1198  1196    1
  1442  1198  1199    1
  1443  1025  1026   ar
  1444  1025  1023   ar
  1445  1419  1420    1
  1446  1419  1421    1
  1447  1220  1219    1
  1448  1220  1216    1
  1449  1026  1027   ar
  1450   939   938   ar
  1451   939   940   ar
  1452  1035  1034    1
  1453  1318  1331    1
  1454  1331  1332    2
  1455  1331  1333    1
  1456   769   768    1
  1457  1316  1315    1
  1458  1287  1286   ar
  1459  1287  1289   ar
  1460  1420  1433    1
  1461  1516  1517    1
  1462  1516  1513    1
  1463  1423  1422    1
  1464  1423  1432   ar
  1465  1505  1504   ar
  1466  1034  1033    1
  1467  1434  1433    1
  1468   938   937   ar
  1469  1433  1436    1
  1470  1449  1448    2
  1471  1422  1421    1
  1472  1267  1266    1
  1473  1286  1284   ar
  1474   942   941    1
  1475  1210  1199    1
  1476  1210  1211    1
  1477  1210  1213    1
  1478  1219  1217    1
  1479  1233  1231    2
  1480  1426  1432   ar
  1481  1426  1427   ar
  1482   752   765    1
  1483   765   768    1
  1484   765   766    1
  1485  1216  1215    1
  1486  1489  1488    1
  1487  1024  1023    1
  1488  1302  1309   ar
  1489  1302  1301    1
  1490  1023  1022   ar
  1491   930   931    1
  1492  1428  1427    1
  1493  1315  1314    1
  1494  1515  1513    2
  1495  1027  1028   ar
  1496  1450  1448   ar
  1497  1450  1451   ar
  1498  1503  1504   ar
  1499  1503  1502    1
  1500  1469  1468    2
  1501  1217  1215    1
  1502  1217  1218    1
  1503   940   941   ar
  1504   940   946   ar
  1505  1289  1290   ar
  1506  1432  1431   ar
  1507   932   931    1
  1508   932   936    1
  1509  1448  1447   ar
  1510  1231  1232    1
  1511  1231  1218    1
  1512  1231  1234    1
  1513   963   962    1
  1514  1427  1429   ar
  1515   941   943   ar
  1516  1513  1514    1
  1517  1513  1500    1
  1518  1213  1214    1
  1519  1501  1502    1
  1520  1501  1499    1
  1521  1214  1215    1
  1522   937   946   ar
  1523   937   936    1
  1524  1472  1470    1
  1525  1284  1285    2
  1526  1284  1283   ar
  1527  1266  1265   ar
  1528  1266  1268   ar
  1529  1436  1437    1
  1530  1313  1314    1
  1531  1313  1310    1
  1532   931   933    1
  1533  1033  1032    1
  1534  1028  1022   ar
  1535  1028  1019   ar
  1536  1488  1487   ar
  1537  1488  1490   ar
  1538  1022  1021   ar
  1539  1502  1498    1
  1540  1264  1265   ar
  1541  1264  1263   ar
  1542  1301  1300    1
  1543  1301  1297    1
  1544  1253  1251    2
  1545  1300  1298    1
  1546  1451  1444   ar
  1547   946   945   ar
  1548   936   935    1
  1549  1312  1310    2
  1550  1487  1485   ar
  1551  1468  1470   ar
  1552  1468  1467   ar
  1553  1032  1029    1
  1554  1499  1500    1
  1555  1499  1497    1
  1556  1265  1271   ar
  1557  1290  1283   ar
  1558  1268  1269   ar
  1559  1004  1003    2
  1560  1431  1430   ar
  1561   943   944   ar
  1562  1234  1235    1
  1563  1030  1029    2
  1564  1447  1445   ar
  1565  1429  1430   ar
  1566   962   961   ar
  1567   962   964   ar
  1568  1490  1491   ar
  1569  1470  1471   ar
  1570  1283  1282    1
  1571   984   983    2
  1572  1455  1453    2
  1573   960   961   ar
  1574   960   959   ar
  1575   933   935    1
  1576   933   934    1
  1577  1298  1299    1
  1578  1298  1296    1
  1579  1019  1020   ar
  1580  1019  1018    1
  1581  1293  1291    2
  1582  1021  1020   ar
  1583  1310  1299    1
  1584  1310  1311    1
  1585   949   947    2
  1586  1263  1262   ar
  1587  1437  1438    1
  1588  1297  1296    1
  1589  1017  1018    1
  1590  1017  1015    1
  1591  1498  1497    1
  1592  1467  1465   ar
  1593   945   944   ar
  1594  1029  1031    1
  1595  1029  1016    1
  1596  1274  1272    2
  1597   961   967   ar
  1598  1444  1445   ar
  1599  1444  1443    1
  1600  1485  1486    2
  1601  1485  1484   ar
  1602   964   965   ar
  1603  1251  1252    1
  1604  1251  1254    1
  1605  1251  1239    1
  1606  1003  1002   ar
  1607  1003  1005   ar
  1608  1002  1000   ar
  1609  1235  1236    1
  1610  1497  1496    1
  1611  1445  1446    2
  1612  1294  1291    1
  1613  1294  1295    1
  1614  1271  1262   ar
  1615  1271  1270   ar
  1616  1269  1270   ar
  1617  1494  1492    2
  1618  1018  1014    1
  1619   934   947    1
  1620  1491  1484   ar
  1621  1495  1496    1
  1622  1495  1492    1
  1623   959   958   ar
  1624  1296  1295    1
  1625  1016  1015    1
  1626  1015  1013    1
  1627  1471  1464   ar
  1628   983   982   ar
  1629   983   985   ar
  1630  1282  1281    1
  1631  1282  1278    1
  1632  1281  1279    1
  1633  1238  1239    1
  1634  1238  1236    1
  1635  1238  1240    1
  1636  1262  1261    1
  1637  1250  1248    1
  1638  1439  1438    1
  1639  1439  1443    1
  1640  1291  1292    1
  1641  1291  1280    1
  1642   947   948    1
  1643   947   950    1
  1644  1254  1255    1
  1645  1438  1440    1
  1646  1484  1483    1
  1647  1453  1441    1
  1648  1453  1454    1
  1649  1453  1456    1
  1650  1475  1473    2
  1651  1440  1441    1
  1652  1440  1442    1
  1653   987   985    1
  1654  1001  1000    2
  1655  1279  1280    1
  1656  1279  1277    1
  1657  1465  1464   ar
  1658  1465  1466    2
  1659  1000   999   ar
  1660   982   980   ar
  1661  1275  1272    1
  1662  1275  1276    1
  1663  1443  1442    1
  1664  1236  1237    1
  1665  1272  1273    1
  1666  1272  1259    1
  1667  1492  1493    1
  1668  1492  1481    1
  1669   967   958   ar
  1670   967   966   ar
  1671  1005  1007    1
  1672  1005  1006   ar
  1673   965   966   ar
  1674  1240  1241    1
  1675  1464  1463    1
  1676  1278  1277    1
  1677   985   986   ar
  1678  1456  1457    1
  1679   958   957    1
  1680  1014  1013    1
  1681  1258  1260    1
  1682  1258  1259    1
  1683  1258  1256    1
  1684  1248  1249   ar
  1685  1248  1246   ar
  1686  1482  1483    1
  1687  1482  1480    1
  1688   950   951    1
  1689  1249  1242   ar
  1690  1013  1012    1
  1691  1261  1260    1
  1692  1261  1257    1
  1693  1483  1479    1
  1694  1480  1481    1
  1695  1480  1478    1
  1696  1277  1276    1
  1697  1255  1256    1
  1698  1257  1256    1
  1699  1473  1476    1
  1700  1473  1474    1
  1701  1473  1461    1
  1702   999  1006   ar
  1703   999   998    1
  1704  1476  1477    1
  1705  1237  1241    1
  1706   980   981    2
  1707   980   979   ar
  1708  1247  1246    2
  1709  1246  1245   ar
  1710  1241  1242    1
  1711  1460  1462    1
  1712  1460  1461    1
  1713  1460  1458    1
  1714   986   979   ar
  1715  1012  1011    1
  1716  1463  1462    1
  1717  1463  1459    1
  1718   953   957    1
  1719   953   952    1
  1720  1242  1243   ar
  1721  1479  1478    1
  1722   957   956    1
  1723  1457  1458    1
  1724   951   952    1
  1725  1010  1008    2
  1726  1478  1477    1
  1727  1459  1458    1
  1728   979   978    1
  1729   998   997    1
  1730   998   994    1
  1731   997   995    1
  1732   970   968    2
  1733  1245  1243   ar
  1734  1011  1008    1
  1735   952   954    1
  1736  1243  1244    2
  1737   954   956    1
  1738   954   955    1
  1739   995   996    1
  1740   995   993    1
  1741  1008   996    1
  1742  1008  1009    1
  1743   994   993    1
  1744   978   977    1
  1745   978   974    1
  1746   990   988    2
  1747   968   955    1
  1748   968   971    1
  1749   968   969    1
  1750   971   972    1
  1751   977   975    1
  1752   991   988    1
  1753   991   992    1
  1754   993   992    1
  1755   974   973    1
  1756   975   973    1
  1757   975   976    1
  1758   988   976    1
  1759   988   989    1
  1760   973   972    1
