@<TRIPOS>MOLECULE
dna.pdb
 824 927 0 0 0
SMALL
GASTEIGER

@<TRIPOS>ATOM
      1  O5'       -5.0120    5.8390   -1.9760 O.3     1  DG1        -0.2176
      2  C5'       -5.8190    6.1270   -3.1070 C.3     1  DG1         0.2140
      3  C4'       -5.6650    5.0050   -4.1140 C.3     1  DG1         0.1776
      4  O4'       -4.2740    4.8550   -4.5160 O.3     1  DG1        -0.3326
      5  C3'       -6.0080    3.6130   -3.6130 C.3     1  DG1         0.1559
      6  O3'       -7.4000    3.4250   -3.6090 O.3     1  DG1        -0.3138
      7  C2'       -5.3600    2.7820   -4.7110 C.3     1  DG1         0.0865
      8  C1'       -4.0240    3.5040   -4.8680 C.3     1  DG1         0.2094
      9  N9        -3.0160    2.8880   -3.9450 N.ar    1  DG1        -0.2713
     10  C8        -2.4990    3.5160   -2.8390 C.ar    1  DG1         0.1816
     11  N7        -1.5420    2.8410   -2.2630 N.ar    1  DG1        -0.2173
     12  C5        -1.4150    1.7010   -3.0330 C.ar    1  DG1         0.1748
     13  C6        -0.5420    0.5900   -2.9030 C.ar    1  DG1         0.3025
     14  O6         0.3270    0.3960   -2.0430 O.2     1  DG1        -0.2633
     15  N1        -0.7480   -0.3550   -3.9030 N.ar    1  DG1        -0.1685
     16  C2        -1.6810   -0.2450   -4.9060 C.ar    1  DG1         0.2746
     17  N2        -1.7310   -1.2590   -5.7810 N.ar    1  DG1        -0.1050
     18  N3        -2.5000    0.7800   -5.0400 N.ar    1  DG1        -0.1895
     19  C4        -2.3180    1.7100   -4.0790 C.ar    1  DG1         0.1725
     20  P         -8.0180    2.3590   -2.7840 P.3     2  DG2         0.2141
     21  OP1       -9.3540    2.9610   -2.5880 O.2     2  DG2        -0.5172
     22  OP2       -7.1100    2.7640   -1.6750 O.3     2  DG2        -0.4373
     23  O5'       -7.9050    0.7360   -2.9080 O.3     2  DG2        -0.3114
     24  C5'       -8.1450    0.3560   -4.3010 C.3     2  DG2         0.1811
     25  C4'       -7.2930   -0.8490   -4.5530 C.3     2  DG2         0.1746
     26  O4'       -5.9240   -0.5820   -4.5990 O.3     2  DG2        -0.3327
     27  C3'       -7.4120   -2.0000   -3.5440 C.3     2  DG2         0.1558
     28  O3'       -8.6360   -2.6970   -3.7340 O.3     2  DG2        -0.3138
     29  C2'       -6.2260   -2.8640   -4.0120 C.3     2  DG2         0.0865
     30  C1'       -5.2250   -1.8040   -4.2640 C.3     2  DG2         0.2094
     31  N9        -4.3390   -1.5400   -3.2180 N.ar    2  DG2        -0.2713
     32  C8        -4.4070   -0.3800   -2.4840 C.ar    2  DG2         0.1816
     33  N7        -3.4720   -0.2880   -1.5790 N.ar    2  DG2        -0.2173
     34  C5        -2.7410   -1.4520   -1.7210 C.ar    2  DG2         0.1748
     35  C6        -1.6030   -1.9200   -1.0140 C.ar    2  DG2         0.3023
     36  O6        -0.9960   -1.3680   -0.0870 O.2     2  DG2        -0.2633
     37  N1        -1.1740   -3.1600   -1.4790 N.ar    2  DG2        -0.1709
     38  C2        -1.7690   -3.8630   -2.5000 C.ar    2  DG2         0.2606
     39  N2        -1.2120   -5.0420   -2.8080 N.pl3   2  DG2        -0.0859
     40  N3        -2.8270   -3.4420   -3.1650 N.ar    2  DG2        -0.1918
     41  C4        -3.2610   -2.2400   -2.7290 C.ar    2  DG2         0.1722
     42  P         -9.1040   -3.5180   -2.5350 P.3     3  DC3         0.2141
     43  OP1      -10.3980   -4.1860   -2.8120 O.2     3  DC3        -0.5172
     44  OP2       -8.9920   -2.5630   -1.3980 O.3     3  DC3        -0.4373
     45  O5'       -7.9860   -4.6450   -2.3660 O.3     3  DC3        -0.3114
     46  C5'       -8.0340   -5.8560   -3.1420 C.3     3  DC3         0.1811
     47  C4'       -7.0610   -6.8670   -2.5970 C.3     3  DC3         0.1746
     48  O4'       -5.7090   -6.3590   -2.7330 O.3     3  DC3        -0.3327
     49  C3'       -7.2010   -7.1710   -1.1190 C.3     3  DC3         0.1558
     50  O3'       -8.1890   -8.1480   -0.8630 O.3     3  DC3        -0.3138
     51  C2'       -5.8060   -7.6530   -0.7360 C.3     3  DC3         0.0866
     52  C1'       -4.9200   -6.7960   -1.6370 C.3     3  DC3         0.2106
     53  N1        -4.4360   -5.6350   -0.8930 N.ar    3  DC3        -0.2556
     54  C2        -3.3060   -5.8040   -0.0840 C.ar    3  DC3         0.3531
     55  O2        -2.6680   -6.8680   -0.1630 O.2     3  DC3        -0.2443
     56  N3        -2.9430   -4.8080    0.7590 N.ar    3  DC3        -0.1739
     57  C4        -3.6590   -3.6840    0.8120 C.ar    3  DC3         0.1759
     58  N4        -3.2630   -2.7310    1.6580 N.pl3   3  DC3        -0.1070
     59  C5        -4.8070   -3.4930    0.0010 C.ar    3  DC3         0.0566
     60  C6        -5.1620   -4.4790   -0.8310 C.ar    3  DC3         0.0849
     61  P         -8.6950   -8.4300    0.7150 P.3     4  DA4         0.2141
     62  OP1       -9.8330   -9.3840    0.7340 O.2     4  DA4        -0.5172
     63  OP2       -8.8440   -7.0950    1.3490 O.3     4  DA4        -0.4373
     64  O5'       -7.4400   -9.1660    1.3620 O.3     4  DA4        -0.3114
     65  C5'       -6.9160  -10.3650    0.7650 C.3     4  DA4         0.1811
     66  C4'       -5.6400  -10.7930    1.4510 C.3     4  DA4         0.1746
     67  O4'       -4.6190   -9.7690    1.3200 O.3     4  DA4        -0.3327
     68  C3'       -5.7430  -11.0390    2.9450 C.3     4  DA4         0.1558
     69  O3'       -6.2550  -12.3320    3.2290 O.3     4  DA4        -0.3138
     70  C2'       -4.3030  -10.8720    3.4060 C.3     4  DA4         0.0865
     71  C1'       -3.8090   -9.7550    2.4860 C.3     4  DA4         0.2094
     72  N9        -3.8490   -8.4790    3.0880 N.ar    4  DA4        -0.2714
     73  C8        -4.8690   -7.5630    3.0880 C.ar    4  DA4         0.1815
     74  N7        -4.5990   -6.4700    3.7620 N.ar    4  DA4        -0.2193
     75  C5        -3.3140   -6.6840    4.2380 C.ar    4  DA4         0.1518
     76  C6        -2.4550   -5.8970    5.0240 C.ar    4  DA4         0.1919
     77  N6        -2.7760   -4.6870    5.4870 N.pl3   4  DA4        -0.1054
     78  N1        -1.2390   -6.4040    5.3220 N.ar    4  DA4        -0.2040
     79  C2        -0.9180   -7.6170    4.8570 C.ar    4  DA4         0.2016
     80  N3        -1.6390   -8.4490    4.1090 N.ar    4  DA4        -0.2048
     81  C4        -2.8410   -7.9170    3.8320 C.ar    4  DA4         0.1691
     82  P         -6.9110  -12.6090    4.5850 P.3     5  DG5         0.2141
     83  OP1       -7.9560  -13.6280    4.8300 O.2     5  DG5        -0.5172
     84  OP2       -7.1750  -11.1960    4.9440 O.3     5  DG5        -0.4373
     85  O5'       -5.5420  -13.0520    5.2970 O.3     5  DG5        -0.3114
     86  C5'       -4.9120  -14.3030    4.9830 C.3     5  DG5         0.1811
     87  C4'       -3.5210  -14.4130    5.5900 C.3     5  DG5         0.1746
     88  O4'       -2.6160  -13.4860    4.9370 O.3     5  DG5        -0.3327
     89  C3'       -3.4220  -14.0450    7.0640 C.3     5  DG5         0.1558
     90  O3'       -3.7720  -15.1350    7.8970 O.3     5  DG5        -0.3138
     91  C2'       -1.9530  -13.6560    7.2020 C.3     5  DG5         0.0865
     92  C1'       -1.7330  -12.9140    5.8870 C.3     5  DG5         0.2094
     93  N9        -2.0160  -11.4570    6.0320 N.ar    5  DG5        -0.2713
     94  C8        -3.1140  -10.7340    5.6330 C.ar    5  DG5         0.1816
     95  N7        -3.0340   -9.4670    5.9370 N.ar    5  DG5        -0.2173
     96  C5        -1.8130   -9.3430    6.5730 C.ar    5  DG5         0.1748
     97  C6        -1.1740   -8.2060    7.1310 C.ar    5  DG5         0.3023
     98  O6        -1.5840   -7.0390    7.1710 O.2     5  DG5        -0.2633
     99  N1         0.0640   -8.5230    7.6830 N.ar    5  DG5        -0.1709
    100  C2         0.6180   -9.7800    7.6960 C.ar    5  DG5         0.2606
    101  N2         1.8220   -9.8900    8.2740 N.pl3   5  DG5        -0.0859
    102  N3         0.0370  -10.8460    7.1820 N.ar    5  DG5        -0.1918
    103  C4        -1.1670  -10.5620    6.6410 C.ar    5  DG5         0.1722
    104  P         -4.3050  -14.8430    9.4990 P.3     6  DT6         0.2141
    105  OP1       -4.8370  -16.0660   10.1610 O.3     6  DT6        -0.4373
    106  OP2       -5.2340  -13.7580    9.0610 O.2     6  DT6        -0.5172
    107  O5'       -3.1680  -14.2240   10.4260 O.3     6  DT6        -0.3114
    108  C5'       -2.0130  -14.9780   10.7770 C.3     6  DT6         0.1812
    109  C4'       -1.0090  -14.0810   11.4560 C.3     6  DT6         0.1775
    110  O4'       -0.5740  -13.0540   10.5220 O.3     6  DT6        -0.3326
    111  C3'       -1.5660  -13.2780   12.6120 C.3     6  DT6         0.1864
    112  O3'       -1.6330  -14.0310   13.8030 O.3     6  DT6        -0.2133
    113  C2'       -0.6100  -12.0980   12.6860 C.3     6  DT6         0.0895
    114  C1'       -0.3870  -11.8230   11.2080 C.3     6  DT6         0.2107
    115  N1        -1.3600  -10.8550   10.7020 N.ar    6  DT6        -0.2559
    116  C2        -1.0930   -9.5150   10.9080 C.ar    6  DT6         0.3545
    117  O2        -0.1110   -9.1180   11.5100 O.2     6  DT6        -0.2443
    118  N3        -2.0230   -8.6500   10.3830 N.ar    6  DT6        -0.1533
    119  C4        -3.1670   -8.9830    9.6880 C.ar    6  DT6         0.2804
    120  O4        -3.9060   -8.0920    9.2770 O.2     6  DT6        -0.2654
    121  C5        -3.3740  -10.3930    9.5160 C.ar    6  DT6         0.0534
    122  C6        -2.4860  -11.2570   10.0160 C.ar    6  DT6         0.0824
    123  C7        -4.5920  -10.8570    8.7730 C.3     6  DT6         0.0377
    124  P         -2.7750  -13.5660   15.0660 P.3     7  DG7         0.3939
    125  OP1       -1.7710  -14.6080   15.4110 O.3     7  DG7        -0.1496
    126  OP2       -4.2180  -13.8530   15.2140 O.3     7  DG7        -0.1425
    127  O5'       -2.4820  -12.2820   15.9550 O.3     7  DG7        -0.2926
    128  C5'       -1.6620  -11.2500   15.4590 C.3     7  DG7         0.1828
    129  C4'       -1.3320  -10.2310   16.5260 C.3     7  DG7         0.1747
    130  O4'       -0.6860   -9.1590   15.8000 O.3     7  DG7        -0.3327
    131  C3'       -2.5150   -9.6000   17.2710 C.3     7  DG7         0.1558
    132  O3'       -2.5670  -10.1330   18.6100 O.3     7  DG7        -0.3138
    133  C2'       -2.1720   -8.1060   17.2760 C.3     7  DG7         0.0865
    134  C1'       -1.3930   -7.9640   15.9790 C.3     7  DG7         0.2094
    135  N9        -2.2450   -7.8240   14.4930 N.ar    7  DG7        -0.2713
    136  C8        -3.0560   -8.6840   13.7920 C.ar    7  DG7         0.1816
    137  N7        -3.9350   -8.0710   13.0470 N.ar    7  DG7        -0.2173
    138  C5        -3.6920   -6.7270   13.2650 C.ar    7  DG7         0.1748
    139  C6        -4.3290   -5.5760   12.7340 C.ar    7  DG7         0.3023
    140  O6        -5.2700   -5.5230   11.9320 O.2     7  DG7        -0.2633
    141  N1        -3.7690   -4.3990   13.2220 N.ar    7  DG7        -0.1709
    142  C2        -2.7240   -4.3390   14.1130 C.ar    7  DG7         0.2606
    143  N2        -2.3200   -3.1110   14.4680 N.pl3   7  DG7        -0.0859
    144  N3        -2.1230   -5.3990   14.6160 N.ar    7  DG7        -0.1918
    145  C4        -2.6510   -6.5530   14.1560 C.ar    7  DG7         0.1722
    146  P         -3.9360  -10.0660   19.5310 P.3     8  DT8         0.2141
    147  OP1       -4.3550  -10.7050   20.8040 O.3     8  DT8        -0.4373
    148  OP2       -4.6970  -10.3690   18.2850 O.2     8  DT8        -0.5172
    149  O5'       -3.9220   -8.4780   19.7130 O.3     8  DT8        -0.3114
    150  C5'       -3.0670   -7.8450   20.6710 C.3     8  DT8         0.1811
    151  C4'       -3.2240   -6.3330   20.6180 C.3     8  DT8         0.1746
    152  O4'       -2.6070   -5.8250   19.4020 O.3     8  DT8        -0.3327
    153  C3'       -4.6470   -5.7850   20.6050 C.3     8  DT8         0.1558
    154  O3'       -5.2420   -5.6980   21.9070 O.3     8  DT8        -0.3138
    155  C2'       -4.4790   -4.4330   19.9030 C.3     8  DT8         0.0866
    156  C1'       -3.3610   -4.7350   18.8960 C.3     8  DT8         0.2106
    157  N1        -3.9150   -5.1460   17.5500 N.ar    8  DT8        -0.2559
    158  C2        -4.3610   -4.1050   16.7580 C.ar    8  DT8         0.3545
    159  O2        -4.2320   -2.9330   17.0660 O.2     8  DT8        -0.2443
    160  N3        -4.9670   -4.4860   15.5850 N.ar    8  DT8        -0.1533
    161  C4        -5.1680   -5.7740   15.1360 C.ar    8  DT8         0.2804
    162  O4        -5.7290   -5.9580   14.0580 O.2     8  DT8        -0.2654
    163  C5        -4.6780   -6.7990   16.0140 C.ar    8  DT8         0.0534
    164  C6        -4.0850   -6.4570   17.1610 C.ar    8  DT8         0.0824
    165  C7        -4.8500   -8.2340   15.6130 C.3     8  DT8         0.0377
    166  P         -6.8510   -5.9560   22.1280 P.3     9  DG9         0.2141
    167  OP1       -7.2470   -6.1530   23.5140 O.3     9  DG9        -0.4373
    168  OP2       -6.9440   -6.9470   21.0610 O.2     9  DG9        -0.5172
    169  O5'       -7.3540   -4.6460   21.4270 O.3     9  DG9        -0.3114
    170  C5'       -6.9780   -3.4060   21.9540 C.3     9  DG9         0.1811
    171  C4'       -7.3050   -2.3890   20.8810 C.3     9  DG9         0.1746
    172  O4'       -6.3970   -2.7470   19.8410 O.3     9  DG9        -0.3327
    173  C3'       -8.6430   -2.4300   20.1280 C.3     9  DG9         0.1558
    174  O3'       -9.7690   -1.7210   20.7350 O.3     9  DG9        -0.3138
    175  C2'       -8.2280   -1.6070   18.9510 C.3     9  DG9         0.0865
    176  C1'       -6.9260   -2.2440   18.6110 C.3     9  DG9         0.2094
    177  N9        -7.0450   -3.2710   17.6050 N.ar    9  DG9        -0.2713
    178  C8        -6.9200   -4.6270   17.7920 C.ar    9  DG9         0.1816
    179  N7        -7.1510   -5.3200   16.7100 N.ar    9  DG9        -0.2173
    180  C5        -7.4440   -4.3690   15.7500 C.ar    9  DG9         0.1748
    181  C6        -7.7800   -4.5150   14.3790 C.ar    9  DG9         0.3023
    182  O6        -7.8850   -5.5580   13.7230 O.2     9  DG9        -0.2633
    183  N1        -8.0030   -3.2860   13.7650 N.ar    9  DG9        -0.1709
    184  C2        -7.9150   -2.0670   14.3930 C.ar    9  DG9         0.2606
    185  N2        -8.1650   -0.9910   13.6350 N.pl3   9  DG9        -0.0859
    186  N3        -7.6050   -1.9160   15.6660 N.ar    9  DG9        -0.1918
    187  C4        -7.3840   -3.0960   16.2830 C.ar    9  DG9         0.1722
    188  P        -11.2700   -2.2820   20.6680 P.3    10  DG10        0.2141
    189  OP1      -12.1440   -1.7010   21.7230 O.3    10  DG10       -0.4373
    190  OP2      -11.5440   -3.6570   20.1480 O.2    10  DG10       -0.5172
    191  O5'      -11.2730   -1.2840   19.4170 O.3    10  DG10       -0.3114
    192  C5'      -11.0140    0.1110   19.5810 C.3    10  DG10        0.1811
    193  C4'      -11.2640    0.8530   18.2850 C.3    10  DG10        0.1746
    194  O4'      -10.3820    0.3380   17.2500 O.3    10  DG10       -0.3327
    195  C3'      -12.6550    0.6690   17.7010 C.3    10  DG10        0.1558
    196  O3'      -13.5760    1.5820   18.2970 O.3    10  DG10       -0.3138
    197  C2'      -12.4350    0.9590   16.2200 C.3    10  DG10        0.0865
    198  C1'      -11.0450    0.3680   15.9920 C.3    10  DG10        0.2094
    199  N9       -11.0850   -0.8520   15.4250 N.ar   10  DG10       -0.2713
    200  C8       -11.0450   -2.0760   16.0480 C.ar   10  DG10        0.1816
    201  N7       -11.2570   -3.0740   15.2350 N.ar   10  DG10       -0.2173
    202  C5       -11.4460   -2.4790   14.0020 C.ar   10  DG10        0.1748
    203  C6       -11.7170   -3.0500   12.7320 C.ar   10  DG10        0.3023
    204  O6       -11.8460   -4.2460   12.4420 O.2    10  DG10       -0.2633
    205  N1       -11.8400   -2.0810   11.7400 N.ar   10  DG10       -0.1709
    206  C2       -11.7170   -0.7280   11.9460 C.ar   10  DG10        0.2606
    207  N2       -11.8670    0.0500   10.8660 N.pl3  10  DG10       -0.0859
    208  N3       -11.4660   -0.1820   13.1200 N.ar   10  DG10       -0.1918
    209  C4       -11.3440   -1.1040   14.0980 C.ar   10  DG10        0.1722
    210  P        -15.2450    1.4050   18.0400 P.3    11  DG11        0.2141
    211  OP1      -16.2540    2.3710   18.6120 O.2    11  DG11       -0.5172
    212  OP2      -15.1040    0.0690   18.6550 O.3    11  DG11       -0.4373
    213  O5'      -15.5950    1.1990   16.4980 O.3    11  DG11       -0.3114
    214  C5'      -16.3830    2.1450   15.8040 C.3    11  DG11        0.1811
    215  C4'      -16.7010    1.6400   14.4060 C.3    11  DG11        0.1746
    216  O4'      -15.5440    1.0770   13.7190 O.3    11  DG11       -0.3327
    217  C3'      -17.7080    0.5140   14.3850 C.3    11  DG11        0.1558
    218  O3'      -18.9640    1.0820   14.5900 O.3    11  DG11       -0.3138
    219  C2'      -17.4840   -0.0190   12.9720 C.3    11  DG11        0.0865
    220  C1'      -15.9550   -0.0060   12.9090 C.3    11  DG11        0.2094
    221  N9       -15.3990   -1.3420   13.5520 N.ar   11  DG11       -0.2713
    222  C8       -14.5650   -1.3810   14.6420 C.ar   11  DG11        0.1816
    223  N7       -14.0580   -2.5640   14.8620 N.ar   11  DG11       -0.2173
    224  C5       -14.5860   -3.3550   13.8580 C.ar   11  DG11        0.1748
    225  C6       -14.4040   -4.7330   13.5760 C.ar   11  DG11        0.3025
    226  O6       -13.7080   -5.5540   14.1870 O.2    11  DG11       -0.2633
    227  N1       -15.1300   -5.1360   12.4590 N.ar   11  DG11       -0.1685
    228  C2       -15.9330   -4.3130   11.7060 C.ar   11  DG11        0.2756
    229  N2       -16.5520   -4.8840   10.6640 N.ar   11  DG11       -0.1076
    230  N3       -16.1130   -3.0310   11.9560 N.ar   11  DG11       -0.1758
    231  C4       -15.4180   -2.6180   13.0370 C.ar   11  DG11        0.1739
    232  P        -19.7500    0.8200   15.8710 P.3    12  DC12        0.2141
    233  OP1      -20.1080    2.1160   15.2460 O.2    12  DC12       -0.5172
    234  OP2      -19.6740    0.7070   17.3460 O.3    12  DC12       -0.4373
    235  O5'      -20.7700   -0.3360   15.4190 O.3    12  DC12       -0.3114
    236  C5'      -21.4960   -0.1830   14.2080 C.3    12  DC12        0.1811
    237  C4'      -21.3700   -1.3700   13.2850 C.3    12  DC12        0.1746
    238  O4'      -19.9890   -1.7960   13.1890 O.3    12  DC12       -0.3327
    239  C3'      -22.1060   -2.6380   13.6840 C.3    12  DC12        0.1558
    240  O3'      -23.4840   -2.5900   13.3720 O.3    12  DC12       -0.3138
    241  C2'      -21.3770   -3.7010   12.8790 C.3    12  DC12        0.0866
    242  C1'      -19.9390   -3.1840   12.9340 C.3    12  DC12        0.2106
    243  N1       -19.1130   -3.8280   13.9890 N.ar   12  DC12       -0.2556
    244  C2       -18.5530   -5.1090   13.9210 C.ar   12  DC12        0.3531
    245  O2       -18.9510   -5.8900   13.0400 O.2    12  DC12       -0.2443
    246  N3       -17.5990   -5.4600   14.8160 N.ar   12  DC12       -0.1739
    247  C4       -17.2040   -4.5890   15.7450 C.ar   12  DC12        0.1759
    248  N4       -16.2600   -4.9790   16.6060 N.pl3  12  DC12       -0.1070
    249  C5       -17.7590   -3.2860   15.8310 C.ar   12  DC12        0.0566
    250  C6       -18.7010   -2.9440   14.9450 C.ar   12  DC12        0.0849
    251  P        -23.8180   -3.1570   14.3110 P.3    13  DG13        0.2141
    252  OP1      -25.0910   -2.6050   13.7940 O.2    13  DG13       -0.5172
    253  OP2      -23.7400   -3.6270   15.7100 O.3    13  DG13       -0.4373
    254  O5'      -23.3440   -4.3540   13.3660 O.3    13  DG13       -0.3114
    255  C5'      -23.8750   -5.6690   13.4920 C.3    13  DG13        0.1811
    256  C4'      -23.9740   -6.3190   12.1260 C.3    13  DG13        0.1746
    257  O4'      -24.8400   -5.5160   11.2830 O.3    13  DG13       -0.3327
    258  C3'      -22.6790   -6.4410   11.3400 C.3    13  DG13        0.1558
    259  O3'      -22.0170   -7.6500   11.6850 O.3    13  DG13       -0.3138
    260  C2'      -23.1700   -6.4860    9.8970 C.3    13  DG13        0.0865
    261  C1'      -24.3520   -5.5200    9.9540 C.3    13  DG13        0.2094
    262  N9       -24.0110   -4.1490    9.6140 N.ar   13  DG13       -0.2713
    263  C8       -24.0290   -3.0580   10.4490 C.ar   13  DG13        0.1816
    264  N7       -23.7130   -1.9430    9.8470 N.ar   13  DG13       -0.2173
    265  C5       -23.4730   -2.3170    8.5380 C.ar   13  DG13        0.1748
    266  C6       -23.0900   -1.5420    7.4130 C.ar   13  DG13        0.3023
    267  O6       -22.8800   -0.3240    7.3570 O.2    13  DG13       -0.2633
    268  N1       -22.9520   -2.3210    6.2670 N.ar   13  DG13       -0.1709
    269  C2       -23.1580   -3.6790    6.2130 C.ar   13  DG13        0.2606
    270  N2       -22.9770   -4.2560    5.0170 N.pl3  13  DG13       -0.0859
    271  N3       -23.5140   -4.4120    7.2490 N.ar   13  DG13       -0.1918
    272  C4       -23.6530   -3.6760    8.3730 C.ar   13  DG13        0.1722
    273  P        -20.6980   -8.1410   11.2370 P.3    14  DA14        0.2141
    274  OP1      -21.2320   -9.3540   11.8950 O.3    14  DA14       -0.4373
    275  OP2      -19.5150   -7.4400   11.7900 O.2    14  DA14       -0.5172
    276  O5'      -20.2770   -8.4890    9.7310 O.3    14  DA14       -0.3114
    277  C5'      -21.2280   -9.0670    8.8460 C.3    14  DA14        0.1811
    278  C4'      -21.3070   -8.3560    7.5110 C.3    14  DA14        0.1746
    279  O4'      -21.8970   -7.0350    7.6580 O.3    14  DA14       -0.3327
    280  C3'      -19.9930   -8.0930    6.7870 C.3    14  DA14        0.1558
    281  O3'      -19.4910   -9.2310    6.1050 O.3    14  DA14       -0.3138
    282  C2'      -20.3730   -6.9580    5.8430 C.3    14  DA14        0.0865
    283  C1'      -21.3600   -6.1550    6.6910 C.3    14  DA14        0.2094
    284  N9       -20.7130   -5.0810    7.3510 N.ar   14  DA14       -0.2714
    285  C8       -20.6650   -4.9530    8.7140 C.ar   14  DA14        0.1815
    286  N7       -20.1430   -3.8200    9.1210 N.ar   14  DA14       -0.2193
    287  C5       -19.8250   -3.1600    7.9440 C.ar   14  DA14        0.1518
    288  C6       -19.2410   -1.9060    7.6910 C.ar   14  DA14        0.1919
    289  N6       -18.8590   -1.0610    8.6510 N.pl3  14  DA14       -0.1054
    290  N1       -19.0610   -1.5480    6.4020 N.ar   14  DA14       -0.2040
    291  C2       -19.4450   -2.3950    5.4400 C.ar   14  DA14        0.2016
    292  N3       -20.0050   -3.5970    5.5540 N.ar   14  DA14       -0.2048
    293  C4       -20.1690   -3.9250    6.8460 C.ar   14  DA14        0.1691
    294  P        -17.6880   -9.7200    6.1740 P.3    15  DA15        0.2141
    295  OP1      -17.4020  -10.9340    5.3750 O.2    15  DA15       -0.5172
    296  OP2      -17.4330   -9.6880    7.6330 O.3    15  DA15       -0.4373
    297  O5'      -16.7890   -8.5160    5.6370 O.3    15  DA15       -0.3114
    298  C5'      -16.5390   -8.5400    4.2420 C.3    15  DA15        0.1811
    299  C4'      -16.3700   -7.1680    3.6480 C.3    15  DA15        0.1746
    300  O4'      -17.2960   -6.2550    4.2970 O.3    15  DA15       -0.3327
    301  C3'      -14.9890   -6.5640    3.8470 C.3    15  DA15        0.1558
    302  O3'      -14.1310   -6.7080    2.7200 O.3    15  DA15       -0.3138
    303  C2'      -15.2410   -5.0880    4.1300 C.3    15  DA15        0.0865
    304  C1'      -16.6890   -5.0130    4.5830 C.3    15  DA15        0.2094
    305  N9       -16.5910   -4.8260    5.9840 N.ar   15  DA15       -0.2714
    306  C8       -17.2160   -5.7290    6.8030 C.ar   15  DA15        0.1815
    307  N7       -17.3270   -5.3270    8.0470 N.ar   15  DA15       -0.2191
    308  C5       -16.7320   -4.0750    8.0450 C.ar   15  DA15        0.1544
    309  C6       -16.5270   -3.1230    9.0590 C.ar   15  DA15        0.2046
    310  N6       -16.9170   -3.2960   10.3240 N.ar   15  DA15       -0.1374
    311  N1       -15.9000   -1.9750    8.7240 N.ar   15  DA15       -0.2017
    312  C2       -15.5110   -1.8030    7.4560 C.ar   15  DA15        0.2017
    313  N3       -15.6480   -2.6220    6.4150 N.ar   15  DA15       -0.2048
    314  C4       -16.2730   -3.7530    6.7810 C.ar   15  DA15        0.1693
    315  P        -13.0670   -6.9000    3.1820 P.3    16  DT16        0.2141
    316  OP1      -13.1170   -7.3770    1.7760 O.2    16  DT16       -0.5172
    317  OP2      -12.4300   -7.7470    4.2310 O.3    16  DT16       -0.4373
    318  O5'      -12.3760   -5.4700    3.1600 O.3    16  DT16       -0.3114
    319  C5'      -13.1370   -4.3040    2.8900 C.3    16  DT16        0.1811
    320  C4'      -12.9740   -3.3250    4.0220 C.3    16  DT16        0.1746
    321  O4'      -13.5760   -3.8360    5.2420 O.3    16  DT16       -0.3327
    322  C3'      -11.5540   -3.1170    4.5130 C.3    16  DT16        0.1558
    323  O3'      -10.7120   -2.4360    3.5970 O.3    16  DT16       -0.3138
    324  C2'      -11.7910   -2.3860    5.8320 C.3    16  DT16        0.0866
    325  C1'      -13.0630   -3.0810    6.3330 C.3    16  DT16        0.2106
    326  N1       -12.7990   -3.7800    7.3830 N.ar   16  DT16       -0.2559
    327  C2       -12.5580   -3.2740    8.6460 C.ar   16  DT16        0.3545
    328  O2       -12.5490   -2.0810    8.8930 O.2    16  DT16       -0.2443
    329  N3       -12.3270   -4.2190    9.6170 N.ar   16  DT16       -0.1533
    330  C4       -12.3120   -5.5890    9.4540 C.ar   16  DT16        0.2804
    331  O4       -12.0900   -6.3110   10.4230 O.2    16  DT16       -0.2654
    332  C5       -12.5690   -6.0360    8.1140 C.ar   16  DT16        0.0534
    333  C6       -12.7980   -5.1380    7.1510 C.ar   16  DT16        0.0824
    334  C7       -12.5730   -7.5100    7.8350 C.3    16  DT16        0.0377
    335  P         -9.4100   -2.5860    3.8380 P.3    17  DC17        0.2141
    336  OP1       -8.6540   -2.0150    2.6930 O.2    17  DC17       -0.5172
    337  OP2       -9.0890   -3.9530    4.3250 O.3    17  DC17       -0.4373
    338  O5'       -9.2730   -1.5980    5.0840 O.3    17  DC17       -0.3114
    339  C5'       -9.5810   -0.2070    4.9680 C.3    17  DC17        0.1811
    340  C4'       -9.2300    0.5170    6.2520 C.3    17  DC17        0.1746
    341  O4'       -9.9700   -0.0710    7.3550 O.3    17  DC17       -0.3327
    342  C3'       -7.7740    0.4260    6.6880 C.3    17  DC17        0.1558
    343  O3'       -6.9970    1.4460    6.0710 O.3    17  DC17       -0.3138
    344  C2'       -7.8530    0.6560    8.1930 C.3    17  DC17        0.0866
    345  C1'       -9.1930    0.0050    8.5400 C.3    17  DC17        0.2106
    346  N1        -9.0970   -1.3460    9.0550 N.ar   17  DC17       -0.2556
    347  C2        -8.9690   -1.4280   10.4460 C.ar   17  DC17        0.3531
    348  O2        -9.2120   -0.4190   11.1300 O.2    17  DC17       -0.2443
    349  N3        -8.5850   -2.6000   11.0050 N.ar   17  DC17       -0.1739
    350  C4        -8.3340   -3.6570   10.2310 C.ar   17  DC17        0.1759
    351  N4        -7.9570   -4.7920   10.8260 N.pl3  17  DC17       -0.1070
    352  C5        -8.4580   -3.5940    8.8200 C.ar   17  DC17        0.0566
    353  C6        -8.8380   -2.4350    8.2720 C.ar   17  DC17        0.0849
    354  P         -5.5220    1.6080    6.8120 P.3    18  DT18        0.2141
    355  OP1       -5.1660    2.8300    6.0550 O.2    18  DT18       -0.5172
    356  OP2       -5.0190    0.2880    6.3670 O.3    18  DT18       -0.4373
    357  O5'       -5.0290    1.7400    8.3330 O.3    18  DT18       -0.3114
    358  C5'       -5.4380    2.8560    9.1160 C.3    18  DT18        0.1811
    359  C4'       -5.2190    2.6450   10.5960 C.3    18  DT18        0.1746
    360  O4'       -6.0690    1.5740   11.0860 O.3    18  DT18       -0.3327
    361  C3'       -3.8170    2.2330   11.0200 C.3    18  DT18        0.1558
    362  O3'       -2.9150    3.3280   11.0830 O.3    18  DT18       -0.3138
    363  C2'       -4.0820    1.5760   12.3700 C.3    18  DT18        0.0866
    364  C1'       -5.4070    0.8610   12.1120 C.3    18  DT18        0.2106
    365  N1        -5.3770   -0.4610   11.6450 N.ar   18  DT18       -0.2559
    366  C2        -5.4180   -1.4920   12.5640 C.ar   18  DT18        0.3545
    367  O2        -5.3970   -1.3090   13.7680 O.2    18  DT18       -0.2443
    368  N3        -5.4830   -2.7520   12.0210 N.ar   18  DT18       -0.1533
    369  C4        -5.5110   -3.0780   10.6810 C.ar   18  DT18        0.2804
    370  O4        -5.5710   -4.2590   10.3470 O.2    18  DT18       -0.2654
    371  C5        -5.4640   -1.9530    9.7900 C.ar   18  DT18        0.0534
    372  C6        -5.4010   -0.7170   10.2910 C.ar   18  DT18        0.0824
    373  C7        -5.4890   -2.2040    8.3110 C.3    18  DT18        0.0377
    374  P         -1.2190    3.2000   10.6460 P.3    19  DA19        0.2141
    375  OP1       -0.1710    4.2430   10.6480 O.3    19  DA19       -0.4373
    376  OP2       -1.7460    2.7200    9.3480 O.2    19  DA19       -0.5172
    377  O5'       -0.6900    1.8800   11.3820 O.3    19  DA19       -0.3114
    378  C5'       -0.0640    1.9700   12.6540 C.3    19  DA19        0.1811
    379  C4'        0.4840    0.6380   13.1130 C.3    19  DA19        0.1746
    380  O4'       -0.6060   -0.2830   13.3820 O.3    19  DA19       -0.3327
    381  C3'        1.3820   -0.1010   12.1290 C.3    19  DA19        0.1558
    382  O3'        2.7210    0.3740   12.1510 O.3    19  DA19       -0.3138
    383  C2'        1.2370   -1.5570   12.5640 C.3    19  DA19        0.0865
    384  C1'       -0.2050   -1.6030   13.0820 C.3    19  DA19        0.2094
    385  N9        -1.1250   -2.1580   12.0570 N.ar   19  DA19       -0.2714
    386  C8        -1.9940   -1.4890   11.2360 C.ar   19  DA19        0.1815
    387  N7        -2.6790   -2.2740   10.4380 N.ar   19  DA19       -0.2193
    388  C5        -2.2280   -3.5450   10.7560 C.ar   19  DA19        0.1518
    389  C6        -2.5630   -4.8190   10.2630 C.ar   19  DA19        0.1919
    390  N6        -3.4690   -5.0250    9.3050 N.pl3  19  DA19       -0.1054
    391  N1        -1.9260   -5.8840   10.7950 N.ar   19  DA19       -0.2040
    392  C2        -1.0190   -5.6750   11.7560 C.ar   19  DA19        0.2016
    393  N3        -0.6200   -4.5290   12.3010 N.ar   19  DA19       -0.2048
    394  C4        -1.2700   -3.4900   11.7510 C.ar   19  DA19        0.1691
    395  P          3.9050   -0.1110   10.8510 P.3    20  DT20        0.2141
    396  OP1        5.1570    0.6700   11.0660 O.3    20  DT20       -0.4373
    397  OP2        2.8730    0.4110    9.9110 O.2    20  DT20       -0.5172
    398  O5'        4.2830   -1.5840   10.3490 O.3    20  DT20       -0.3114
    399  C5'        5.2460   -2.3930   11.0330 C.3    20  DT20        0.1811
    400  C4'        5.1320   -3.8360   10.5740 C.3    20  DT20        0.1746
    401  O4'        3.7560   -4.2760   10.7820 O.3    20  DT20       -0.3327
    402  C3'        5.4120   -4.1130    9.0960 C.3    20  DT20        0.1558
    403  O3'        6.8100   -4.3650    8.8750 O.3    20  DT20       -0.3138
    404  C2'        4.5760   -5.3690    8.8230 C.3    20  DT20        0.0866
    405  C1'        3.3620   -5.1500    9.7370 C.3    20  DT20        0.2106
    406  N1         2.2200   -4.5980    9.0980 N.ar   20  DT20       -0.2559
    407  C2         1.2950   -5.3350    8.3830 C.ar   20  DT20        0.3545
    408  O2         1.3830   -6.5400    8.2270 O.2    20  DT20       -0.2443
    409  N3         0.2560   -4.6070    7.8540 N.ar   20  DT20       -0.1533
    410  C4         0.0550   -3.2470    7.9640 C.ar   20  DT20        0.2804
    411  O4        -0.9280   -2.7360    7.4330 O.2    20  DT20       -0.2654
    412  C5         1.0590   -2.5520    8.7200 C.ar   20  DT20        0.0534
    413  C6         2.0790   -3.2350    9.2460 C.ar   20  DT20        0.0824
    414  C7         0.9290   -1.0680    8.8970 C.3    20  DT20        0.0377
    415  P          7.4200   -4.3410    7.3680 P.3    21  DG21        0.2141
    416  OP1        8.8670   -4.4670    7.2540 O.3    21  DG21       -0.4373
    417  OP2        6.7790   -3.0400    7.1720 O.2    21  DG21       -0.5172
    418  O5'        6.6690   -5.3820    6.3800 O.3    21  DG21       -0.3114
    419  C5'        6.7960   -6.7950    6.6360 C.3    21  DG21        0.1811
    420  C4'        5.9790   -7.6530    5.7070 C.3    21  DG21        0.1746
    421  O4'        4.5820   -7.6220    6.1040 O.3    21  DG21       -0.3327
    422  C3'        5.9170   -7.2070    4.2750 C.3    21  DG21        0.1558
    423  O3'        7.0200   -7.6740    3.5730 O.3    21  DG21       -0.3138
    424  C2'        4.6480   -7.9100    3.7810 C.3    21  DG21        0.0865
    425  C1'        3.7230   -7.7180    4.9680 C.3    21  DG21        0.2094
    426  N9         2.8730   -6.4730    4.9290 N.ar   21  DG21       -0.2713
    427  C8         3.0720   -5.1960    5.3970 C.ar   21  DG21        0.1816
    428  N7         2.1580   -4.3540    5.0010 N.ar   21  DG21       -0.2173
    429  C5         1.3010   -5.1150    4.2280 C.ar   21  DG21        0.1748
    430  C6         0.1220   -4.7530    3.5270 C.ar   21  DG21        0.3023
    431  O6        -0.4150   -3.6410    3.4540 O.2    21  DG21       -0.2633
    432  N1        -0.4430   -5.8390    2.8640 N.ar   21  DG21       -0.1709
    433  C2         0.0650   -7.1160    2.8750 C.ar   21  DG21        0.2606
    434  N2        -0.6210   -8.0310    2.1770 N.pl3  21  DG21       -0.0859
    435  N3         1.1590   -7.4670    3.5210 N.ar   21  DG21       -0.1918
    436  C4         1.7260   -6.4290    4.1710 C.ar   21  DG21        0.1722
    437  P          7.1830   -6.8880    2.2600 P.3    22  DC22        0.2141
    438  OP1        8.5980   -7.2200    1.9720 O.2    22  DC22       -0.5172
    439  OP2        6.7790   -5.4800    2.4750 O.3    22  DC22       -0.4373
    440  O5'        6.2640   -7.3960    1.0540 O.3    22  DC22       -0.3114
    441  C5'        6.3810   -8.7300    0.5850 C.3    22  DC22        0.1811
    442  C4'        5.2380   -9.0980   -0.3260 C.3    22  DC22        0.1746
    443  O4'        3.9870   -8.9550    0.3920 O.3    22  DC22       -0.3327
    444  C3'        5.0450   -8.2080   -1.5390 C.3    22  DC22        0.1558
    445  O3'        5.9330   -8.4840   -2.6010 O.3    22  DC22       -0.3138
    446  C2'        3.5820   -8.4410   -1.8790 C.3    22  DC22        0.0866
    447  C1'        2.9970   -8.4490   -0.4750 C.3    22  DC22        0.2106
    448  N1         2.6390   -7.0940   -0.0680 N.ar   22  DC22       -0.2556
    449  C2         1.5020   -6.4600   -0.5810 C.ar   22  DC22        0.3531
    450  O2         0.8150   -7.0570   -1.4280 O.2    22  DC22       -0.2443
    451  N3         1.1840   -5.2190   -0.1420 N.ar   22  DC22       -0.1739
    452  C4         1.9510   -4.6170    0.7670 C.ar   22  DC22        0.1759
    453  N4         1.5980   -3.3940    1.1700 N.pl3  22  DC22       -0.1070
    454  C5         3.1070   -5.2420    1.3000 C.ar   22  DC22        0.0566
    455  C6         3.4180   -6.4680    0.8630 C.ar   22  DC22        0.0849
    456  P          6.6470   -7.1500   -3.5170 P.3    23  DG23        0.2141
    457  OP1        7.9110   -7.6490   -4.1260 O.2    23  DG23       -0.5172
    458  OP2        6.6660   -5.8810   -2.7380 O.3    23  DG23       -0.4373
    459  O5'        5.5120   -6.9970   -4.6340 O.3    23  DG23       -0.3114
    460  C5'        4.8880   -8.1520   -5.1850 C.3    23  DG23        0.1811
    461  C4'        3.5330   -7.8180   -5.7750 C.3    23  DG23        0.1746
    462  O4'        2.6210   -7.3380   -4.7520 O.3    23  DG23       -0.3327
    463  C3'        3.4750   -6.7570   -6.8570 C.3    23  DG23        0.1558
    464  O3'        3.8280   -7.3060   -8.1180 O.3    23  DG23       -0.3138
    465  C2'        2.0170   -6.3080   -6.8120 C.3    23  DG23        0.0865
    466  C1'        1.6930   -6.4320   -5.3250 C.3    23  DG23        0.2094
    467  N9         1.9080   -5.1860   -4.6840 N.ar   23  DG23       -0.2713
    468  C8         2.8790   -4.9510   -3.7410 C.ar   23  DG23        0.1816
    469  N7         2.7940   -3.7670   -3.1990 N.ar   23  DG23       -0.2173
    470  C5         1.7030   -3.1840   -3.8160 C.ar   23  DG23        0.1748
    471  C6         1.1210   -1.9010   -3.6440 C.ar   23  DG23        0.3025
    472  O6         1.4750   -0.9960   -2.8780 O.2    23  DG23       -0.2633
    473  N1         0.0210   -1.7130   -4.4750 N.ar   23  DG23       -0.1685
    474  C2        -0.4600   -2.6460   -5.3630 C.ar   23  DG23        0.2746
    475  N2        -1.5330   -2.2820   -6.0790 N.ar   23  DG23       -0.1050
    476  N3         0.0700   -3.8410   -5.5340 N.ar   23  DG23       -0.1895
    477  C4         1.1410   -4.0450   -4.7380 C.ar   23  DG23        0.1725
    478  P          3.9130   -6.3290   -9.5220 P.3    24  DT24        0.2141
    479  OP1        4.7720   -6.8060  -10.6270 O.2    24  DT24       -0.5172
    480  OP2        4.2110   -5.0390   -8.8600 O.3    24  DT24       -0.4373
    481  O5'        2.4090   -6.1480  -10.0540 O.3    24  DT24       -0.3114
    482  C5'        2.1230   -5.2500  -11.1230 C.3    24  DT24        0.1811
    483  C4'        0.8360   -4.4940  -10.8870 C.3    24  DT24        0.1746
    484  O4'        0.6310   -4.3500   -9.4550 O.3    24  DT24       -0.3327
    485  C3'        0.7670   -3.0750  -11.4500 C.3    24  DT24        0.1558
    486  O3'        0.3330   -3.0200  -12.8070 O.3    24  DT24       -0.3138
    487  C2'       -0.1860   -2.3690  -10.4890 C.3    24  DT24        0.0866
    488  C1'        0.0800   -3.0850   -9.1580 C.3    24  DT24        0.2106
    489  N1         1.0100   -2.5040   -8.0600 N.ar   24  DT24       -0.2559
    490  C2         0.5090   -1.5180   -7.2310 C.ar   24  DT24        0.3545
    491  O2        -0.6250   -1.0820   -7.3270 O.2    24  DT24       -0.2443
    492  N3         1.3870   -1.0580   -6.2790 N.ar   24  DT24       -0.1533
    493  C4         2.6860   -1.4740   -6.0780 C.ar   24  DT24        0.2804
    494  O4         3.3520   -0.9660   -5.1800 O.2    24  DT24       -0.2654
    495  C5         3.1330   -2.4990   -6.9790 C.ar   24  DT24        0.0534
    496  C6         2.3000   -2.9650   -7.9140 C.ar   24  DT24        0.0824
    497  C7         4.5330   -3.0190   -6.8410 C.3    24  DT24        0.0377
    498  P          0.9630   -2.0280  -13.8560 P.3    25  DA25        0.2141
    499  OP1        0.5620   -2.0450  -15.2960 O.2    25  DA25       -0.5172
    500  OP2        2.4040   -1.9690  -13.4780 O.3    25  DA25       -0.4373
    501  O5'        0.2410   -0.7940  -13.1740 O.3    25  DA25       -0.3114
    502  C5'       -1.1120   -0.5510  -13.4600 C.3    25  DA25        0.1811
    503  C4'       -1.4640    0.8090  -13.0010 C.3    25  DA25        0.1746
    504  O4'       -1.5660    0.8030  -11.5580 O.3    25  DA25       -0.3327
    505  C3'       -0.4040    1.8400  -13.3070 C.3    25  DA25        0.1558
    506  O3'       -0.4870    2.3230  -14.6410 O.3    25  DA25       -0.3138
    507  C2'       -0.6910    2.9020  -12.2500 C.3    25  DA25        0.0865
    508  C1'       -1.1360    2.0530  -11.0600 C.3    25  DA25        0.2094
    509  N9        -0.0840    1.8060  -10.0790 N.ar   25  DA25       -0.2714
    510  C8         0.8190    0.7780  -10.0120 C.ar   25  DA25        0.1815
    511  N7         1.8080    0.9960   -9.1770 N.ar   25  DA25       -0.2193
    512  C5         1.5350    2.2540   -8.6610 C.ar   25  DA25        0.1518
    513  C6         2.2050    3.0570   -7.7230 C.ar   25  DA25        0.1919
    514  N6         3.3360    2.6940   -7.1120 N.pl3  25  DA25       -0.1054
    515  N1         1.6680    4.2600   -7.4300 N.ar   25  DA25       -0.2040
    516  C2         0.5340    4.6230   -8.0420 C.ar   25  DA25        0.2016
    517  N3        -0.1880    3.9560   -8.9390 N.ar   25  DA25       -0.2048
    518  C4         0.3730    2.7650   -9.2090 C.ar   25  DA25        0.1691
    519  P          0.7780    3.2690  -15.3310 P.3    26  DC26        0.2141
    520  OP1        0.6440    3.5710  -16.7850 O.2    26  DC26       -0.5172
    521  OP2        1.9700    2.5180  -14.8290 O.3    26  DC26       -0.4373
    522  O5'        0.6450    4.6530  -14.5470 O.3    26  DC26       -0.3114
    523  C5'       -0.4480    5.5420  -14.8060 C.3    26  DC26        0.1811
    524  C4'       -0.2980    6.8100  -14.0060 C.3    26  DC26        0.1746
    525  O4'       -0.1920    6.4660  -12.6040 O.3    26  DC26       -0.3327
    526  C3'        0.9600    7.6030  -14.2990 C.3    26  DC26        0.1558
    527  O3'        0.7640    8.5450  -15.3370 O.3    26  DC26       -0.3138
    528  C2'        1.2340    8.3270  -12.9940 C.3    26  DC26        0.0866
    529  C1'        0.7460    7.3130  -11.9680 C.3    26  DC26        0.2106
    530  N1         1.7940    6.4490  -11.4420 N.ar   26  DC26       -0.2556
    531  C2         2.5420    6.9310  -10.3620 C.ar   26  DC26        0.3531
    532  O2         2.1960    7.9970   -9.8240 O.2    26  DC26       -0.2443
    533  N3         3.6180    6.2260   -9.9380 N.ar   26  DC26       -0.1739
    534  C4         3.9530    5.0880  -10.5470 C.ar   26  DC26        0.1759
    535  N4         5.0210    4.4280  -10.0940 N.pl3  26  DC26       -0.1070
    536  C5         3.2080    4.5820  -11.6430 C.ar   26  DC26        0.0566
    537  C6         2.1460    5.2810  -12.0590 C.ar   26  DC26        0.0849
    538  P          1.8870    9.2570  -15.8220 P.3    27  DC27        0.2141
    539  OP1        1.6080    9.8400  -17.1560 O.2    27  DC27       -0.5172
    540  OP2        3.0130    8.3120  -15.6370 O.3    27  DC27       -0.4373
    541  O5'        2.0380   10.4590  -14.7840 O.3    27  DC27       -0.3114
    542  C5'        0.9010   11.2510  -14.4990 C.3    27  DC27        0.1811
    543  C4'        1.0760   11.9170  -13.1530 C.3    27  DC27        0.1746
    544  O4'        0.8780   10.9530  -12.0880 O.3    27  DC27       -0.3327
    545  C3'        2.4810   12.4190  -12.8780 C.3    27  DC27        0.1558
    546  O3'        2.7710   13.6060  -13.5990 O.3    27  DC27       -0.3138
    547  C2'        2.3520   12.6460  -11.3810 C.3    27  DC27        0.0866
    548  C1'        1.7170   11.3130  -11.0040 C.3    27  DC27        0.2106
    549  N1         2.8190   10.2200  -10.7940 N.ar   27  DC27       -0.2556
    550  C2         3.4310   10.1240   -9.5390 C.ar   27  DC27        0.3531
    551  O2         3.1750   10.9860   -8.6810 O.2    27  DC27       -0.2443
    552  N3         4.2820    9.0980   -9.2970 N.ar   27  DC27       -0.1739
    553  C4         4.5280    8.1970  -10.2480 C.ar   27  DC27        0.1759
    554  N4         5.3730    7.2030   -9.9640 N.pl3  27  DC27       -0.1070
    555  C5         3.9180    8.2770  -11.5260 C.ar   27  DC27        0.0566
    556  C6         3.0780    9.2910  -11.7610 C.ar   27  DC27        0.0849
    557  P          4.0480   13.5770  -14.3630 P.3    28  DG28        0.2141
    558  OP1        4.1580   14.8290  -15.1520 O.2    28  DG28       -0.5172
    559  OP2        4.5120   12.3030  -14.9530 O.3    28  DG28       -0.4373
    560  O5'        4.8200   13.7800  -12.9880 O.3    28  DG28       -0.3114
    561  C5'        4.5110   14.8850  -12.1460 C.3    28  DG28        0.1811
    562  C4'        5.5020   14.9720  -11.0220 C.3    28  DG28        0.1746
    563  O4'        5.1970   13.9660  -10.0220 O.3    28  DG28       -0.3327
    564  C3'        6.9280   14.6530  -11.4190 C.3    28  DG28        0.1558
    565  O3'        7.5920   15.7340  -12.0450 O.3    28  DG28       -0.3138
    566  C2'        7.5410   14.2910  -10.0810 C.3    28  DG28        0.0865
    567  C1'        6.4070   13.4710   -9.4630 C.3    28  DG28        0.2094
    568  N9         6.5840   12.0490   -9.8480 N.ar   28  DG28       -0.2713
    569  C8         5.9850   11.4260  -10.9160 C.ar   28  DG28        0.1816
    570  N7         6.3410   10.1780  -11.0510 N.ar   28  DG28       -0.2173
    571  C5         7.2260    9.9590  -10.0110 C.ar   28  DG28        0.1748
    572  C6         7.9450    8.7930   -9.6400 C.ar   28  DG28        0.3023
    573  O6         7.9350    7.6820  -10.1840 O.2    28  DG28       -0.2633
    574  N1         8.7370    9.0060   -8.5160 N.ar   28  DG28       -0.1709
    575  C2         8.8260   10.1950   -7.8320 C.ar   28  DG28        0.2606
    576  N2         9.6430   10.2070   -6.7700 N.pl3  28  DG28       -0.0859
    577  N3         8.1650   11.2870   -8.1650 N.ar   28  DG28       -0.1918
    578  C4         7.3900   11.1040   -9.2550 C.ar   28  DG28        0.1722
    579  P          8.8600   15.4310  -13.1610 P.3    29  DT29        0.2141
    580  OP1        9.3920   16.6410  -13.8430 O.3    29  DT29       -0.4373
    581  OP2        8.4700   14.2500  -13.9670 O.2    29  DT29       -0.5172
    582  O5'        9.9270   14.9750  -12.0710 O.3    29  DT29       -0.3114
    583  C5'       10.2080   15.8150  -10.9540 C.3    29  DT29        0.1811
    584  C4'       11.0410   15.0850   -9.9350 C.3    29  DT29        0.1746
    585  O4'       10.2880   13.9960   -9.3340 O.3    29  DT29       -0.3327
    586  C3'       12.2880   14.4090  -10.4560 C.3    29  DT29        0.1558
    587  O3'       13.3510   15.3050  -10.6680 O.3    29  DT29       -0.3138
    588  C2'       12.5770   13.3930   -9.3610 C.3    29  DT29        0.0866
    589  C1'       11.1660   12.9200   -9.0150 C.3    29  DT29        0.2106
    590  N1        10.7980   11.7280   -9.8380 N.ar   29  DT29       -0.2559
    591  C2        11.3320   10.4900   -9.5360 C.ar   29  DT29        0.3545
    592  O2        12.2250   10.3330   -8.7220 O.2    29  DT29       -0.2443
    593  N3        10.7820    9.4360  -10.2240 N.ar   29  DT29       -0.1533
    594  C4         9.7730    9.4950  -11.1630 C.ar   29  DT29        0.2804
    595  O4         9.3830    8.4590  -11.6970 O.2    29  DT29       -0.2654
    596  C5         9.2720   10.8150  -11.4230 C.ar   29  DT29        0.0534
    597  C6         9.7890   11.8580  -10.7670 C.ar   29  DT29        0.0824
    598  C7         8.1730   10.9840  -12.4300 C.3    29  DT29        0.0377
    599  P         14.2760   15.0680  -11.8740 P.3    30  DT30        0.2141
    600  OP1       15.2310   16.1950  -11.9780 O.3    30  DT30       -0.4373
    601  OP2       13.4130   14.7370  -13.0410 O.2    30  DT30       -0.5172
    602  O5'       15.0760   13.7380  -11.5150 O.3    30  DT30       -0.3114
    603  C5'       16.1370   13.7580  -10.5750 C.3    30  DT30        0.1811
    604  C4'       16.8880   12.4550  -10.6360 C.3    30  DT30        0.1746
    605  O4'       16.0970   11.4100  -10.0230 O.3    30  DT30       -0.3327
    606  C3'       17.1930   11.9620  -12.0380 C.3    30  DT30        0.1558
    607  O3'       18.3980   12.5440  -12.5250 O.3    30  DT30       -0.3138
    608  C2'       17.2900   10.4560  -11.8420 C.3    30  DT30        0.0866
    609  C1'       16.2500   10.2060  -10.7470 C.3    30  DT30        0.2106
    610  N1        14.9350    9.7470  -11.1780 N.ar   30  DT30       -0.2559
    611  C2        14.8380    8.3760  -11.3220 C.ar   30  DT30        0.3545
    612  O2        15.6590    7.6010  -10.8660 O.2    30  DT30       -0.2443
    613  N3        13.7400    7.9420  -12.0250 N.ar   30  DT30       -0.1533
    614  C4        12.7510    8.7240  -12.5850 C.ar   30  DT30        0.2804
    615  O4        11.8240    8.1870  -13.1870 O.2    30  DT30       -0.2654
    616  C5        12.9230   10.1360  -12.3930 C.ar   30  DT30        0.0534
    617  C6        13.9820   10.5860  -11.7140 C.ar   30  DT30        0.0824
    618  C7        11.8990   11.0710  -12.9660 C.3    30  DT30        0.0377
    619  P         18.6580   12.5370  -14.2200 P.3    31  DC31        0.2141
    620  OP1       20.0850   12.8570  -14.4560 O.3    31  DC31       -0.4373
    621  OP2       17.5850   13.3340  -14.8550 O.2    31  DC31       -0.5172
    622  O5'       18.3660   11.0440  -14.7090 O.3    31  DC31       -0.3114
    623  C5'       19.2030    9.9780  -14.2870 C.3    31  DC31        0.1811
    624  C4'       18.8050    8.6760  -14.9370 C.3    31  DC31        0.1746
    625  O4'       17.5730    8.1890  -14.3420 O.3    31  DC31       -0.3327
    626  C3'       18.4640    8.7440  -16.4200 C.3    31  DC31        0.1558
    627  O3'       19.5820    8.8500  -17.2840 O.3    31  DC31       -0.3138
    628  C2'       17.6370    7.4770  -16.5990 C.3    31  DC31        0.0866
    629  C1'       16.7950    7.5420  -15.3290 C.3    31  DC31        0.2106
    630  N1        15.5530    8.4390  -15.5040 N.ar   31  DC31       -0.2556
    631  C2        14.4210    7.8980  -16.1240 C.ar   31  DC31        0.3531
    632  O2        14.4510    6.7120  -16.4950 O.2    31  DC31       -0.2443
    633  N3        13.3290    8.6810  -16.3010 N.ar   31  DC31       -0.1739
    634  C4        13.3430    9.9480  -15.8880 C.ar   31  DC31        0.1759
    635  N4        12.2440   10.6810  -16.0840 N.pl3  31  DC31       -0.1070
    636  C5        14.4800   10.5150  -15.2580 C.ar   31  DC31        0.0566
    637  C6        15.5560    9.7390  -15.0840 C.ar   31  DC31        0.0849
    638  P         19.6150   10.1020  -18.0740 P.3    32  DG32        0.2141
    639  OP1       20.8530    9.6110  -17.4350 O.3    32  DG32       -0.4373
    640  OP2       19.3650   11.5710  -18.2170 O.2    32  DG32       -0.5172
    641  O5'       19.6460    9.4030  -19.5370 O.3    32  DG32       -0.3114
    642  C5'       18.6340    9.6380  -20.5490 C.3    32  DG32        0.1811
    643  C4'       18.3490    8.3930  -21.3990 C.3    32  DG32        0.1746
    644  O4'       19.6400    7.7880  -21.6560 O.3    32  DG32       -0.3327
    645  C3'       17.5620    7.3480  -20.6230 C.3    32  DG32        0.1558
    646  O3'       16.1570    7.4820  -20.8700 O.3    32  DG32       -0.3138
    647  C2'       18.0360    6.0900  -21.2980 C.3    32  DG32        0.0865
    648  C1'       19.4980    6.3640  -21.5990 C.3    32  DG32        0.2094
    649  N9        20.3990    5.9760  -20.4330 N.ar   32  DG32       -0.2713
    650  C8        21.1650    6.7420  -19.5890 C.ar   32  DG32        0.1816
    651  N7        21.7210    6.0540  -18.6290 N.ar   32  DG32       -0.2173
    652  C5        21.3000    4.7550  -18.8510 C.ar   32  DG32        0.1748
    653  C6        21.5740    3.5610  -18.1360 C.ar   32  DG32        0.3023
    654  O6        22.2750    3.4170  -17.1260 O.2    32  DG32       -0.2633
    655  N1        20.9420    2.4580  -18.7030 N.ar   32  DG32       -0.1709
    656  C2        20.1440    2.5000  -19.8200 C.ar   32  DG32        0.2606
    657  N2        19.6220    1.3320  -20.2180 N.pl3  32  DG32       -0.0859
    658  N3        19.8790    3.6020  -20.4950 N.ar   32  DG32       -0.1918
    659  C4        20.4810    4.6860  -19.9620 C.ar   32  DG32        0.1722
    660  P         14.9820    7.2850  -19.8610 P.3    33  DA33        0.2141
    661  OP1       13.5820    7.7040  -20.0880 O.2    33  DA33       -0.5172
    662  OP2       15.8210    7.9470  -18.8260 O.3    33  DA33       -0.4373
    663  O5'       14.9210    5.7480  -19.4830 O.3    33  DA33       -0.3114
    664  C5'       14.1170    4.8870  -20.2450 C.3    33  DA33        0.1811
    665  C4'       14.6470    3.4950  -20.1630 C.3    33  DA33        0.1746
    666  O4'       16.0820    3.5160  -20.3790 O.3    33  DA33       -0.3327
    667  C3'       14.4630    2.7850  -18.8370 C.3    33  DA33        0.1558
    668  O3'       13.1440    2.2500  -18.7410 O.3    33  DA33       -0.3138
    669  C2'       15.5270    1.7080  -18.9530 C.3    33  DA33        0.0865
    670  C1'       16.6690    2.4570  -19.6480 C.3    33  DA33        0.2094
    671  N9        17.5150    2.9720  -18.7930 N.ar   33  DA33       -0.2714
    672  C8        17.8260    4.3010  -18.6700 C.ar   33  DA33        0.1815
    673  N7        18.5990    4.5710  -17.6440 N.ar   33  DA33       -0.2193
    674  C5        18.8080    3.3350  -17.0520 C.ar   33  DA33        0.1518
    675  C6        19.5430    2.9410  -15.9200 C.ar   33  DA33        0.1919
    676  N6        20.2310    3.7900  -15.1540 N.pl3  33  DA33       -0.1054
    677  N1        19.5450    1.6290  -15.6010 N.ar   33  DA33       -0.2040
    678  C2        18.8550    0.7800  -16.3700 C.ar   33  DA33        0.2016
    679  N3        18.1290    1.0300  -17.4570 N.ar   33  DA33       -0.2048
    680  C4        18.1460    2.3410  -17.7480 C.ar   33  DA33        0.1691
    681  P         12.3310    2.1850  -17.2570 P.3    34  DT34        0.2141
    682  OP1       11.3010    2.0070  -18.3040 O.2    34  DT34       -0.5172
    683  OP2       12.4100    3.4100  -16.4300 O.3    34  DT34       -0.4373
    684  O5'       12.1640    1.0130  -16.1900 O.3    34  DT34       -0.3114
    685  C5'       12.4520   -0.2980  -16.6470 C.3    34  DT34        0.1811
    686  C4'       13.5750   -0.9300  -15.8610 C.3    34  DT34        0.1746
    687  O4'       14.8180   -0.2030  -16.0440 O.3    34  DT34       -0.3327
    688  C3'       13.3720   -0.9860  -14.3590 C.3    34  DT34        0.1558
    689  O3'       12.5660   -2.0980  -14.0180 O.3    34  DT34       -0.3138
    690  C2'       14.7940   -1.0510  -13.8140 C.3    34  DT34        0.0866
    691  C1'       15.6020   -0.2920  -14.8730 C.3    34  DT34        0.2106
    692  N1        16.1040    0.7510  -14.4060 N.ar   34  DT34       -0.2559
    693  C2        17.1640    0.7670  -13.5200 C.ar   34  DT34        0.3545
    694  O2        17.7490   -0.2410  -13.1650 O.2    34  DT34       -0.2443
    695  N3        17.5170    2.0130  -13.0600 N.ar   34  DT34       -0.1533
    696  C4        16.9300    3.2160  -13.3900 C.ar   34  DT34        0.2804
    697  O4        17.3600    4.2550  -12.8950 O.2    34  DT34       -0.2654
    698  C5        15.8360    3.1160  -14.3140 C.ar   34  DT34        0.0534
    699  C6        15.4720    1.9170  -14.7770 C.ar   34  DT34        0.0824
    700  C7        15.1310    4.3710  -14.7350 C.3    34  DT34        0.0377
    701  P         12.3350   -2.6390  -12.8600 P.3    35  DA35        0.2141
    702  OP1       12.7930   -4.0060  -13.2560 O.2    35  DA35       -0.5172
    703  OP2       10.9140   -2.3160  -12.6230 O.3    35  DA35       -0.4373
    704  O5'       13.1850   -2.1940  -11.6010 O.3    35  DA35       -0.3114
    705  C5'       14.5060   -2.6750  -11.6870 C.3    35  DA35        0.1811
    706  C4'       15.4700   -1.6380  -11.2080 C.3    35  DA35        0.1746
    707  O4'       15.5780   -0.5660  -12.1500 O.3    35  DA35       -0.3327
    708  C3'       15.0050   -0.9400   -9.9510 C.3    35  DA35        0.1558
    709  O3'       15.1090   -1.8110   -8.8410 O.3    35  DA35       -0.3138
    710  C2'       16.0380    0.1600   -9.9760 C.3    35  DA35        0.0865
    711  C1'       15.9050    0.6000  -11.4340 C.3    35  DA35        0.2094
    712  N9        15.0170    1.5700  -11.8670 N.ar   35  DA35       -0.2714
    713  C8        13.7930    1.2810  -12.4120 C.ar   35  DA35        0.1815
    714  N7        13.0420    2.3380  -12.6160 N.ar   35  DA35       -0.2193
    715  C5        13.8260    3.3920  -12.1750 C.ar   35  DA35        0.1518
    716  C6        13.6040    4.7790  -12.1230 C.ar   35  DA35        0.1919
    717  N6        12.4770    5.3630  -12.5370 N.pl3  35  DA35       -0.1054
    718  N1        14.5910    5.5540  -11.6240 N.ar   35  DA35       -0.2040
    719  C2        15.7200    4.9680  -11.2110 C.ar   35  DA35        0.2016
    720  N3        16.0470    3.6770  -11.2100 N.ar   35  DA35       -0.2048
    721  C4        15.0450    2.9340  -11.7100 C.ar   35  DA35        0.1691
    722  P         14.3640   -1.3400   -7.2910 P.3    36  DT36        0.2141
    723  OP1       14.5060   -2.4570   -6.2660 O.3    36  DT36       -0.4373
    724  OP2       13.0840   -1.1290   -7.9330 O.2    36  DT36       -0.5172
    725  O5'       14.6890    0.0470   -6.5160 O.3    36  DT36       -0.3114
    726  C5'       15.8690    0.1990   -5.7660 C.3    36  DT36        0.1811
    727  C4'       16.0260    1.6850   -5.3200 C.3    36  DT36        0.1746
    728  O4'       16.3890    2.4560   -6.4900 O.3    36  DT36       -0.3327
    729  C3'       14.8380    2.3910   -4.7100 C.3    36  DT36        0.1558
    730  O3'       14.7380    2.0910   -3.3190 O.3    36  DT36       -0.3138
    731  C2'       15.1430    3.8690   -5.0490 C.3    36  DT36        0.0866
    732  C1'       15.7330    3.7190   -6.4520 C.3    36  DT36        0.2106
    733  N1        14.6200    3.8590   -7.5330 N.ar   36  DT36       -0.2559
    734  C2        14.2290    5.1410   -7.8680 C.ar   36  DT36        0.3545
    735  O2        14.7200    6.1380   -7.3690 O.2    36  DT36       -0.2443
    736  N3        13.2350    5.2170   -8.8140 N.ar   36  DT36       -0.1533
    737  C4        12.6070    4.1620   -9.4430 C.ar   36  DT36        0.2804
    738  O4        11.7300    4.3890  -10.2740 O.2    36  DT36       -0.2654
    739  C5        13.0680    2.8630   -9.0410 C.ar   36  DT36        0.0534
    740  C6        14.0330    2.7610   -8.1230 C.ar   36  DT36        0.0824
    741  C7        12.4460    1.6510   -9.6690 C.3    36  DT36        0.0377
    742  P         13.3550    2.0250   -2.6450 P.3    37  DC37        0.2141
    743  OP1       13.5890    1.2630   -1.3900 O.3    37  DC37       -0.4373
    744  OP2       12.5480    1.4220   -3.7370 O.2    37  DC37       -0.5172
    745  O5'       12.7480    3.4400   -2.2710 O.3    37  DC37       -0.3114
    746  C5'       13.4160    4.2260   -1.3220 C.3    37  DC37        0.1811
    747  C4'       13.3810    5.6540   -1.7320 C.3    37  DC37        0.1746
    748  O4'       13.5340    5.6990   -3.1700 O.3    37  DC37       -0.3327
    749  C3'       12.0240    6.2890   -1.5410 C.3    37  DC37        0.1558
    750  O3'       11.7600    6.6410   -0.1980 O.3    37  DC37       -0.3138
    751  C2'       12.0780    7.4520   -2.5120 C.3    37  DC37        0.0866
    752  C1'       12.7990    6.7970   -3.6870 C.3    37  DC37        0.2106
    753  N1        11.9460    6.3810   -4.7120 N.ar   37  DC37       -0.2556
    754  C2        11.2340    7.2640   -5.5330 C.ar   37  DC37        0.3531
    755  O2        11.2530    8.4770   -5.2640 O.2    37  DC37       -0.2443
    756  N3        10.5470    6.7710   -6.5900 N.ar   37  DC37       -0.1739
    757  C4        10.5540    5.4610   -6.8390 C.ar   37  DC37        0.1759
    758  N4         9.8620    5.0210   -7.8930 N.pl3  37  DC37       -0.1070
    759  C5        11.2690    4.5500   -6.0200 C.ar   37  DC37        0.0566
    760  C6        11.9470    5.0410   -4.9760 C.ar   37  DC37        0.0849
    761  P         10.3850    6.2810    0.3480 P.3    38  DG38        0.2141
    762  OP1       10.3790    6.5180    1.8080 O.3    38  DG38       -0.4373
    763  OP2       10.0230    4.9560   -0.2050 O.2    38  DG38       -0.5172
    764  O5'        9.4310    7.3630   -0.3210 O.3    38  DG38       -0.3114
    765  C5'        9.3090    8.6350    0.2780 C.3    38  DG38        0.1811
    766  C4'        8.7470    9.5990   -0.7380 C.3    38  DG38        0.1746
    767  O4'        9.2190    9.2370   -2.0600 O.3    38  DG38       -0.3327
    768  C3'        7.2480    9.5140   -0.9170 C.3    38  DG38        0.1558
    769  O3'        6.5830   10.1410    0.1470 O.3    38  DG38       -0.3138
    770  C2'        7.1020   10.2650   -2.2310 C.3    38  DG38        0.0865
    771  C1'        8.2340    9.6090   -3.0180 C.3    38  DG38        0.2094
    772  N9         7.8100    8.4210   -3.7360 N.ar   38  DG38       -0.2713
    773  C8         8.3340    7.1600   -3.5830 C.ar   38  DG38        0.1816
    774  N7         8.0100    6.3470   -4.5510 N.ar   38  DG38       -0.2173
    775  C5         7.2270    7.1120   -5.3950 C.ar   38  DG38        0.1748
    776  C6         6.5830    6.7770   -6.6140 C.ar   38  DG38        0.3023
    777  O6         6.5830    5.6910   -7.2070 O.2    38  DG38       -0.2633
    778  N1         5.8860    7.8570   -7.1480 N.ar   38  DG38       -0.1709
    779  C2         5.8170    9.1060   -6.5780 C.ar   38  DG38        0.2606
    780  N2         5.0960   10.0200   -7.2420 N.pl3  38  DG38       -0.0859
    781  N3         6.4090    9.4320   -5.4460 N.ar   38  DG38       -0.1918
    782  C4         7.0920    8.3980   -4.9090 C.ar   38  DG38        0.1722
    783  P          5.4360    9.4410    0.6240 P.3    39  DT39        0.2141
    784  OP1        5.0580   10.5350    1.5500 O.3    39  DT39       -0.4373
    785  OP2        5.0450    8.0350    0.9590 O.2    39  DT39       -0.5172
    786  O5'        4.8420    9.7530   -0.8200 O.3    39  DT39       -0.3114
    787  C5'        4.5890   11.0890   -1.2200 C.3    39  DT39        0.1811
    788  C4'        3.6320   11.1020   -2.3760 C.3    39  DT39        0.1746
    789  O4'        4.2790   10.5300   -3.5480 O.3    39  DT39       -0.3327
    790  C3'        2.3900   10.2540   -2.1990 C.3    39  DT39        0.1558
    791  O3'        1.4120   10.8960   -1.3910 O.3    39  DT39       -0.3138
    792  C2'        1.9730    9.9830   -3.6440 C.3    39  DT39        0.0866
    793  C1'        3.3320    9.8330   -4.3310 C.3    39  DT39        0.2106
    794  N1         3.7530    8.4290   -4.4250 N.ar   39  DT39       -0.2559
    795  C2         3.1790    7.6480   -5.4110 C.ar   39  DT39        0.3545
    796  O2         2.3540    8.0750   -6.1990 O.2    39  DT39       -0.2443
    797  N3         3.6060    6.3430   -5.4410 N.ar   39  DT39       -0.1533
    798  C4         4.5300    5.7520   -4.6030 C.ar   39  DT39        0.2804
    799  O4         4.8130    4.5670   -4.7540 O.2    39  DT39       -0.2654
    800  C5         5.0800    6.6270   -3.6060 C.ar   39  DT39        0.0534
    801  C6         4.6820    7.9010   -3.5540 C.ar   39  DT39        0.0824
    802  C7         6.0930    6.0780   -2.6460 C.3    39  DT39        0.0377
    803  P          0.8930   10.4640   -1.3600 P.3    40  DG40        0.2141
    804  OP1        0.0190   11.2720   -0.4680 O.3    40  DG40       -0.4373
    805  OP2        1.6100    9.2790   -0.8130 O.2    40  DG40       -0.5172
    806  O5'        0.0550    9.9790   -2.6270 O.3    40  DG40       -0.3114
    807  C5'       -1.1500    9.2520   -2.4480 C.3    40  DG40        0.1811
    808  C4'       -1.9830    9.2700   -3.7070 C.3    40  DG40        0.1753
    809  O4'       -1.4690    8.2860   -4.6490 O.3    40  DG40       -0.3510
    810  C3'       -3.4140    8.8310   -3.4480 C.3    40  DG40        0.1839
    811  O3'       -4.2110    9.9180   -3.0040 O.3    40  DG40       -0.2204
    812  C2'       -3.8390    8.2370   -4.7840 C.3    40  DG40        0.0676
    813  C1'       -2.5430    7.5590   -5.2300 C.3    40  DG40        0.1450
    814  N9        -0.3080    6.4880   -4.6900 N.2    40  DG40       -0.0121
    815  C8         0.8080    6.6990   -3.9180 C.2    40  DG40        0.3352
    816  N7         1.5610    5.6400   -3.8000 N.2    40  DG40       -0.2043
    817  C5         0.9080    4.6710   -4.5380 C.3    40  DG40        0.3111
    818  C6         1.2430    3.3140   -4.7820 C.2    40  DG40        0.3535
    819  O6         2.2260    2.6830   -4.3740 O.2    40  DG40       -0.2506
    820  N1         0.3010    2.6820   -5.5880 N.am   40  DG40        0.0118
    821  C2        -0.8250    3.2830   -6.0970 C.2    40  DG40        0.5150
    822  N2        -1.6160    2.5110   -6.8550 N.pl3  40  DG40        0.1551
    823  N3        -1.1510    4.5410   -5.8780 N.pl3  40  DG40        0.0626
    824  C4        -0.2500    5.1750   -5.0970 C.2    40  DG40        0.3827
@<TRIPOS>BOND
     1   644   648    1
     2   644   643    1
     3   648   647    1
     4   648   649    1
     5   643   645    1
     6   643   642    1
     7   647   645    1
     8   646   645    1
     9   646   660    1
    10   642   641    1
    11   658   659   ar
    12   658   656   ar
    13   649   659   ar
    14   649   650   ar
    15   666   665    1
    16   666   670    1
    17   664   665    1
    18   664   663    1
    19   657   656    1
    20   665   667    1
    21   661   660    2
    22   659   652   ar
    23   660   663    1
    24   660   662    1
    25   656   655   ar
    26   670   669    1
    27   670   671    1
    28   650   651   ar
    29   641   638    1
    30   669   667    1
    31   652   651   ar
    32   652   653   ar
    33   667   668    1
    34   671   672   ar
    35   671   680   ar
    36   668   681    1
    37   655   653   ar
    38   672   673   ar
    39   682   681    2
    40   640   638    2
    41   653   654    2
    42   638   639    1
    43   638   627    1
    44   680   679   ar
    45   680   674   ar
    46   673   674   ar
    47   679   678   ar
    48   627   626    1
    49   681   683    1
    50   681   684    1
    51   539   538    2
    52   674   675   ar
    53   520   519    2
    54   685   684    1
    55   685   686    1
    56   628   626    1
    57   628   629    1
    58   632   631    2
    59   626   624    1
    60   678   677   ar
    61   633   631   ar
    62   633   634   ar
    63   631   630   ar
    64   635   634    1
    65   687   686    1
    66   687   691    1
    67   675   677   ar
    68   675   676    1
    69   634   636   ar
    70   686   688    1
    71   538   540    1
    72   538   527    1
    73   538   541    1
    74   630   629    1
    75   630   637   ar
    76   527   526    1
    77   519   521    1
    78   519   506    1
    79   519   522    1
    80   629   625    1
    81   499   498    2
    82   636   637   ar
    83   558   557    2
    84   559   557    1
    85   624   625    1
    86   624   623    1
    87   691   692    1
    88   691   690    1
    89   621   619    2
    90   523   522    1
    91   523   524    1
    92   541   542    1
    93   699   692   ar
    94   699   698   ar
    95   700   698    1
    96   622   623    1
    97   622   619    1
    98   506   505    1
    99   542   543    1
   100   620   619    1
   101   692   693   ar
   102   557   546    1
   103   557   560    1
   104   688   689    1
   105   688   690    1
   106   698   696   ar
   107   526   524    1
   108   526   528    1
   109   619   607    1
   110   689   701    1
   111   524   525    1
   112   581   579    2
   113   498   500    1
   114   498   501    1
   115   498   486    1
   116   580   579    1
   117   546   545    1
   118   693   694    2
   119   693   695   ar
   120   502   501    1
   121   502   503    1
   122   696   695   ar
   123   696   697    2
   124   505   503    1
   125   505   507    1
   126   702   701    2
   127   615   614    2
   128   579   582    1
   129   579   565    1
   130   543   545    1
   131   543   544    1
   132   601   599    2
   133   503   504    1
   134   528   529    1
   135   560   561    1
   136   618   616    1
   137   545   547    1
   138   701   703    1
   139   701   704    1
   140   486   485    1
   141   714   713   ar
   142   714   715   ar
   143   525   529    1
   144   614   616   ar
   145   614   613   ar
   146   717   716    1
   147   607   606    1
   148   598   596    1
   149   713   712   ar
   150   616   617   ar
   151   507   508    1
   152   715   716   ar
   153   715   721   ar
   154   707   711    1
   155   707   706    1
   156   561   562    1
   157   716   718   ar
   158   544   548    1
   159   582   583    1
   160   537   536   ar
   161   537   530   ar
   162   565   564    1
   163   606   608    1
   164   606   604    1
   165   613   611   ar
   166   600   599    1
   167   529   530    1
   168   599   602    1
   169   599   587    1
   170   712   721   ar
   171   712   711    1
   172   608   609    1
   173   556   555   ar
   174   556   549   ar
   175   617   610   ar
   176   721   720   ar
   177   595   594    2
   178   705   704    1
   179   705   706    1
   180   536   534   ar
   181   718   719   ar
   182   504   508    1
   183   555   553   ar
   184   602   603    1
   185   485   483    1
   186   485   487    1
   187   530   531   ar
   188   711   710    1
   189   596   594   ar
   190   596   597   ar
   191   564   562    1
   192   564   566    1
   193   547   548    1
   194   611   610   ar
   195   611   612    2
   196   719   720   ar
   197   706   708    1
   198   610   609    1
   199   594   593   ar
   200   482   483    1
   201   482   481    1
   202   508   509    1
   203   570   569   ar
   204   570   571   ar
   205   562   563    1
   206   548   549    1
   207   583   584    1
   208   569   568   ar
   209   483   484    1
   210   549   550   ar
   211   597   590   ar
   212   609   605    1
   213   587   586    1
   214   604   603    1
   215   604   605    1
   216   479   478    2
   217   534   535    1
   218   534   533   ar
   219   487   488    1
   220   586   584    1
   221   586   588    1
   222   531   533   ar
   223   531   532    2
   224   738   737    2
   225   553   554    1
   226   553   552   ar
   227   593   591   ar
   228   573   572    2
   229   566   567    1
   230   509   510   ar
   231   509   518   ar
   232   481   478    1
   233   563   567    1
   234   510   511   ar
   235   571   572   ar
   236   571   578   ar
   237   710   708    1
   238   708   709    1
   239   584   585    1
   240   568   567    1
   241   568   578   ar
   242   590   591   ar
   243   590   589    1
   244   741   739    1
   245   572   574   ar
   246   550   552   ar
   247   550   551    2
   248   591   592    2
   249   478   480    1
   250   478   464    1
   251   484   488    1
   252   737   739   ar
   253   737   736   ar
   254   588   589    1
   255   585   589    1
   256   578   577   ar
   257   518   517   ar
   258   518   512   ar
   259   511   512   ar
   260   488   489    1
   261   739   740   ar
   262   517   516   ar
   263   709   722    1
   264   736   734   ar
   265   512   513   ar
   266   574   575   ar
   267   577   575   ar
   268   740   733   ar
   269   464   463    1
   270   489   496   ar
   271   489   490   ar
   272   516   515   ar
   273   724   722    2
   274   496   495   ar
   275   758   757    1
   276   734   733   ar
   277   734   735    2
   278   575   576    1
   279   513   515   ar
   280   513   514    1
   281   733   732    1
   282   491   490    2
   283   722   725    1
   284   722   723    1
   285   780   779    1
   286   490   492   ar
   287   777   776    2
   288   778   776   ar
   289   778   779   ar
   290   495   497    1
   291   495   493   ar
   292   463   465    1
   293   463   461    1
   294   822   821    1
   295   757   756   ar
   296   757   759   ar
   297   465   466    1
   298   776   775   ar
   299   756   754   ar
   300   779   781   ar
   301   725   726    1
   302   728   732    1
   303   728   727    1
   304   732   731    1
   305   492   493   ar
   306   796   795    2
   307   821   823    1
   308   821   820    2
   309   475    17   ar
   310   475   474   ar
   311   493   494    2
   312   759   760   ar
   313   823   824    1
   314    17    16   ar
   315   461   460    1
   316   461   462    1
   317   726   727    1
   318   820   818    1
   319   476   474   ar
   320   476   477   ar
   321   754   755    2
   322   754   753   ar
   323   781   782   ar
   324   797   795   ar
   325   797   798   ar
   326   795   794   ar
   327   775   782   ar
   328   775   774   ar
   329   474   473   ar
   330   466   462    1
   331   466   467    1
   332   727   729    1
   333   813   812    1
   334   813   809    1
   335   460   459    1
   336   824   814    2
   337   824   817    1
   338   731   729    1
   339    18    16   ar
   340    18    19   ar
   341   760   753   ar
   342   782   772   ar
   343    16    15   ar
   344     8     7    1
   345     8     4    1
   346     8     9    1
   347   812   810    1
   348   818   817    1
   349   818   819    2
   350   799   798    2
   351   477   467   ar
   352   477   470   ar
   353   753   752    1
   354     7     5    1
   355   729   730    1
   356   814   815    1
   357   467   468   ar
   358   809   808    1
   359   459   456    1
   360   798   800   ar
   361    26    25    1
   362    26    30    1
   363    25    24    1
   364    25    27    1
   365   774   773   ar
   366   817   816    1
   367     4     3    1
   368   473    15   ar
   369   473   471   ar
   370   794   793    1
   371   794   801   ar
   372   793   792    1
   373   793   789    1
   374    24    23    1
   375    30    29    1
   376    30    31    1
   377   457   456    2
   378     3     5    1
   379     3     2    1
   380    19     9   ar
   381    19    12   ar
   382    29    27    1
   383     9    10   ar
   384   815   816    2
   385    15    13   ar
   386   470   471   ar
   387   470   469   ar
   388   468   469   ar
   389   744   742    2
   390   772   773   ar
   391   772   771    1
   392    28    27    1
   393    28    42    1
   394   808   810    1
   395   808   807    1
   396   752   748    1
   397   752   751    1
   398   792   790    1
   399   471   472    2
   400     5     6    1
   401     6    20    1
   402   800   801   ar
   403   800   802    1
   404   789   788    1
   405   456   458    1
   406   456   445    1
   407   810   811    1
   408   730   742    1
   409    31    41   ar
   410    31    32   ar
   411   748   747    1
   412    40    41   ar
   413    40    38   ar
   414    46    47    1
   415    46    45    1
   416     2     1    1
   417    12    13   ar
   418    12    11   ar
   419   771   770    1
   420   771   767    1
   421    23    20    1
   422    13    14    2
   423    10    11   ar
   424    43    42    2
   425    39    38    1
   426    20    21    2
   427    20    22    1
   428    48    47    1
   429    48    52    1
   430    41    34   ar
   431   742   745    1
   432   742   743    1
   433   806   807    1
   434   806   803    1
   435   445   444    1
   436    47    49    1
   437    42    45    1
   438    42    44    1
   439   751   749    1
   440    38    37   ar
   441    32    33   ar
   442   788   790    1
   443   788   787    1
   444   745   746    1
   445   770   768    1
   446   790   791    1
   447   767   766    1
   448   446   444    1
   449   446   447    1
   450   747   749    1
   451   747   746    1
   452    34    33   ar
   453    34    35   ar
   454    52    53    1
   455    52    51    1
   456   749   750    1
   457   444   442    1
   458    37    35   ar
   459   450   449    2
   460   791   803    1
   461   803   805    2
   462   803   804    1
   463   787   786    1
   464    49    50    1
   465    49    51    1
   466    35    36    2
   467   768   766    1
   468   768   769    1
   469    53    60   ar
   470    53    54   ar
   471    50    61    1
   472    60    59   ar
   473   786   783    1
   474   766   765    1
   475   449   451   ar
   476   449   448   ar
   477   447   448    1
   478   447   443    1
   479   442   443    1
   480   442   441    1
   481   764   765    1
   482   764   761    1
   483   763   761    2
   484   750   761    1
   485    55    54    2
   486   451   452   ar
   487    54    56   ar
   488   448   455   ar
   489    59    57   ar
   490   769   783    1
   491   761   762    1
   492   441   440    1
   493   783   785    2
   494   783   784    1
   495    61    62    2
   496    61    63    1
   497    61    64    1
   498    56    57   ar
   499    65    64    1
   500    65    66    1
   501   452   453    1
   502   452   454   ar
   503    57    58    1
   504   455   454   ar
   505   440   437    1
   506    67    66    1
   507    67    71    1
   508    66    68    1
   509   316   315    2
   510   438   437    2
   511   434   433    1
   512   437   439    1
   513   437   423    1
   514    71    72    1
   515    71    70    1
   516   336   335    2
   517   302   315    1
   518   302   301    1
   519   432   433   ar
   520   432   430   ar
   521   433   435   ar
   522   319   318    1
   523   319   320    1
   524    68    69    1
   525    68    70    1
   526    72    73   ar
   527    72    81   ar
   528    73    74   ar
   529   318   315    1
   530   315   317    1
   531    69    82    1
   532   431   430    2
   533   435   436   ar
   534   430   429   ar
   535   423   422    1
   536   323   335    1
   537   323   322    1
   538   299   301    1
   539   299   298    1
   540   299   300    1
   541    74    75   ar
   542   424   422    1
   543   424   425    1
   544    81    80   ar
   545    81    75   ar
   546   335   337    1
   547   335   338    1
   548   301   303    1
   549   320   322    1
   550   320   321    1
   551    80    79   ar
   552   303   304    1
   553   436   429   ar
   554   436   426   ar
   555   429   428   ar
   556    75    76   ar
   557   298   297    1
   558   422   420    1
   559   300   304    1
   560   322   324    1
   561   304   305    1
   562    82    83    2
   563    82    84    1
   564    82    85    1
   565    79    78   ar
   566   426   425    1
   567   426   427   ar
   568    88    87    1
   569    88    92    1
   570   425   421    1
   571   339   338    1
   572   339   340    1
   573    86    85    1
   574    86    87    1
   575   428   427   ar
   576   270   269    1
   577    76    78   ar
   578    76    77    1
   579   321   325    1
   580   295   294    2
   581   291   292   ar
   582   291   290   ar
   583   292   293   ar
   584    87    89    1
   585    94    95   ar
   586    94    93   ar
   587   297   294    1
   588   420   421    1
   589   420   419    1
   590   324   325    1
   591   282   283    1
   592   282   280    1
   593    92    93    1
   594    92    91    1
   595    95    96   ar
   596   305   314   ar
   597   305   306   ar
   598    93   103   ar
   599   355   354    2
   600   343   342    1
   601   343   354    1
   602   281   294    1
   603   281   280    1
   604   294   296    1
   605   269   268   ar
   606   269   271   ar
   607   340   342    1
   608   340   341    1
   609   268   266   ar
   610   325   326    1
   611   356   354    1
   612   418   419    1
   613   418   415    1
   614   290   288   ar
   615   313   314   ar
   616   313   312   ar
   617    96   103   ar
   618    96    97   ar
   619   103   102   ar
   620   342   344    1
   621   283   284    1
   622   283   279    1
   623   314   308   ar
   624   280   278    1
   625   306   307   ar
   626   354   357    1
   627   293   284   ar
   628   293   287   ar
   629    89    91    1
   630    89    90    1
   631    97    98    2
   632    97    99   ar
   633   333   326   ar
   634   333   332   ar
   635   417   415    2
   636   102   100   ar
   637   271   272   ar
   638   416   415    1
   639   284   285   ar
   640   341   345    1
   641   267   266    2
   642   415   403    1
   643   326   327   ar
   644   266   265   ar
   645   411   410    2
   646   312   311   ar
   647   278   279    1
   648   278   277    1
   649    99   100   ar
   650   288   287   ar
   651   288   289    1
   652   100   101    1
   653   334   332    1
   654   409   410   ar
   655   409   407   ar
   656    90   104    1
   657   287   286   ar
   658   410   412   ar
   659   308   307   ar
   660   308   309   ar
   661   332   330   ar
   662   344   345    1
   663   408   407    2
   664   353   352   ar
   665   353   346   ar
   666   373   371    1
   667   357   358    1
   668   272   265   ar
   669   272   262   ar
   670   407   406   ar
   671   265   264   ar
   672   345   346    1
   673   327   328    2
   674   327   329   ar
   675   285   286   ar
   676   412   414    1
   677   412   413   ar
   678   311   309   ar
   679   123   121    1
   680   352   350   ar
   681   404   402    1
   682   404   405    1
   683   277   276    1
   684   403   402    1
   685   346   347   ar
   686   309   310    1
   687   106   104    2
   688   402   400    1
   689   406   413   ar
   690   406   405    1
   691   358   359    1
   692   120   119    2
   693   390   389    1
   694   376   374    2
   695   330   329   ar
   696   330   331    2
   697   104   105    1
   698   104   107    1
   699   121   119   ar
   700   121   122   ar
   701   262   261    1
   702   262   263   ar
   703   119   118   ar
   704   276   273    1
   705   405   401    1
   706   371   372   ar
   707   371   369   ar
   708   264   263   ar
   709   260   261    1
   710   260   258    1
   711   397   395    2
   712   261   257    1
   713   122   115   ar
   714   350   351    1
   715   350   349   ar
   716   389   388   ar
   717   389   391   ar
   718   372   365   ar
   719   310   229   ar
   720   310   230   ar
   721   370   369    2
   722   398   395    1
   723   398   399    1
   724   118   116   ar
   725   107   108    1
   726   387   388   ar
   727   387   386   ar
   728   347   349   ar
   729   347   348    2
   730   110   114    1
   731   110   109    1
   732   400   401    1
   733   400   399    1
   734   359   361    1
   735   359   360    1
   736   374   375    1
   737   374   362    1
   738   374   377    1
   739   229   228   ar
   740   369   368   ar
   741   115   116   ar
   742   115   114    1
   743   388   394   ar
   744   108   109    1
   745   391   392   ar
   746   395   396    1
   747   395   382    1
   748   207   206    1
   749   116   117    2
   750   361   362    1
   751   361   363    1
   752   360   364    1
   753   114   113    1
   754   386   385   ar
   755   273   259    1
   756   273   275    2
   757   273   274    1
   758   257   256    1
   759   258   259    1
   760   258   256    1
   761   377   378    1
   762   109   111    1
   763   365   364    1
   764   365   366   ar
   765   228   230   ar
   766   228   227   ar
   767   205   206   ar
   768   205   203   ar
   769   394   385   ar
   770   394   393   ar
   771   392   393   ar
   772   140   139    2
   773   206   208   ar
   774   230   231   ar
   775   368   366   ar
   776   385   384    1
   777   364   363    1
   778   256   255    1
   779   381   382    1
   780   381   383    1
   781   381   379    1
   782   204   203    2
   783   227   225   ar
   784   383   384    1
   785   366   367    2
   786   111   113    1
   787   111   112    1
   788   378   379    1
   789   203   202   ar
   790   139   141   ar
   791   139   138   ar
   792   241   242    1
   793   241   239    1
   794   220   219    1
   795   220   221    1
   796   220   216    1
   797   242   238    1
   798   242   243    1
   799   219   217    1
   800   231   221   ar
   801   231   224   ar
   802   245   244    2
   803   137   138   ar
   804   137   136   ar
   805   384   380    1
   806   379   380    1
   807   208   209   ar
   808   238   237    1
   809   141   142   ar
   810   138   145   ar
   811   237   239    1
   812   237   236    1
   813   254   255    1
   814   254   251    1
   815   240   239    1
   816   240   251    1
   817   221   222   ar
   818   225   224   ar
   819   225   226    2
   820   185   184    1
   821   216   215    1
   822   182   181    2
   823   183   181   ar
   824   183   184   ar
   825   136   135   ar
   826   252   251    2
   827   112   125    1
   828   224   223   ar
   829   244   243   ar
   830   244   246   ar
   831   243   250   ar
   832   202   209   ar
   833   202   201   ar
   834   162   161    2
   835   209   199   ar
   836   142   143    1
   837   142   144   ar
   838   145   135   ar
   839   145   144   ar
   840   236   235    1
   841   251   253    1
   842   181   180   ar
   843   217   215    1
   844   217   218    1
   845   184   186   ar
   846   215   214    1
   847   135   134    1
   848   218   232    1
   849   222   223   ar
   850   246   247   ar
   851   250   249   ar
   852   124   126    1
   853   124   125    1
   854   124   127    1
   855   161   160   ar
   856   161   163   ar
   857   201   200   ar
   858   233   232    2
   859   235   232    1
   860   199   198    1
   861   199   200   ar
   862   128   127    1
   863   128   129    1
   864   160   158   ar
   865   165   163    1
   866   186   187   ar
   867   247   249   ar
   868   247   248    1
   869   180   187   ar
   870   180   179   ar
   871   130   134    1
   872   130   129    1
   873   214   213    1
   874   232   234    1
   875   134   133    1
   876   198   197    1
   877   198   194    1
   878   163   164   ar
   879   197   195    1
   880   187   177   ar
   881   213   210    1
   882   129   131    1
   883   179   178   ar
   884   158   159    2
   885   158   157   ar
   886   164   157   ar
   887   194   193    1
   888   131   133    1
   889   131   132    1
   890   157   156    1
   891   177   178   ar
   892   177   176    1
   893   195   193    1
   894   195   196    1
   895   210   196    1
   896   210   211    2
   897   210   212    1
   898   148   146    2
   899   193   192    1
   900   132   146    1
   901   176   175    1
   902   176   172    1
   903   156   152    1
   904   156   155    1
   905   175   173    1
   906   152   151    1
   907   191   192    1
   908   191   188    1
   909   146   149    1
   910   146   147    1
   911   149   150    1
   912   172   171    1
   913   155   153    1
   914   173   174    1
   915   173   171    1
   916   190   188    2
   917   153   151    1
   918   153   154    1
   919   151   150    1
   920   188   174    1
   921   188   189    1
   922   171   170    1
   923   168   166    2
   924   169   170    1
   925   169   166    1
   926   154   166    1
   927   166   167    1
