@<TRIPOS>MOLECULE
dna.pdb
 1642 1843 0 0 0
SMALL
GASTEIGER

@<TRIPOS>ATOM
      1  O5'       15.6630   17.8960   14.0050 O.3     1  DA1        -0.2176
      2  C5'       16.4990   16.7940   14.3490 C.3     1  DA1         0.2140
      3  C4'       15.7140   15.7590   15.1040 C.3     1  DA1         0.1774
      4  O4'       15.2280   16.3320   16.3470 O.3     1  DA1        -0.3348
      5  C3'       14.4380   15.2090   14.4520 C.3     1  DA1         0.1556
      6  O3'       14.7350   14.2110   13.5040 O.3     1  DA1        -0.3139
      7  C2'       13.8410   14.5230   15.6930 C.3     1  DA1         0.0835
      8  C1'       14.0850   15.5940   16.7620 C.3     1  DA1         0.1974
      9  N9        12.9350   16.5750   16.9820 N.pl3   1  DA1        -0.2458
     10  C8        12.9810   17.9030   16.6500 C.2     1  DA1         0.1669
     11  N7        11.9430   18.5890   17.0650 N.2     1  DA1        -0.2210
     12  C5        11.1600   17.6460   17.7130 C.2     1  DA1         0.1843
     13  C6         9.9230   17.7370   18.3750 C.2     1  DA1         0.3639
     14  N6         9.2320   18.8730   18.4980 N.pl3   1  DA1         0.1187
     15  N1         9.4160   16.6080   18.9130 N.pl3   1  DA1        -0.1448
     16  C2        10.1100   15.4710   18.7910 C.2     1  DA1         0.2794
     17  N3        11.2810   15.2600   18.1940 N.2     1  DA1        -0.2058
     18  C4        11.7580   16.4010   17.6690 C.3     1  DA1         0.2329
     19  P         13.4780   13.4630   12.5250 P.3     2  DG2         0.2141
     20  OP1       13.8320   12.6400   11.3500 O.2     2  DG2        -0.5172
     21  OP2       13.1920   14.9030   12.3520 O.3     2  DG2        -0.4373
     22  O5'       12.1620   12.8640   13.1860 O.3     2  DG2        -0.3114
     23  C5'       11.8660   11.4640   13.1400 C.3     2  DG2         0.1811
     24  C4'       10.9110   11.0970   14.2590 C.3     2  DG2         0.1746
     25  O4'       10.9690   12.0820   15.3350 O.3     2  DG2        -0.3327
     26  C3'        9.4480   11.0240   13.8770 C.3     2  DG2         0.1558
     27  O3'        9.1850    9.7390   13.3600 O.3     2  DG2        -0.3138
     28  C2'        8.7530   11.2390   15.2140 C.3     2  DG2         0.0865
     29  C1'        9.6840   12.2380   15.9030 C.3     2  DG2         0.2094
     30  N9         9.2750   13.6120   15.6990 N.ar    2  DG2        -0.2713
     31  C8         9.8710   14.5560   14.8980 C.ar    2  DG2         0.1816
     32  N7         9.1630   15.6440   14.7680 N.ar    2  DG2        -0.2173
     33  C5         8.0320   15.4100   15.5290 C.ar    2  DG2         0.1748
     34  C6         6.8980   16.2270   15.7730 C.ar    2  DG2         0.3023
     35  O6         6.6670   17.3640   15.3450 O.2     2  DG2        -0.2633
     36  N1         5.9750   15.6010   16.6060 N.ar    2  DG2        -0.1709
     37  C2         6.1260   14.3430   17.1390 C.ar    2  DG2         0.2606
     38  N2         5.1290   13.9090   17.9210 N.pl3   2  DG2        -0.0859
     39  N3         7.1730   13.5720   16.9200 N.ar    2  DG2        -0.1918
     40  C4         8.0820   14.1590   16.1130 C.ar    2  DG2         0.1722
     41  P          7.9850    9.5450   12.3640 P.3     3  DC3         0.2141
     42  OP1        7.6180    8.2380   11.7750 O.3     3  DC3        -0.4373
     43  OP2        7.8610   10.7740   11.5520 O.2     3  DC3        -0.5172
     44  O5'        7.0610    9.8310   13.6400 O.3     3  DC3        -0.3114
     45  C5'        6.9080    8.8570   14.6650 C.3     3  DC3         0.1811
     46  C4'        5.6900    9.1380   15.5080 C.3     3  DC3         0.1746
     47  O4'        5.8430   10.4250   16.1570 O.3     3  DC3        -0.3327
     48  C3'        4.3840    9.2540   14.7390 C.3     3  DC3         0.1558
     49  O3'        3.7840    7.9990   14.4910 O.3     3  DC3        -0.3138
     50  C2'        3.5430   10.1710   15.6160 C.3     3  DC3         0.0866
     51  C1'        4.6110   11.1110   16.1760 C.3     3  DC3         0.2106
     52  N1         4.6090   12.3690   15.3530 N.ar    3  DC3        -0.2556
     53  C2         3.6490   13.3560   15.6010 C.ar    3  DC3         0.3531
     54  O2         2.8010   13.1560   16.4870 O.2     3  DC3        -0.2443
     55  N3         3.6710   14.4960   14.8700 N.ar    3  DC3        -0.1739
     56  C4         4.5990   14.6660   13.9270 C.ar    3  DC3         0.1759
     57  N4         4.5810   15.8060   13.2320 N.pl3   3  DC3        -0.1070
     58  C5         5.5810   13.6780   13.6600 C.ar    3  DC3         0.0566
     59  C6         5.5550   12.5540   14.3850 C.ar    3  DC3         0.0849
     60  P          3.2170    7.7790   13.1010 P.3     4  DA4         0.2141
     61  OP1        2.8750    6.3770   12.7890 O.3     4  DA4        -0.4373
     62  OP2        3.7690    8.6360   12.0240 O.2     4  DA4        -0.5172
     63  O5'        1.9300    8.5960   13.5900 O.3     4  DA4        -0.3114
     64  C5'        1.0110    8.1180   14.5640 C.3     4  DA4         0.1811
     65  C4'       -0.2000    9.0150   14.6490 C.3     4  DA4         0.1746
     66  O4'        0.1900   10.3150   15.1600 O.3     4  DA4        -0.3327
     67  C3'       -0.8700    9.3250   13.3220 C.3     4  DA4         0.1558
     68  O3'       -1.7560    8.2980   12.9200 O.3     4  DA4        -0.3138
     69  C2'       -1.5580   10.6520   13.5970 C.3     4  DA4         0.0865
     70  C1'       -0.5500   11.3340   14.5190 C.3     4  DA4         0.2094
     71  N9         0.3640   12.2000   13.8830 N.ar    4  DA4        -0.2714
     72  C8         1.6610   11.9530   13.5140 C.ar    4  DA4         0.1815
     73  N7         2.2100   12.9270   12.8280 N.ar    4  DA4        -0.2193
     74  C5         1.2060   13.8780   12.7400 C.ar    4  DA4         0.1518
     75  C6         1.1550   15.1470   12.1370 C.ar    4  DA4         0.1919
     76  N6         2.1800   15.6960   11.4820 N.pl3   4  DA4        -0.1054
     77  N1        -0.0000   15.8400   12.2320 N.ar    4  DA4        -0.2040
     78  C2        -1.0270   15.2890   12.8890 C.ar    4  DA4         0.2016
     79  N3        -1.1000   14.1080   13.4970 N.ar    4  DA4        -0.2048
     80  C4         0.0630   13.4440   13.3840 C.ar    4  DA4         0.1691
     81  P         -2.1430    8.0470   11.2630 P.3     5  DG5         0.2141
     82  OP1       -3.1260    6.8840   11.3380 O.3     5  DG5        -0.4373
     83  OP2       -0.9060    7.6800   10.5330 O.2     5  DG5        -0.5172
     84  O5'       -2.6890    9.4280   10.7200 O.3     5  DG5        -0.3114
     85  C5'       -4.0510    9.6150   10.2450 C.3     5  DG5         0.1811
     86  C4'       -4.1710   11.0660    9.8410 C.3     5  DG5         0.1746
     87  O4'       -3.2160   11.8560   10.5370 O.3     5  DG5        -0.3327
     88  C3'       -3.8710   11.3300    8.3680 C.3     5  DG5         0.1558
     89  O3'       -4.9600   11.0030    7.5060 O.3     5  DG5        -0.3138
     90  C2'       -3.5360   12.8300    8.4120 C.3     5  DG5         0.0865
     91  C1'       -2.7180   12.9050    9.6630 C.3     5  DG5         0.2094
     92  N9        -1.1630   12.5540    9.4580 N.ar    5  DG5        -0.2713
     93  C8        -0.4500   11.6810   10.2440 C.ar    5  DG5         0.1816
     94  N7         0.8410   11.7820   10.0860 N.ar    5  DG5        -0.2173
     95  C5         0.9950   12.7810    9.1430 C.ar    5  DG5         0.1748
     96  C6         2.1670   13.3330    8.5650 C.ar    5  DG5         0.3023
     97  O6         3.3460   13.0310    8.7880 O.2     5  DG5        -0.2633
     98  N1         1.8710   14.3320    7.6420 N.ar    5  DG5        -0.1709
     99  C2         0.6030   14.7480    7.3160 C.ar    5  DG5         0.2606
    100  N2         0.5180   15.7260    6.4040 N.pl3   5  DG5        -0.0859
    101  N3        -0.4960   14.2440    7.8430 N.ar    5  DG5        -0.1918
    102  C4        -0.2330   13.2720    8.7420 C.ar    5  DG5         0.1722
    103  P         -4.4230   10.0550    6.4250 P.3     6  DC6         0.2141
    104  OP1       -5.7820    9.8320    5.8450 O.2     6  DC6        -0.5172
    105  OP2       -3.5060    8.9960    6.9750 O.3     6  DC6        -0.4373
    106  O5'       -3.5290   10.9510    5.4290 O.3     6  DC6        -0.3114
    107  C5'       -4.2450   11.8890    4.6220 C.3     6  DC6         0.1811
    108  C4'       -3.3530   12.8310    3.8560 C.3     6  DC6         0.1746
    109  O4'       -2.3480   13.3260    4.7510 O.3     6  DC6        -0.3327
    110  C3'       -2.4770   12.2450    2.7870 C.3     6  DC6         0.1558
    111  O3'       -3.1870   12.1450    1.6200 O.3     6  DC6        -0.3138
    112  C2'       -1.4280   13.3030    2.5910 C.3     6  DC6         0.0866
    113  C1'       -1.1270   13.5390    4.0580 C.3     6  DC6         0.2106
    114  N1        -0.0690   12.7090    4.5790 N.ar    6  DC6        -0.2556
    115  C2         1.2410   13.0160    4.1930 C.ar    6  DC6         0.3531
    116  O2         1.4290   13.9740    3.4250 O.2     6  DC6        -0.2443
    117  N3         2.2610   12.2610    4.6660 N.ar    6  DC6        -0.1739
    118  C4         2.0120   11.2410    5.4880 C.ar    6  DC6         0.1759
    119  N4         3.0500   10.5250    5.9280 N.pl3   6  DC6        -0.1070
    120  C5         0.6920   10.9140    5.8910 C.ar    6  DC6         0.0566
    121  C6        -0.3130   11.6620    5.4220 C.ar    6  DC6         0.0849
    122  P         -2.9940   10.8110    0.9560 P.3     7  DA7         0.2141
    123  OP1       -3.7860   10.7930   -0.2860 O.2     7  DA7        -0.5172
    124  OP2       -2.6400    9.5490    1.6490 O.3     7  DA7        -0.4373
    125  O5'       -1.6130   11.5160    0.6680 O.3     7  DA7        -0.3114
    126  C5'       -1.5520   12.6210   -0.1930 C.3     7  DA7         0.1811
    127  C4'       -0.2350   12.6270   -0.9020 C.3     7  DA7         0.1746
    128  O4'        0.7680   13.0010    0.0690 O.3     7  DA7        -0.3327
    129  C3'        0.2160   11.3100   -1.5320 C.3     7  DA7         0.1558
    130  O3'       -0.3620   11.1990   -2.8750 O.3     7  DA7        -0.3138
    131  C2'        1.7360   11.4490   -1.4410 C.3     7  DA7         0.0865
    132  C1'        1.9370   12.2560   -0.1450 C.3     7  DA7         0.2094
    133  N9         2.3920   11.4090    0.8740 N.ar    7  DA7        -0.2714
    134  C8         1.5680   10.6700    1.6820 C.ar    7  DA7         0.1815
    135  N7         2.2060    9.8310    2.4630 N.ar    7  DA7        -0.2193
    136  C5         3.5410   10.0330    2.1470 C.ar    7  DA7         0.1518
    137  C6         4.7260    9.4500    2.6290 C.ar    7  DA7         0.1919
    138  N6         4.7550    8.5050    3.5710 N.pl3   7  DA7        -0.1054
    139  N1         5.8930    9.8760    2.1010 N.ar    7  DA7        -0.2040
    140  C2         5.8630   10.8240    1.1580 C.ar    7  DA7         0.2016
    141  N3         4.8150   11.4480    0.6260 N.ar    7  DA7        -0.2048
    142  C4         3.6710   11.0010    1.1700 C.ar    7  DA7         0.1691
    143  P         -0.0240    9.9060   -3.8970 P.3     8  DC8         0.2141
    144  OP1       -0.3460   10.0100   -5.3400 O.2     8  DC8        -0.5172
    145  OP2       -0.2540    8.6560   -3.1340 O.3     8  DC8        -0.4373
    146  O5'        1.5320   10.2090   -3.6740 O.3     8  DC8        -0.3114
    147  C5'        2.1420   11.3960   -4.1570 C.3     8  DC8         0.1811
    148  C4'        3.6240   11.1740   -4.3070 C.3     8  DC8         0.1746
    149  O4'        4.2690   11.2150   -3.0100 O.3     8  DC8        -0.3327
    150  C3'        3.9980    9.8200   -4.8830 C.3     8  DC8         0.1558
    151  O3'        3.9510    9.8360   -6.2990 O.3     8  DC8        -0.3138
    152  C2'        5.3900    9.5730   -4.3180 C.3     8  DC8         0.0866
    153  C1'        5.3240   10.2770   -2.9630 C.3     8  DC8         0.2106
    154  N1         5.1030    9.4590   -1.7570 N.ar    8  DC8        -0.2556
    155  C2         6.2660    8.9360   -1.1800 C.ar    8  DC8         0.3531
    156  O2         7.3620    9.4370   -1.4830 O.2     8  DC8        -0.2443
    157  N3         6.1630    7.9010   -0.3120 N.ar    8  DC8        -0.1739
    158  C4         4.9650    7.3940   -0.0180 C.ar    8  DC8         0.1759
    159  N4         4.9130    6.3740    0.8430 N.pl3   8  DC8        -0.1070
    160  C5         3.7750    7.9100   -0.5920 C.ar    8  DC8         0.0566
    161  C6         3.8810    8.9320   -1.4480 C.ar    8  DC8         0.0849
    162  P          3.4400    8.7640   -6.9930 P.3     9  DA9         0.2141
    163  OP1        3.1620    8.8410   -8.4460 O.2     9  DA9        -0.5172
    164  OP2        2.5620    7.9450   -6.1270 O.3     9  DA9        -0.4373
    165  O5'        4.9510    8.3050   -6.7900 O.3     9  DA9        -0.3114
    166  C5'        6.0160    8.9460   -7.5270 C.3     9  DA9         0.1811
    167  C4'        7.3120    8.2180   -7.3030 C.3     9  DA9         0.1746
    168  O4'        7.7350    8.4340   -5.9330 O.3     9  DA9        -0.3327
    169  C3'        7.2070    6.7100   -7.4440 C.3     9  DA9         0.1558
    170  O3'        7.3080    6.2560   -8.7820 O.3     9  DA9        -0.3138
    171  C2'        8.3180    6.2020   -6.5310 C.3     9  DA9         0.0865
    172  C1'        8.2750    7.2300   -5.3980 C.3     9  DA9         0.2094
    173  N9         7.4330    6.8380   -4.2600 N.ar    9  DA9        -0.2714
    174  C8         6.1580    7.2000   -3.9110 C.ar    9  DA9         0.1815
    175  N7         5.6900    6.5540   -2.8690 N.ar    9  DA9        -0.2193
    176  C5         6.7280    5.7080   -2.5100 C.ar    9  DA9         0.1518
    177  C6         6.8630    4.7600   -1.4810 C.ar    9  DA9         0.1919
    178  N6         5.9060    4.4970   -0.5880 N.pl3   9  DA9        -0.1054
    179  N1         8.0300    4.0850   -1.4000 N.ar    9  DA9        -0.2040
    180  C2         8.9880    4.3500   -2.2950 C.ar    9  DA9         0.2016
    181  N3         8.9800    5.2170   -3.3050 N.ar    9  DA9        -0.2048
    182  C4         7.8070    5.8710   -3.3580 C.ar    9  DA9         0.1691
    183  P          6.5400    4.8720   -9.2320 P.3    10  DG10        0.2141
    184  OP1        6.9060    4.2440  -10.4980 O.2    10  DG10       -0.5172
    185  OP2        5.1690    4.6480   -8.6930 O.3    10  DG10       -0.4373
    186  O5'        7.6150    4.5430   -8.1190 O.3    10  DG10       -0.3114
    187  C5'        9.0050    4.5230   -8.4360 C.3    10  DG10        0.1811
    188  C4'        9.7240    3.4470   -7.6570 C.3    10  DG10        0.1746
    189  O4'        9.7280    3.7750   -6.2410 O.3    10  DG10       -0.3327
    190  C3'        9.0860    2.0730   -7.6840 C.3    10  DG10        0.1558
    191  O3'        9.4210    1.4250   -8.8840 O.3    10  DG10       -0.3138
    192  C2'        9.7350    1.4470   -6.4570 C.3    10  DG10        0.0865
    193  C1'        9.6040    2.5920   -5.4800 C.3    10  DG10        0.2094
    194  N9         8.1590    2.7910   -4.7540 N.ar   10  DG10       -0.2713
    195  C8         6.9540    3.3930   -5.0240 C.ar   10  DG10        0.1816
    196  N7         5.9700    2.9230   -4.3060 N.ar   10  DG10       -0.2173
    197  C5         6.5570    1.9560   -3.5120 C.ar   10  DG10        0.1748
    198  C6         5.9930    1.1010   -2.5300 C.ar   10  DG10        0.3023
    199  O6         4.8150    1.0340   -2.1580 O.2    10  DG10       -0.2633
    200  N1         6.9470    0.2620   -1.9610 N.ar   10  DG10       -0.1709
    201  C2         8.2800    0.2490   -2.2960 C.ar   10  DG10        0.2606
    202  N2         9.0470   -0.6300   -1.6360 N.pl3  10  DG10       -0.0859
    203  N3         8.8180    1.0360   -3.2070 N.ar   10  DG10       -0.1918
    204  C4         7.9100    1.8590   -3.7740 C.ar   10  DG10        0.1722
    205  P          8.3930    0.3880   -9.6720 P.3    11  DA11        0.2141
    206  OP1        9.0160    0.2060  -11.0060 O.2    11  DA11       -0.5172
    207  OP2        6.9400    0.6610   -9.5730 O.3    11  DA11       -0.4373
    208  O5'        8.7090   -0.9110   -8.8080 O.3    11  DA11       -0.3114
    209  C5'       10.0590   -1.2180   -8.4220 C.3    11  DA11        0.1811
    210  C4'       10.0720   -2.1250   -7.2160 C.3    11  DA11        0.1746
    211  O4'        9.2560   -1.5470   -6.1600 O.3    11  DA11       -0.3327
    212  C3'        9.4660   -3.5070   -7.3840 C.3    11  DA11        0.1558
    213  O3'       10.3670   -4.3900   -8.0490 O.3    11  DA11       -0.3138
    214  C2'        9.2320   -3.9100   -5.9320 C.3    11  DA11        0.0865
    215  C1'        8.7630   -2.5870   -5.3270 C.3    11  DA11        0.2094
    216  N9         7.3990   -2.5280   -5.2130 N.ar   11  DA11       -0.2714
    217  C8         6.5070   -1.9330   -6.0670 C.ar   11  DA11        0.1815
    218  N7         5.2520   -2.1100   -5.7280 N.ar   11  DA11       -0.2193
    219  C5         5.3250   -2.8740   -4.5740 C.ar   11  DA11        0.1518
    220  C6         4.3360   -3.3980   -3.7230 C.ar   11  DA11        0.1919
    221  N6         3.0260   -3.2220   -3.9150 N.pl3  11  DA11       -0.1054
    222  N1         4.7450   -4.1180   -2.6570 N.ar   11  DA11       -0.2040
    223  C2         6.0570   -4.2940   -2.4650 C.ar   11  DA11        0.2016
    224  N3         7.0800   -3.8510   -3.1930 N.ar   11  DA11       -0.2048
    225  C4         6.6400   -3.1400   -4.2450 C.ar   11  DA11        0.1691
    226  P          9.8810   -5.9670   -8.4330 P.3    12  DG12        0.2141
    227  OP1       10.9140   -6.7570   -9.1390 O.2    12  DG12       -0.5172
    228  OP2        8.5940   -5.6440   -9.0940 O.3    12  DG12       -0.4373
    229  O5'        9.4580   -6.7590   -7.1090 O.3    12  DG12       -0.3114
    230  C5'       10.4250   -7.4750   -6.3550 C.3    12  DG12        0.1811
    231  C4'        9.9510   -7.6900   -4.9420 C.3    12  DG12        0.1746
    232  O4'        9.1860   -6.5300   -4.5330 O.3    12  DG12       -0.3327
    233  C3'        9.0030   -8.8590   -4.7210 C.3    12  DG12        0.1558
    234  O3'        9.6730  -10.0950   -4.5490 O.3    12  DG12       -0.3138
    235  C2'        8.2100   -8.4280   -3.4940 C.3    12  DG12        0.0865
    236  C1'        8.1070   -6.9210   -3.7150 C.3    12  DG12        0.2094
    237  N9         6.8990   -6.5320   -4.3210 N.ar   12  DG12       -0.2713
    238  C8         6.7450   -5.9420   -5.5520 C.ar   12  DG12        0.1816
    239  N7         5.5010   -5.6780   -5.8450 N.ar   12  DG12       -0.2173
    240  C5         4.7890   -6.1150   -4.7440 C.ar   12  DG12        0.1748
    241  C6         3.3960   -6.0950   -4.4780 C.ar   12  DG12        0.3023
    242  O6         2.4850   -5.6680   -5.1980 O.2    12  DG12       -0.2633
    243  N1         3.0950   -6.6420   -3.2340 N.ar   12  DG12       -0.1709
    244  C2         4.0230   -7.1450   -2.3530 C.ar   12  DG12        0.2606
    245  N2         3.5420   -7.6300   -1.2010 N.pl3  12  DG12       -0.0859
    246  N3         5.3200   -7.1710   -2.5860 N.ar   12  DG12       -0.1918
    247  C4         5.6360   -6.6460   -3.7890 C.ar   12  DG12        0.1722
    248  P          9.0250  -11.3140   -4.8690 P.3    13  DG13        0.2141
    249  OP1       10.2300  -12.1850   -5.0350 O.3    13  DG13       -0.4373
    250  OP2        8.3940  -10.8650   -6.1490 O.2    13  DG13       -0.5172
    251  O5'        7.8270  -11.7410   -3.9060 O.3    13  DG13       -0.3114
    252  C5'        8.2490  -12.2160   -2.6190 C.3    13  DG13        0.1811
    253  C4'        7.0210  -12.1320   -1.7390 C.3    13  DG13        0.1746
    254  O4'        6.4980  -10.8380   -1.8960 O.3    13  DG13       -0.3327
    255  C3'        5.8680  -13.0420   -2.0830 C.3    13  DG13        0.1558
    256  O3'        6.0490  -14.4030   -1.7260 O.3    13  DG13       -0.3138
    257  C2'        4.6750  -12.3350   -1.4670 C.3    13  DG13        0.0865
    258  C1'        5.0870  -10.9090   -1.6310 C.3    13  DG13        0.2094
    259  N9         4.4340  -10.2500   -2.6750 N.ar   13  DG13       -0.2713
    260  C8         5.0720   -9.8070   -3.8080 C.ar   13  DG13        0.1816
    261  N7         4.2620   -9.2600   -4.6750 N.ar   13  DG13       -0.2173
    262  C5         3.0170   -9.3440   -4.0810 C.ar   13  DG13        0.1748
    263  C6         1.7440   -8.9190   -4.5410 C.ar   13  DG13        0.3023
    264  O6         1.4630   -8.3630   -5.6100 O.2    13  DG13       -0.2633
    265  N1         0.7370   -9.1990   -3.6210 N.ar   13  DG13       -0.1709
    266  C2         0.9330   -9.8120   -2.4070 C.ar   13  DG13        0.2606
    267  N2        -0.1600   -9.9960   -1.6550 N.pl3  13  DG13       -0.0859
    268  N3         2.1090  -10.2130   -1.9660 N.ar   13  DG13       -0.1918
    269  C4         3.1020   -9.9520   -2.8430 C.ar   13  DG13        0.1722
    270  P          6.1580  -15.3610   -3.0920 P.3    14  DT14        0.2141
    271  OP1        6.7780  -16.6360   -2.6710 O.3    14  DT14       -0.4373
    272  OP2        6.4860  -14.7560   -4.4190 O.2    14  DT14       -0.5172
    273  O5'        4.5920  -15.4360   -2.9960 O.3    14  DT14       -0.3114
    274  C5'        4.3160  -16.2920   -1.9470 C.3    14  DT14        0.1811
    275  C4'        2.8360  -16.2810   -1.7080 C.3    14  DT14        0.1746
    276  O4'        2.3850  -14.9380   -1.8590 O.3    14  DT14       -0.3327
    277  C3'        2.0840  -17.0150   -2.7620 C.3    14  DT14        0.1558
    278  O3'        2.2060  -18.4110   -2.4640 O.3    14  DT14       -0.3138
    279  C2'        0.7100  -16.3050   -2.6700 C.3    14  DT14        0.0866
    280  C1'        1.1020  -14.9130   -2.3820 C.3    14  DT14        0.2106
    281  N1         1.3190  -13.9020   -3.5430 N.ar   14  DT14       -0.2559
    282  C2         0.1660  -13.3380   -4.0570 C.ar   14  DT14        0.3545
    283  O2        -0.9360  -13.5220   -3.5730 O.2    14  DT14       -0.2443
    284  N3         0.3510  -12.5470   -5.1650 N.ar   14  DT14       -0.1533
    285  C4         1.5450  -12.2690   -5.7970 C.ar   14  DT14        0.2804
    286  O4         1.5520  -11.5380   -6.7840 O.2    14  DT14       -0.2654
    287  C5         2.6950  -12.8920   -5.2040 C.ar   14  DT14        0.0534
    288  C6         2.5450  -13.6660   -4.1270 C.ar   14  DT14        0.0824
    289  C7         4.0420  -12.6510   -5.8190 C.3    14  DT14        0.0377
    290  P          1.9900  -19.4030   -3.6220 P.3    15  DC15        0.2141
    291  OP1        1.1830  -20.5040   -3.0470 O.3    15  DC15       -0.4373
    292  OP2        3.2560  -19.6970   -4.3330 O.2    15  DC15       -0.5172
    293  O5'        1.1060  -18.6280   -4.7010 O.3    15  DC15       -0.3114
    294  C5'       -0.2020  -18.2110   -4.3510 C.3    15  DC15        0.1811
    295  C4'       -0.6560  -17.1130   -5.2690 C.3    15  DC15        0.1746
    296  O4'        0.3200  -16.0430   -5.2510 O.3    15  DC15       -0.3327
    297  C3'       -0.7740  -17.4880   -6.7370 C.3    15  DC15        0.1558
    298  O3'       -2.0140  -18.1150   -7.0180 O.3    15  DC15       -0.3138
    299  C2'       -0.5860  -16.1540   -7.4510 C.3    15  DC15        0.0866
    300  C1'        0.3720  -15.4160   -6.5120 C.3    15  DC15        0.2106
    301  N1         1.7780  -15.4900   -7.0390 N.ar   15  DC15       -0.2556
    302  C2         2.1630  -14.7930   -8.1910 C.ar   15  DC15        0.3531
    303  O2         1.2960  -14.1750   -8.8330 O.2    15  DC15       -0.2443
    304  N3         3.4630  -14.8120   -8.5700 N.ar   15  DC15       -0.1739
    305  C4         4.3580  -15.4900   -7.8510 C.ar   15  DC15        0.1759
    306  N4         5.6270  -15.4810   -8.2630 N.pl3  15  DC15       -0.1070
    307  C5         3.9890  -16.2030   -6.6810 C.ar   15  DC15        0.0566
    308  C6         2.7040  -16.1810   -6.3100 C.ar   15  DC15        0.0849
    309  P         -2.2660  -19.2480   -8.1240 P.3    16  DA16        0.2141
    310  OP1       -3.5360  -19.9570   -8.4180 O.2    16  DA16       -0.5172
    311  OP2       -1.1510  -19.9910   -7.4890 O.3    16  DA16       -0.4373
    312  O5'       -1.7250  -18.5770   -9.4640 O.3    16  DA16       -0.3114
    313  C5'       -2.6090  -17.8010  -10.2900 C.3    16  DA16        0.1811
    314  C4'       -1.9230  -17.3670  -11.5640 C.3    16  DA16        0.1764
    315  O4'       -0.8680  -16.4190  -11.2740 O.3    16  DA16       -0.3187
    316  C3'       -1.2640  -18.4530  -12.4000 C.3    16  DA16        0.1578
    317  O3'       -2.2220  -19.0940  -13.2390 O.3    16  DA16       -0.3138
    318  C2'       -0.2380  -17.6670  -13.2140 C.3    16  DA16        0.1076
    319  C1'        0.1680  -16.5570  -12.2340 C.3    16  DA16        0.2608
    320  N9         1.4200  -16.7820  -11.5210 N.ar   16  DA16       -0.2562
    321  C8         1.6580  -17.4960  -10.3750 C.ar   16  DA16        0.1829
    322  N7         2.9290  -17.7330  -10.1540 N.ar   16  DA16       -0.2192
    323  C5         3.5700  -17.1350  -11.2270 C.ar   16  DA16        0.1518
    324  C6         4.9270  -17.0300  -11.5800 C.ar   16  DA16        0.1919
    325  N6         5.9210  -17.5480  -10.8550 N.pl3  16  DA16       -0.1054
    326  N1         5.2290  -16.3680  -12.7170 N.ar   16  DA16       -0.2040
    327  C2         4.2320  -15.8480  -13.4420 C.ar   16  DA16        0.2016
    328  N3         2.9210  -15.8800  -13.2140 N.ar   16  DA16       -0.2047
    329  C4         2.6540  -16.5460  -12.0780 C.ar   16  DA16        0.1704
    330  P         -1.9630  -20.5830  -13.7980 P.3    17  DG17        0.2141
    331  OP1       -3.0180  -21.4790  -14.3210 O.2    17  DG17       -0.5172
    332  OP2       -1.2750  -20.9060  -12.5270 O.3    17  DG17       -0.4373
    333  O5'       -0.8570  -20.3840  -14.9380 O.3    17  DG17       -0.3114
    334  C5'       -1.2880  -19.9250  -16.2120 C.3    17  DG17        0.1812
    335  C4'       -0.1500  -19.8030  -17.2160 C.3    17  DG17        0.1775
    336  O4'        0.5180  -18.5290  -17.0480 O.3    17  DG17       -0.3326
    337  C3'        0.9590  -20.8460  -17.1010 C.3    17  DG17        0.1859
    338  O3'        0.5790  -22.0810  -17.7360 O.3    17  DG17       -0.2202
    339  C2'        2.1070  -20.1260  -17.8080 C.3    17  DG17        0.0894
    340  C1'        1.8870  -18.6800  -17.3680 C.3    17  DG17        0.2095
    341  N9         2.7220  -18.4600  -16.2340 N.ar   17  DG17       -0.2713
    342  C8         2.3890  -18.3870  -14.9030 C.ar   17  DG17        0.1816
    343  N7         3.4240  -18.4320  -14.1090 N.ar   17  DG17       -0.2173
    344  C5         4.5060  -18.5390  -14.9630 C.ar   17  DG17        0.1748
    345  C6         5.8950  -18.6290  -14.6860 C.ar   17  DG17        0.3023
    346  O6         6.4580  -18.6300  -13.5840 O.2    17  DG17       -0.2633
    347  N1         6.6520  -18.7250  -15.8500 N.ar   17  DG17       -0.1709
    348  C2         6.1360  -18.7330  -17.1240 C.ar   17  DG17        0.2606
    349  N2         7.0250  -18.8320  -18.1210 N.pl3  17  DG17       -0.0859
    350  N3         4.8490  -18.6510  -17.3960 N.ar   17  DG17       -0.1918
    351  C4         4.0940  -18.5580  -16.2810 C.ar   17  DG17        0.1722
    352  P          0.3140  -23.5170  -16.6570 P.3    18  DA18        0.4149
    353  OP1       -0.0170  -24.9350  -16.9730 O.3    18  DA18       -0.1481
    354  OP2        0.6580  -23.1500  -15.2680 O.2    18  DA18       -0.2668
    355  O5'        1.5000  -23.0510  -17.6150 O.3    18  DA18       -0.2177
    356  C5'        1.6300  -23.5640  -18.9580 C.3    18  DA18        0.2140
    357  C4'        3.0250  -24.1190  -19.1690 C.3    18  DA18        0.1776
    358  O4'        4.0010  -23.0580  -19.0130 O.3    18  DA18       -0.3326
    359  C3'        3.4440  -25.1870  -18.1730 C.3    18  DA18        0.1559
    360  O3'        3.0020  -26.4470  -18.6720 O.3    18  DA18       -0.3138
    361  C2'        4.9650  -25.0660  -18.1610 C.3    18  DA18        0.0865
    362  C1'        5.1660  -23.5660  -18.3870 C.3    18  DA18        0.2094
    363  N9         5.3230  -22.9370  -17.0600 N.ar   18  DA18       -0.2714
    364  C8         4.3650  -22.5320  -16.1680 C.ar   18  DA18        0.1815
    365  N7         4.8430  -22.2070  -14.9900 N.ar   18  DA18       -0.2193
    366  C5         6.2070  -22.4140  -15.1170 C.ar   18  DA18        0.1518
    367  C6         7.2760  -22.2510  -14.2190 C.ar   18  DA18        0.1919
    368  N6         7.1280  -21.8240  -12.9630 N.pl3  18  DA18       -0.1054
    369  N1         8.5170  -22.5460  -14.6620 N.ar   18  DA18       -0.2040
    370  C2         8.6650  -22.9740  -15.9210 C.ar   18  DA18        0.2016
    371  N3         7.7390  -23.1660  -16.8580 N.ar   18  DA18       -0.2048
    372  C4         6.5170  -22.8640  -16.3860 C.ar   18  DA18        0.1691
    373  P          2.5560  -27.6080  -17.7190 P.3    19  DT19        0.2141
    374  OP1        2.4690  -29.0240  -18.1630 O.2    19  DT19       -0.5172
    375  OP2        1.8180  -27.1790  -16.5010 O.3    19  DT19       -0.4373
    376  O5'        4.0990  -27.2450  -17.5260 O.3    19  DT19       -0.3114
    377  C5'        5.0070  -27.2850  -18.6290 C.3    19  DT19        0.1811
    378  C4'        6.2420  -28.0670  -18.2640 C.3    19  DT19        0.1746
    379  O4'        7.1160  -27.2550  -17.4270 O.3    19  DT19       -0.3327
    380  C3'        5.9720  -29.3610  -17.5060 C.3    19  DT19        0.1558
    381  O3'        6.8010  -30.4080  -18.0090 O.3    19  DT19       -0.3138
    382  C2'        6.2870  -28.9780  -16.0580 C.3    19  DT19        0.0866
    383  C1'        7.4110  -27.9500  -16.2290 C.3    19  DT19        0.2106
    384  N1         7.4440  -26.9270  -15.3060 N.ar   19  DT19       -0.2559
    385  C2         8.5080  -26.7840  -14.4360 C.ar   19  DT19        0.3545
    386  O2         9.6610  -27.0210  -14.7510 O.2    19  DT19       -0.2443
    387  N3         8.1730  -26.3510  -13.1750 N.ar   19  DT19       -0.1533
    388  C4         6.9100  -26.0550  -12.7080 C.ar   19  DT19        0.2804
    389  O4         6.7680  -25.6750  -11.5480 O.2    19  DT19       -0.2654
    390  C5         5.8590  -26.2300  -13.6700 C.ar   19  DT19        0.0534
    391  C6         6.1560  -26.6490  -14.9030 C.ar   19  DT19        0.0824
    392  C7         4.4480  -25.9340  -13.2570 C.3    19  DT19        0.0377
    393  P          6.6420  -31.6240  -17.4820 P.3    20  DG20        0.2141
    394  OP1        6.2570  -32.7250  -18.4030 O.2    20  DG20       -0.5172
    395  OP2        5.6770  -31.1700  -16.4340 O.3    20  DG20       -0.4373
    396  O5'        8.0280  -31.9890  -16.7650 O.3    20  DG20       -0.3114
    397  C5'        9.1770  -32.3820  -17.5310 C.3    20  DG20        0.1811
    398  C4'       10.4540  -32.3480  -16.6970 C.3    20  DG20        0.1746
    399  O4'       10.6960  -31.0030  -16.2210 O.3    20  DG20       -0.3327
    400  C3'       10.5420  -33.1910  -15.4310 C.3    20  DG20        0.1558
    401  O3'       10.8590  -34.5490  -15.6610 O.3    20  DG20       -0.3138
    402  C2'       11.6500  -32.5100  -14.6460 C.3    20  DG20        0.0865
    403  C1'       11.4170  -31.0510  -15.0030 C.3    20  DG20        0.2094
    404  N9        10.6400  -30.4390  -13.9530 N.ar   20  DG20       -0.2713
    405  C8         9.3010  -30.1340  -13.9840 C.ar   20  DG20        0.1816
    406  N7         8.8590  -29.6360  -12.8620 N.ar   20  DG20       -0.2173
    407  C5         9.9700  -29.6060  -12.0390 C.ar   20  DG20        0.1748
    408  C6        10.1130  -29.1690  -10.6970 C.ar   20  DG20        0.3023
    409  O6         9.2470  -28.7040   -9.9460 O.2    20  DG20       -0.2633
    410  N1        11.4200  -29.3150  -10.2390 N.ar   20  DG20       -0.1709
    411  C2        12.4600  -29.8190  -10.9830 C.ar   20  DG20        0.2606
    412  N2        13.6490  -29.8810  -10.3690 N.pl3  20  DG20       -0.0859
    413  N3        12.3420  -30.2290  -12.2300 N.ar   20  DG20       -0.1918
    414  C4        11.0810  -30.0980  -12.6950 C.ar   20  DG20        0.1722
    415  P         10.5070  -35.6150  -14.5340 P.3    21  DC21        0.2141
    416  OP1       10.7650  -36.9620  -15.0810 O.2    21  DC21       -0.5172
    417  OP2        9.2760  -35.3600  -13.7450 O.3    21  DC21       -0.4373
    418  O5'       11.7530  -35.1700  -13.6420 O.3    21  DC21       -0.3114
    419  C5'       13.0280  -34.8880  -14.2560 C.3    21  DC21        0.1811
    420  C4'       13.9860  -34.3110  -13.2430 C.3    21  DC21        0.1746
    421  O4'       13.4510  -33.0680  -12.7110 O.3    21  DC21       -0.3327
    422  C3'       14.2230  -35.1490  -12.0030 C.3    21  DC21        0.1558
    423  O3'       15.1170  -36.2210  -12.2470 O.3    21  DC21       -0.3138
    424  C2'       14.7410  -34.1090  -11.0190 C.3    21  DC21        0.0866
    425  C1'       13.8280  -32.9280  -11.3460 C.3    21  DC21        0.2106
    426  N1        12.6670  -32.8650  -10.5290 N.ar   21  DC21       -0.2556
    427  C2        12.7860  -32.2820   -9.2620 C.ar   21  DC21        0.3531
    428  O2        13.8620  -31.7450   -8.9490 O.2    21  DC21       -0.2443
    429  N3        11.7280  -32.3210   -8.4160 N.ar   21  DC21       -0.1739
    430  C4        10.5930  -32.9090   -8.7940 C.ar   21  DC21        0.1759
    431  N4         9.5780  -32.9230   -7.9270 N.pl3  21  DC21       -0.1070
    432  C5        10.4520  -33.5050  -10.0740 C.ar   21  DC21        0.0566
    433  C6        11.4990  -33.4650  -10.9060 C.ar   21  DC21        0.0849
    434  P         15.2210  -37.5030  -11.0660 P.3    22  DG22        0.2141
    435  OP1       16.5070  -38.1430  -11.4230 O.2    22  DG22       -0.5172
    436  OP2       13.9720  -38.3090  -11.0610 O.3    22  DG22       -0.4373
    437  O5'       15.3350  -36.8310   -9.5600 O.3    22  DG22       -0.3114
    438  C5'       16.5810  -36.6050   -8.8830 C.3    22  DG22        0.1811
    439  C4'       16.4720  -36.0470   -7.4480 C.3    22  DG22        0.1746
    440  O4'       15.6390  -34.8920   -7.4230 O.3    22  DG22       -0.3327
    441  C3'       15.7700  -36.9840   -6.4910 C.3    22  DG22        0.1558
    442  O3'       16.5940  -38.0600   -6.0160 O.3    22  DG22       -0.3138
    443  C2'       15.2520  -36.0580   -5.3950 C.3    22  DG22        0.0865
    444  C1'       14.8650  -34.8360   -6.2060 C.3    22  DG22        0.2094
    445  N9        13.4650  -34.9280   -6.4540 N.ar   22  DG22       -0.2713
    446  C8        12.9140  -35.2420   -7.6730 C.ar   22  DG22        0.1816
    447  N7        11.6150  -35.1110   -7.7010 N.ar   22  DG22       -0.2173
    448  C5        11.2870  -34.6840   -6.4280 C.ar   22  DG22        0.1748
    449  C6        10.0260  -34.3750   -5.8550 C.ar   22  DG22        0.3023
    450  O6         8.9110  -34.4200   -6.3880 O.2    22  DG22       -0.2633
    451  N1        10.1420  -33.9790   -4.5250 N.ar   22  DG22       -0.1709
    452  C2        11.3260  -33.8920   -3.8330 C.ar   22  DG22        0.2606
    453  N2        11.2370  -33.4900   -2.5580 N.pl3  22  DG22       -0.0859
    454  N3        12.5040  -34.1770   -4.3510 N.ar   22  DG22       -0.1918
    455  C4        12.4160  -34.5650   -5.6420 C.ar   22  DG22        0.1722
    456  P         16.1630  -39.7150   -5.6510 P.3    23  DA23        0.2141
    457  OP1       17.2760  -40.6550   -5.3590 O.3    23  DA23       -0.4373
    458  OP2       15.2350  -40.0070   -6.7720 O.2    23  DA23       -0.5172
    459  O5'       15.2880  -39.5160   -4.3360 O.3    23  DA23       -0.3114
    460  C5'       15.8790  -39.0210   -3.1380 C.3    23  DA23        0.1811
    461  C4'       14.8100  -38.5980   -2.1590 C.3    23  DA23        0.1746
    462  O4'       14.1270  -37.4090   -2.6430 O.3    23  DA23       -0.3327
    463  C3'       13.6920  -39.6020   -1.9480 C.3    23  DA23        0.1558
    464  O3'       14.0740  -40.6150   -1.0290 O.3    23  DA23       -0.3138
    465  C2'       12.5740  -38.7150   -1.4170 C.3    23  DA23        0.0865
    466  C1'       12.7560  -37.4640   -2.2780 C.3    23  DA23        0.2094
    467  N9        11.9700  -37.5360   -3.4880 N.ar   23  DA23       -0.2714
    468  C8        12.3750  -37.9130   -4.7410 C.ar   23  DA23        0.1815
    469  N7        11.4020  -37.9610   -5.6200 N.ar   23  DA23       -0.2193
    470  C5        10.2810  -37.5910   -4.8930 C.ar   23  DA23        0.1518
    471  C6         8.9290  -37.4450   -5.2490 C.ar   23  DA23        0.1919
    472  N6         8.4600  -37.6650   -6.4800 N.pl3  23  DA23       -0.1054
    473  N1         8.0650  -37.0620   -4.2850 N.ar   23  DA23       -0.2040
    474  C2         8.5360  -36.8410   -3.0520 C.ar   23  DA23        0.2016
    475  N3         9.7820  -36.9440   -2.5970 N.ar   23  DA23       -0.2048
    476  C4        10.6150  -37.3270   -3.5790 C.ar   23  DA23        0.1691
    477  P         13.2460  -42.0870   -0.9990 P.3    24  DT24        0.2141
    478  OP1       14.1750  -43.2050   -0.7000 O.3    24  DT24       -0.4373
    479  OP2       12.3790  -42.1500   -2.2210 O.2    24  DT24       -0.5172
    480  O5'       12.2810  -41.8760    0.2650 O.3    24  DT24       -0.3114
    481  C5'       11.9730  -40.5810    0.7890 C.3    24  DT24        0.1811
    482  C4'       10.4980  -40.4610    1.1180 C.3    24  DT24        0.1746
    483  O4'        9.8750  -39.4840    0.2520 O.3    24  DT24       -0.3327
    484  C3'        9.6610  -41.7160    0.9670 C.3    24  DT24        0.1558
    485  O3'        9.7190  -42.4940    2.1510 O.3    24  DT24       -0.3138
    486  C2'        8.2630  -41.1750    0.7060 C.3    24  DT24        0.0866
    487  C1'        8.5610  -39.8950   -0.0670 C.3    24  DT24        0.2106
    488  N1         8.4930  -40.0910   -1.5430 N.ar   24  DT24       -0.2559
    489  C2         7.2450  -39.9540   -2.1210 C.ar   24  DT24        0.3545
    490  O2         6.2600  -39.6020   -1.4970 O.2    24  DT24       -0.2443
    491  N3         7.1900  -40.2470   -3.4620 N.ar   24  DT24       -0.1533
    492  C4         8.2350  -40.6540   -4.2660 C.ar   24  DT24        0.2804
    493  O4         8.0300  -40.8790   -5.4560 O.2    24  DT24       -0.2654
    494  C5         9.4970  -40.7730   -3.5930 C.ar   24  DT24        0.0534
    495  C6         9.5790  -40.4950   -2.2890 C.ar   24  DT24        0.0824
    496  C7        10.6950  -41.2100   -4.3820 C.3    24  DT24        0.0377
    497  P          9.1400  -44.1010    2.1690 P.3    25  DC25        0.2141
    498  OP1        9.4860  -44.8210    3.4160 O.3    25  DC25       -0.4373
    499  OP2        9.8630  -44.4050    0.9190 O.2    25  DC25       -0.5172
    500  O5'        7.5880  -44.2910    1.8130 O.3    25  DC25       -0.3114
    501  C5'        6.6330  -43.9240    2.8010 C.3    25  DC25        0.1811
    502  C4'        5.2190  -43.8410    2.2770 C.3    25  DC25        0.1746
    503  O4'        5.1330  -42.7980    1.2770 O.3    25  DC25       -0.3327
    504  C3'        4.6670  -45.0680    1.5680 C.3    25  DC25        0.1558
    505  O3'        4.2010  -46.0760    2.4430 O.3    25  DC25       -0.3138
    506  C2'        3.5620  -44.4760    0.7100 C.3    25  DC25        0.0866
    507  C1'        4.2230  -43.1760    0.2640 C.3    25  DC25        0.2106
    508  N1         4.9750  -43.3530   -1.0280 N.ar   25  DC25       -0.2556
    509  C2         4.2530  -43.3810   -2.2270 C.ar   25  DC25        0.3531
    510  O2         3.0130  -43.3210   -2.1790 O.2    25  DC25       -0.2443
    511  N3         4.9250  -43.4730   -3.3990 N.ar   25  DC25       -0.1739
    512  C4         6.2570  -43.5360   -3.4010 C.ar   25  DC25        0.1759
    513  N4         6.8760  -43.6260   -4.5810 N.pl3  25  DC25       -0.1070
    514  C5         7.0070  -43.5090   -2.1970 C.ar   25  DC25        0.0566
    515  C6         6.3390  -43.4180   -1.0420 C.ar   25  DC25        0.0849
    516  P          4.4360  -47.5400    2.0370 P.3    26  DT26        0.2141
    517  OP1        4.1870  -48.6060    3.0390 O.3    26  DT26       -0.4373
    518  OP2        5.7970  -47.3430    1.4850 O.2    26  DT26       -0.5172
    519  O5'        3.4420  -47.7790    0.8180 O.3    26  DT26       -0.3114
    520  C5'        2.0280  -47.7900    1.0270 C.3    26  DT26        0.1811
    521  C4'        1.2910  -47.4640   -0.2560 C.3    26  DT26        0.1746
    522  O4'        1.8920  -46.3080   -0.8940 O.3    26  DT26       -0.3327
    523  C3'        1.2530  -48.5140   -1.3560 C.3    26  DT26        0.1558
    524  O3'        0.2160  -49.4550   -1.1430 O.3    26  DT26       -0.3138
    525  C2'        0.9190  -47.6790   -2.5790 C.3    26  DT26        0.0866
    526  C1'        1.6510  -46.3700   -2.2870 C.3    26  DT26        0.2106
    527  N1         2.9290  -46.3650   -2.9780 N.ar   26  DT26       -0.2559
    528  C2         2.9680  -46.0190   -4.3150 C.ar   26  DT26        0.3545
    529  O2         1.9710  -45.7440   -4.9590 O.2    26  DT26       -0.2443
    530  N3         4.2220  -46.0060   -4.8770 N.ar   26  DT26       -0.1533
    531  C4         5.4150  -46.2990   -4.2490 C.ar   26  DT26        0.2804
    532  O4         6.4630  -46.2430   -4.8860 O.2    26  DT26       -0.2654
    533  C5         5.2920  -46.6500   -2.8620 C.ar   26  DT26        0.0534
    534  C6         4.0840  -46.6700   -2.2910 C.ar   26  DT26        0.0824
    535  C7         6.5340  -46.9860   -2.0910 C.3    26  DT26        0.0377
    536  P          0.0270  -51.1310   -2.2660 P.3    27  DG27        0.2141
    537  OP1       -0.6320  -52.3590   -1.7670 O.3    27  DG27       -0.4373
    538  OP2        1.4170  -51.2020   -2.8220 O.2    27  DG27       -0.5172
    539  O5'       -0.9090  -50.5380   -3.3990 O.3    27  DG27       -0.3114
    540  C5'       -0.4400  -50.3230   -4.7180 C.3    27  DG27        0.1811
    541  C4'       -1.1040  -49.1020   -5.2600 C.3    27  DG27        0.1746
    542  O4'       -0.3470  -47.9440   -4.8320 O.3    27  DG27       -0.3327
    543  C3'       -1.2380  -48.9870   -6.7680 C.3    27  DG27        0.1558
    544  O3'       -2.4010  -49.7320   -7.1580 O.3    27  DG27       -0.3138
    545  C2'       -1.3380  -47.4690   -6.9400 C.3    27  DG27        0.0865
    546  C1'       -0.4040  -46.9520   -5.8280 C.3    27  DG27        0.2094
    547  N9         1.0150  -46.7520   -6.4660 N.ar   27  DG27       -0.2713
    548  C8         2.1420  -47.5230   -6.3170 C.ar   27  DG27        0.1816
    549  N7         3.1810  -47.0450   -6.9470 N.ar   27  DG27       -0.2173
    550  C5         2.7160  -45.8900   -7.5480 C.ar   27  DG27        0.1748
    551  C6         3.3830  -44.9430   -8.3680 C.ar   27  DG27        0.3023
    552  O6         4.5650  -44.9460   -8.7350 O.2    27  DG27       -0.2633
    553  N1         2.5360  -43.9140   -8.7690 N.ar   27  DG27       -0.1709
    554  C2         1.2100  -43.8100   -8.4230 C.ar   27  DG27        0.2606
    555  N2         0.5550  -42.7450   -8.9060 N.pl3  27  DG27       -0.0859
    556  N3         0.5760  -44.6820   -7.6630 N.ar   27  DG27       -0.1918
    557  C4         1.3790  -45.6900   -7.2620 C.ar   27  DG27        0.1722
    558  P         -2.7830  -49.3020   -8.5140 P.3    28  DG28        0.2141
    559  OP1       -4.1660  -49.5210   -8.9880 O.2    28  DG28       -0.5172
    560  OP2       -1.8810  -50.4700   -8.3910 O.3    28  DG28       -0.4373
    561  O5'       -2.1490  -48.1800   -9.4690 O.3    28  DG28       -0.3114
    562  C5'       -2.9130  -46.9910   -9.7670 C.3    28  DG28        0.1811
    563  C4'       -2.1070  -45.9640  -10.5560 C.3    28  DG28        0.1746
    564  O4'       -0.9380  -45.5400   -9.8000 O.3    28  DG28       -0.3327
    565  C3'       -1.5080  -46.4510  -11.8700 C.3    28  DG28        0.1558
    566  O3'       -2.4770  -46.4910  -12.9200 O.3    28  DG28       -0.3138
    567  C2'       -0.4290  -45.3980  -12.1070 C.3    28  DG28        0.0865
    568  C1'        0.1080  -45.2060  -10.6910 C.3    28  DG28        0.2094
    569  N9         1.3030  -46.0970  -10.5430 N.ar   28  DG28       -0.2713
    570  C8         1.4070  -47.3170   -9.9190 C.ar   28  DG28        0.1816
    571  N7         2.6020  -47.8350   -9.9960 N.ar   28  DG28       -0.2173
    572  C5         3.3340  -46.9050  -10.7100 C.ar   28  DG28        0.1748
    573  C6         4.6950  -46.9120  -11.1110 C.ar   28  DG28        0.3023
    574  O6         5.5510  -47.7810  -10.9010 O.2    28  DG28       -0.2633
    575  N1         5.0330  -45.7660  -11.8250 N.ar   28  DG28       -0.1709
    576  C2         4.1670  -44.7390  -12.1170 C.ar   28  DG28        0.2606
    577  N2         4.6770  -43.7160  -12.8150 N.pl3  28  DG28       -0.0859
    578  N3         2.9000  -44.7190  -11.7510 N.ar   28  DG28       -0.1918
    579  C4         2.5490  -45.8220  -11.0570 C.ar   28  DG28        0.1722
    580  P         -2.2080  -47.4890  -14.2660 P.3    29  DA29        0.2141
    581  OP1       -3.6700  -47.2740  -14.5270 O.2    29  DA29       -0.5172
    582  OP2       -1.6720  -48.8650  -14.0710 O.3    29  DA29       -0.4373
    583  O5'       -1.3270  -46.8110  -15.4140 O.3    29  DA29       -0.3114
    584  C5'        0.0430  -46.4270  -15.1870 C.3    29  DA29        0.1811
    585  C4'        0.5740  -45.6590  -16.3870 C.3    29  DA29        0.1746
    586  O4'        0.1870  -46.4230  -17.5510 O.3    29  DA29       -0.3327
    587  C3'        0.0300  -44.2470  -16.6430 C.3    29  DA29        0.1558
    588  O3'        0.8350  -43.2260  -16.0590 O.3    29  DA29       -0.3138
    589  C2'        0.0850  -44.1100  -18.1590 C.3    29  DA29        0.0865
    590  C1'       -0.1650  -45.5490  -18.6040 C.3    29  DA29        0.2094
    591  N9        -1.5160  -46.6220  -18.9100 N.ar   29  DA29       -0.2714
    592  C8        -2.7130  -46.2210  -18.3770 C.ar   29  DA29        0.1815
    593  N7        -3.7580  -46.7730  -18.9470 N.ar   29  DA29       -0.2193
    594  C5        -3.2100  -47.5910  -19.9220 C.ar   29  DA29        0.1518
    595  C6        -3.7910  -48.4500  -20.8720 C.ar   29  DA29        0.1919
    596  N6        -5.1070  -48.6310  -20.9970 N.pl3  29  DA29       -0.1054
    597  N1        -2.9610  -49.1230  -21.6980 N.ar   29  DA29       -0.2040
    598  C2        -1.6420  -48.9410  -21.5700 C.ar   29  DA29        0.2016
    599  N3        -0.9790  -48.1640  -20.7170 N.ar   29  DA29       -0.2048
    600  C4        -1.8310  -47.5080  -19.9120 C.ar   29  DA29        0.1691
    601  P          0.2470  -41.6940  -16.0310 P.3    30  DT30        0.2141
    602  OP1       -0.9730  -41.1670  -16.6900 O.2    30  DT30       -0.5172
    603  OP2        1.5830  -41.2790  -16.5290 O.3    30  DT30       -0.4373
    604  O5'        0.1640  -41.3750  -14.4710 O.3    30  DT30       -0.3114
    605  C5'       -0.7510  -42.0870  -13.6390 C.3    30  DT30        0.1811
    606  C4'       -0.3140  -42.0310  -12.1930 C.3    30  DT30        0.1746
    607  O4'        0.9790  -42.6720  -12.0330 O.3    30  DT30       -0.3327
    608  C3'       -0.0980  -40.6420  -11.6230 C.3    30  DT30        0.1558
    609  O3'       -1.3330  -40.0650  -11.2230 O.3    30  DT30       -0.3138
    610  C2'        0.8090  -40.9250  -10.4300 C.3    30  DT30        0.0866
    611  C1'        1.6900  -42.0530  -10.9740 C.3    30  DT30        0.2106
    612  N1         2.9990  -41.4810  -11.5360 N.ar   30  DT30       -0.2559
    613  C2         4.0450  -41.3980  -10.6360 C.ar   30  DT30        0.3545
    614  O2         3.9670  -41.8000   -9.4880 O.2    30  DT30       -0.2443
    615  N3         5.1910  -40.8220  -11.1280 N.ar   30  DT30       -0.1533
    616  C4         5.3930  -40.3330  -12.4020 C.ar   30  DT30        0.2804
    617  O4         6.4810  -39.8450  -12.6980 O.2    30  DT30       -0.2654
    618  C5         4.2610  -40.4550  -13.2770 C.ar   30  DT30        0.0534
    619  C6         3.1330  -41.0100  -12.8240 C.ar   30  DT30        0.0824
    620  C7         4.3810  -39.9510  -14.6850 C.3    30  DT30        0.0377
    621  P         -1.3870  -38.5820  -10.8800 P.3    31  DA31        0.2141
    622  OP1       -2.4630  -37.6920  -11.3780 O.3    31  DA31       -0.4373
    623  OP2       -0.0240  -38.4970  -11.4600 O.2    31  DA31       -0.5172
    624  O5'       -1.2790  -38.4030   -9.2930 O.3    31  DA31       -0.3114
    625  C5'       -2.4610  -38.4480   -8.4980 C.3    31  DA31        0.1811
    626  C4'       -2.1280  -38.4530   -7.0180 C.3    31  DA31        0.1746
    627  O4'       -1.3730  -39.6490   -6.6880 O.3    31  DA31       -0.3327
    628  C3'       -1.2690  -37.2920   -6.5310 C.3    31  DA31        0.1558
    629  O3'       -2.0810  -36.1670   -6.2190 O.3    31  DA31       -0.3138
    630  C2'       -0.6440  -37.8990   -5.2880 C.3    31  DA31        0.0865
    631  C1'       -0.3660  -39.3300   -5.7450 C.3    31  DA31        0.2094
    632  N9         0.8880  -39.6810   -6.2790 N.ar   31  DA31       -0.2714
    633  C8         1.2280  -39.7820   -7.6030 C.ar   31  DA31        0.1815
    634  N7         2.4920  -40.0690   -7.8050 N.ar   31  DA31       -0.2193
    635  C5         3.0190  -40.1620   -6.5260 C.ar   31  DA31        0.1518
    636  C6         4.3140  -40.4430   -6.0550 C.ar   31  DA31        0.1919
    637  N6         5.3530  -40.6920   -6.8540 N.pl3  31  DA31       -0.1054
    638  N1         4.5040  -40.4580   -4.7180 N.ar   31  DA31       -0.2040
    639  C2         3.4610  -40.2090   -3.9180 C.ar   31  DA31        0.2016
    640  N3         2.2000  -39.9330   -4.2420 N.ar   31  DA31       -0.2048
    641  C4         2.0440  -39.9240   -5.5770 C.ar   31  DA31        0.1691
    642  P         -1.4330  -34.6130   -6.0070 P.3    32  DT32        0.2141
    643  OP1       -2.5280  -33.6610   -5.7130 O.3    32  DT32       -0.4373
    644  OP2       -0.7080  -34.5630   -7.3000 O.2    32  DT32       -0.5172
    645  O5'       -0.3790  -34.5150   -4.8110 O.3    32  DT32       -0.3114
    646  C5'       -0.8780  -34.2560   -3.5140 C.3    32  DT32        0.1811
    647  C4'       -0.0020  -34.9300   -2.4830 C.3    32  DT32        0.1746
    648  O4'        0.6670  -36.0720   -3.0670 O.3    32  DT32       -0.3327
    649  C3'        1.1520  -34.0690   -2.0150 C.3    32  DT32        0.1558
    650  O3'        0.7070  -33.1490   -1.0550 O.3    32  DT32       -0.3138
    651  C2'        2.1170  -35.1120   -1.4590 C.3    32  DT32        0.0866
    652  C1'        1.9790  -36.1770   -2.5380 C.3    32  DT32        0.2106
    653  N1         2.9820  -36.0440   -3.6290 N.ar   32  DT32       -0.2559
    654  C2         4.3080  -36.3650   -3.4120 C.ar   32  DT32        0.3545
    655  O2         4.7710  -36.5630   -2.3020 O.2    32  DT32       -0.2443
    656  N3         5.0790  -36.4460   -4.5460 N.ar   32  DT32       -0.1533
    657  C4         4.6660  -36.2420   -5.8460 C.ar   32  DT32        0.2804
    658  O4         5.4770  -36.3510   -6.7630 O.2    32  DT32       -0.2654
    659  C5         3.2760  -35.9120   -5.9890 C.ar   32  DT32        0.0534
    660  C6         2.5040  -35.8270   -4.9020 C.ar   32  DT32        0.0824
    661  C7         2.7300  -35.6710   -7.3650 C.3    32  DT32        0.0377
    662  P          1.1640  -31.5860   -1.2790 P.3    33  DT33        0.2141
    663  OP1        0.6200  -30.6900   -0.2500 O.3    33  DT33       -0.4373
    664  OP2        1.1100  -31.1040   -2.6860 O.2    33  DT33       -0.5172
    665  O5'        2.6670  -31.9440   -0.8430 O.3    33  DT33       -0.3114
    666  C5'        3.0170  -32.1460    0.5410 C.3    33  DT33        0.1811
    667  C4'        4.4860  -32.5200    0.6830 C.3    33  DT33        0.1746
    668  O4'        4.7850  -33.6800   -0.1220 O.3    33  DT33       -0.3327
    669  C3'        5.4710  -31.5040    0.1420 C.3    33  DT33        0.1558
    670  O3'        5.7120  -30.5580    1.1000 O.3    33  DT33       -0.3138
    671  C2'        6.7370  -32.3270   -0.0420 C.3    33  DT33        0.0866
    672  C1'        6.1060  -33.5650   -0.6440 C.3    33  DT33        0.2106
    673  N1         6.0750  -33.6320   -2.1270 N.ar   33  DT33       -0.2559
    674  C2         7.2510  -33.8690   -2.8120 C.ar   33  DT33        0.3545
    675  O2         8.3320  -33.9770   -2.2600 O.2    33  DT33       -0.2443
    676  N3         7.1180  -33.9740   -4.1760 N.ar   33  DT33       -0.1533
    677  C4         5.9530  -33.8680   -4.9060 C.ar   33  DT33        0.2804
    678  O4         5.9920  -33.9870   -6.1280 O.2    33  DT33       -0.2654
    679  C5         4.7750  -33.6210   -4.1230 C.ar   33  DT33        0.0534
    680  C6         4.8760  -33.5150   -2.7950 C.ar   33  DT33        0.0824
    681  C7         3.4570  -33.4890   -4.8260 C.3    33  DT33        0.0377
    682  P          5.8880  -29.1560    0.6840 P.3    34  DA34        0.2141
    683  OP1        5.7140  -28.2300    1.8330 O.3    34  DA34       -0.4373
    684  OP2        5.0050  -29.0300   -0.5040 O.2    34  DA34       -0.5172
    685  O5'        7.4020  -29.0750    0.1980 O.3    34  DA34       -0.3114
    686  C5'        8.4680  -29.2710    1.1170 C.3    34  DA34        0.1811
    687  C4'        9.7640  -29.4740    0.3750 C.3    34  DA34        0.1746
    688  O4'        9.6840  -30.6880   -0.4190 O.3    34  DA34       -0.3327
    689  C3'       10.1010  -28.4010   -0.6420 C.3    34  DA34        0.1558
    690  O3'       10.6920  -27.2680   -0.0190 O.3    34  DA34       -0.3138
    691  C2'       11.0660  -29.1410   -1.5590 C.3    34  DA34        0.0865
    692  C1'       10.3930  -30.5110   -1.6380 C.3    34  DA34        0.2094
    693  N9         9.4130  -30.5890   -2.7110 N.ar   34  DA34       -0.2714
    694  C8         8.0620  -30.3570   -2.6810 C.ar   34  DA34        0.1815
    695  N7         7.4710  -30.5240   -3.8410 N.ar   34  DA34       -0.2193
    696  C5         8.5040  -30.8890   -4.6900 C.ar   34  DA34        0.1518
    697  C6         8.5350  -31.2070   -6.0590 C.ar   34  DA34        0.1919
    698  N6         7.4550  -31.2080   -6.8430 N.pl3  34  DA34       -0.1054
    699  N1         9.7300  -31.5280   -6.6010 N.ar   34  DA34       -0.2040
    700  C2        10.8120  -31.5270   -5.8140 C.ar   34  DA34        0.2016
    701  N3        10.9090  -31.2470   -4.5170 N.ar   34  DA34       -0.2048
    702  C4         9.7060  -30.9320   -4.0090 C.ar   34  DA34        0.1691
    703  P         10.4920  -25.9010   -0.6520 P.3    35  DT35        0.2141
    704  OP1       11.3040  -24.7800   -0.1170 O.3    35  DT35       -0.4373
    705  OP2        9.1920  -25.6160   -1.3090 O.2    35  DT35       -0.5172
    706  O5'       11.3980  -26.7400   -1.6530 O.3    35  DT35       -0.3114
    707  C5'       12.7110  -27.1780   -1.2660 C.3    35  DT35        0.1811
    708  C4'       13.5310  -27.4960   -2.4910 C.3    35  DT35        0.1746
    709  O4'       12.9410  -28.6280   -3.1800 O.3    35  DT35       -0.3327
    710  C3'       13.5650  -26.3900   -3.5350 C.3    35  DT35        0.1558
    711  O3'       14.5840  -25.4470   -3.2420 O.3    35  DT35       -0.3138
    712  C2'       13.8550  -27.1640   -4.8100 C.3    35  DT35        0.0866
    713  C1'       13.0240  -28.4280   -4.5810 C.3    35  DT35        0.2106
    714  N1        11.6380  -28.2810   -5.1520 N.ar   35  DT35       -0.2559
    715  C2        11.4640  -28.6360   -6.4760 C.ar   35  DT35        0.3545
    716  O2        12.3820  -28.9890   -7.1960 O.2    35  DT35       -0.2443
    717  N3        10.1700  -28.5630   -6.9320 N.ar   35  DT35       -0.1533
    718  C4         9.0580  -28.1790   -6.2120 C.ar   35  DT35        0.2804
    719  O4         7.9580  -28.1640   -6.7600 O.2    35  DT35       -0.2654
    720  C5         9.3210  -27.8240   -4.8460 C.ar   35  DT35        0.0534
    721  C6        10.5700  -27.8870   -4.3770 C.ar   35  DT35        0.0824
    722  C7         8.1750  -27.3910   -3.9800 C.3    35  DT35        0.0377
    723  P         14.4800  -23.4790   -3.8750 P.3    36  DT36        0.2141
    724  OP1       15.1900  -22.1830   -3.8190 O.2    36  DT36       -0.5172
    725  OP2       13.0500  -23.5430   -3.5020 O.3    36  DT36       -0.4373
    726  O5'       14.6350  -24.0560   -5.3570 O.3    36  DT36       -0.3114
    727  C5'       15.8460  -23.8840   -6.0760 C.3    36  DT36        0.1811
    728  C4'       15.7980  -24.6470   -7.3820 C.3    36  DT36        0.1746
    729  O4'       14.6690  -25.5540   -7.4120 O.3    36  DT36       -0.3327
    730  C3'       15.5600  -23.7480   -8.5730 C.3    36  DT36        0.1558
    731  O3'       16.7740  -23.1960   -9.0210 O.3    36  DT36       -0.3138
    732  C2'       14.9300  -24.6830   -9.5930 C.3    36  DT36        0.0866
    733  C1'       14.0260  -25.5030   -8.6770 C.3    36  DT36        0.2106
    734  N1        12.7330  -25.2060   -8.7860 N.ar   36  DT36       -0.2559
    735  C2        12.1240  -25.4740   -9.9960 C.ar   36  DT36        0.3545
    736  O2        12.7280  -25.8980  -10.9650 O.2    36  DT36       -0.2443
    737  N3        10.7730  -25.2250  -10.0350 N.ar   36  DT36       -0.1533
    738  C4         9.9890  -24.7450   -9.0060 C.ar   36  DT36        0.2804
    739  O4         8.7860  -24.5730   -9.1920 O.2    36  DT36       -0.2654
    740  C5        10.6950  -24.4910   -7.7820 C.ar   36  DT36        0.0534
    741  C6        12.0080  -24.7240   -7.7180 C.ar   36  DT36        0.0824
    742  C7         9.9290  -23.9670   -6.6030 C.3    36  DT36        0.0377
    743  P         16.7310  -21.8450   -9.1240 P.3    37  DT37        0.2141
    744  OP1       17.9920  -21.0890   -9.2320 O.2    37  DT37       -0.5172
    745  OP2       15.5070  -21.1270   -8.7060 O.3    37  DT37       -0.4373
    746  O5'       16.4630  -22.5770  -10.5040 O.3    37  DT37       -0.3114
    747  C5'       17.3390  -22.4920  -11.5620 C.3    37  DT37        0.1811
    748  C4'       16.4950  -22.3370  -12.7810 C.3    37  DT37        0.1746
    749  O4'       15.3500  -23.2090  -12.7100 O.3    37  DT37       -0.3327
    750  C3'       15.8370  -20.9960  -12.8930 C.3    37  DT37        0.1558
    751  O3'       16.7900  -20.0030  -13.2500 O.3    37  DT37       -0.3138
    752  C2'       14.7870  -21.2930  -13.9580 C.3    37  DT37        0.0866
    753  C1'       14.3130  -22.6560  -13.5000 C.3    37  DT37        0.2106
    754  N1        13.1510  -22.6460  -12.7930 N.ar   37  DT37       -0.2559
    755  C2        11.9290  -22.6020  -13.4360 C.ar   37  DT37        0.3545
    756  O2        11.8120  -22.6780  -14.6460 O.2    37  DT37       -0.2443
    757  N3        10.8410  -22.4640  -12.6080 N.ar   37  DT37       -0.1533
    758  C4        10.8540  -22.3670  -11.2320 C.ar   37  DT37        0.2804
    759  O4         9.7930  -22.2470  -10.6240 O.2    37  DT37       -0.2654
    760  C5        12.1600  -22.4200  -10.6390 C.ar   37  DT37        0.0534
    761  C6        13.2350  -22.5540  -11.4210 C.ar   37  DT37        0.0824
    762  C7        12.2790  -22.3220   -9.1470 C.3    37  DT37        0.0377
    763  P         16.3750  -18.3560  -13.1100 P.3    38  DT38        0.2141
    764  OP1       17.4290  -17.4780  -13.6800 O.2    38  DT38       -0.5172
    765  OP2       15.8210  -18.0540  -11.7640 O.3    38  DT38       -0.4373
    766  O5'       15.1640  -18.4170  -14.1410 O.3    38  DT38       -0.3114
    767  C5'       15.3890  -18.7540  -15.5080 C.3    38  DT38        0.1811
    768  C4'       14.1360  -18.5230  -16.3170 C.3    38  DT38        0.1746
    769  O4'       13.0970  -19.4300  -15.8660 O.3    38  DT38       -0.3327
    770  C3'       13.5220  -17.1380  -16.1860 C.3    38  DT38        0.1558
    771  O3'       14.1450  -16.2340  -17.0990 O.3    38  DT38       -0.3138
    772  C2'       12.0630  -17.4010  -16.5410 C.3    38  DT38        0.0866
    773  C1'       11.8400  -18.7770  -15.9130 C.3    38  DT38        0.2106
    774  N1        11.4230  -18.7540  -14.4040 N.ar   38  DT38       -0.2559
    775  C2        10.0520  -18.6780  -14.2440 C.ar   38  DT38        0.3545
    776  O2         9.2680  -18.8000  -15.1680 O.2    38  DT38       -0.2443
    777  N3         9.6300  -18.4520  -12.9560 N.ar   38  DT38       -0.1533
    778  C4        10.4220  -18.2980  -11.8380 C.ar   38  DT38        0.2804
    779  O4         9.8950  -18.1010  -10.7460 O.2    38  DT38       -0.2654
    780  C5        11.8330  -18.3890  -12.0860 C.ar   38  DT38        0.0534
    781  C6        12.2720  -18.6080  -13.3290 C.ar   38  DT38        0.0824
    782  C7        12.7790  -18.2340  -10.9320 C.3    38  DT38        0.0377
    783  P         14.4910  -14.5880  -16.6440 P.3    39  DT39        0.2141
    784  OP1       15.3900  -13.5680  -17.2370 O.2    39  DT39       -0.5172
    785  OP2       14.5870  -15.0340  -15.2300 O.3    39  DT39       -0.4373
    786  O5'       12.9760  -14.0910  -16.7890 O.3    39  DT39       -0.3114
    787  C5'       12.5650  -13.6710  -18.0800 C.3    39  DT39        0.1811
    788  C4'       11.0870  -13.3850  -18.1690 C.3    39  DT39        0.1746
    789  O4'       10.3210  -14.5850  -17.8780 O.3    39  DT39       -0.3327
    790  C3'       10.5410  -12.3530  -17.1960 C.3    39  DT39        0.1558
    791  O3'       10.8140  -11.0210  -17.5880 O.3    39  DT39       -0.3138
    792  C2'        9.0630  -12.6990  -17.2220 C.3    39  DT39        0.0866
    793  C1'        9.1230  -14.2260  -17.2260 C.3    39  DT39        0.2106
    794  N1         9.0930  -14.7820  -15.8480 N.ar   39  DT39       -0.2559
    795  C2         7.9020  -15.1330  -15.2410 C.ar   39  DT39        0.3545
    796  O2         6.8160  -14.9740  -15.7690 O.2    39  DT39       -0.2443
    797  N3         8.0280  -15.6790  -13.9870 N.ar   39  DT39       -0.1533
    798  C4         9.1990  -15.9040  -13.2940 C.ar   39  DT39        0.2804
    799  O4         9.1520  -16.4050  -12.1730 O.2    39  DT39       -0.2654
    800  C5        10.3920  -15.5120  -13.9900 C.ar   39  DT39        0.0534
    801  C6        10.2990  -14.9790  -15.2110 C.ar   39  DT39        0.0824
    802  C7        11.7180  -15.7160  -13.3190 C.3    39  DT39        0.0377
    803  P         10.1450   -9.6080  -16.6600 P.3    40  DG40        0.2141
    804  OP1       10.3260   -8.3390  -17.3880 O.2    40  DG40       -0.5172
    805  OP2       10.8200   -9.8120  -15.3670 O.3    40  DG40       -0.4373
    806  O5'        8.5950   -9.8100  -16.3300 O.3    40  DG40       -0.3114
    807  C5'        7.6170   -9.2490  -17.1900 C.3    40  DG40        0.1811
    808  C4'        6.2720   -9.8870  -16.9660 C.3    40  DG40        0.1746
    809  O4'        6.4670  -11.2490  -16.5170 O.3    40  DG40       -0.3327
    810  C3'        5.4180   -9.3020  -15.8560 C.3    40  DG40        0.1558
    811  O3'        4.7770   -8.0910  -16.1970 O.3    40  DG40       -0.3138
    812  C2'        4.4620  -10.4460  -15.5560 C.3    40  DG40        0.0865
    813  C1'        5.4460  -11.6020  -15.6090 C.3    40  DG40        0.2094
    814  N9         5.9910  -11.8310  -14.2390 N.ar   40  DG40       -0.2713
    815  C8         7.3360  -11.7930  -13.9640 C.ar   40  DG40        0.1816
    816  N7         7.6290  -12.2160  -12.7640 N.ar   40  DG40       -0.2173
    817  C5         6.4070  -12.5560  -12.2130 C.ar   40  DG40        0.1748
    818  C6         6.0840  -13.0730  -10.9320 C.ar   40  DG40        0.3023
    819  O6         6.8510  -13.3430   -9.9990 O.2    40  DG40       -0.2633
    820  N1         4.7150  -13.2760  -10.7820 N.ar   40  DG40       -0.1709
    821  C2         3.7730  -13.0120  -11.7480 C.ar   40  DG40        0.2606
    822  N2         2.5010  -13.2740  -11.4190 N.pl3  40  DG40       -0.0859
    823  N3         4.0580  -12.5310  -12.9420 N.ar   40  DG40       -0.1918
    824  C4         5.3810  -12.3250  -13.1090 C.ar   40  DG40        0.1722
    825  P          4.9200   -7.0710  -15.3800 P.3    41  DA41        0.2141
    826  OP1        5.3710   -5.6820  -15.6330 O.2    41  DA41       -0.5172
    827  OP2        5.3950   -7.8030  -14.1750 O.3    41  DA41       -0.4373
    828  O5'        3.3260   -7.1260  -15.3750 O.3    41  DA41       -0.3114
    829  C5'        2.6580   -8.1450  -14.6680 C.3    41  DA41        0.1811
    830  C4'        1.3900   -8.4770  -15.4160 C.3    41  DA41        0.1746
    831  O4'        1.4040   -9.8670  -15.8120 O.3    41  DA41       -0.3327
    832  C3'        0.1420   -8.3150  -14.5730 C.3    41  DA41        0.1558
    833  O3'       -0.2760   -6.9460  -14.6070 O.3    41  DA41       -0.3138
    834  C2'       -0.8280   -9.2670  -15.2690 C.3    41  DA41        0.0865
    835  C1'        0.1040  -10.4090  -15.6690 C.3    41  DA41        0.2094
    836  N9         0.1370  -11.5140  -15.1100 N.ar   41  DA41       -0.2714
    837  C8         1.1440  -11.9840  -14.3080 C.ar   41  DA41        0.1815
    838  N7         0.8140  -13.0480  -13.6140 N.ar   41  DA41       -0.2191
    839  C5        -0.4990  -13.2920  -13.9860 C.ar   41  DA41        0.1525
    840  C6        -1.4210  -14.2830  -13.6050 C.ar   41  DA41        0.1839
    841  N6        -1.1460  -15.2510  -12.7280 N.2    41  DA41       -0.2077
    842  N1        -2.6500  -14.2420  -14.1630 N.ar   41  DA41       -0.2034
    843  C2        -2.9240  -13.2720  -15.0420 C.ar   41  DA41        0.2017
    844  N3        -2.1420  -12.2880  -15.4790 N.ar   41  DA41       -0.2048
    845  C4        -0.9290  -12.3550  -14.9060 C.ar   41  DA41        0.1693
    846  P         -0.7120   -6.2130  -13.2740 P.3    42  DT42        0.2141
    847  OP1       -0.9400   -4.7450  -13.3240 O.2    42  DT42       -0.5172
    848  OP2        0.0860   -6.7890  -12.1600 O.3    42  DT42       -0.4373
    849  O5'       -2.1350   -6.9330  -13.3040 O.3    42  DT42       -0.3114
    850  C5'       -3.1040   -6.5830  -14.2890 C.3    42  DT42        0.1811
    851  C4'       -4.2960   -7.5090  -14.2230 C.3    42  DT42        0.1746
    852  O4'       -3.8700   -8.8770  -14.4550 O.3    42  DT42       -0.3327
    853  C3'       -5.0340   -7.5810  -12.8960 C.3    42  DT42        0.1558
    854  O3'       -5.9530   -6.5020  -12.7730 O.3    42  DT42       -0.3138
    855  C2'       -5.7660   -8.9150  -13.0140 C.3    42  DT42        0.0866
    856  C1'       -4.7400   -9.7660  -13.7710 C.3    42  DT42        0.2106
    857  N1        -3.9330  -10.5770  -12.8400 N.ar   42  DT42       -0.2559
    858  C2        -4.5350  -11.7080  -12.3220 C.ar   42  DT42        0.3545
    859  O2        -5.6580  -12.0640  -12.6320 O.2    42  DT42       -0.2443
    860  N3        -3.7730  -12.4110  -11.4200 N.ar   42  DT42       -0.1533
    861  C4        -2.4970  -12.1030  -10.9940 C.ar   42  DT42        0.2804
    862  O4        -1.9390  -12.8320  -10.1780 O.2    42  DT42       -0.2654
    863  C5        -1.9410  -10.9140  -11.5770 C.ar   42  DT42        0.0534
    864  C6        -2.6610  -10.2120  -12.4560 C.ar   42  DT42        0.0824
    865  C7        -0.5580  -10.4940  -11.1770 C.3    42  DT42        0.0377
    866  P         -6.4150   -5.9850  -11.2880 P.3    43  DA43        0.2141
    867  OP1       -7.3210   -4.8050  -11.2060 O.2    43  DA43       -0.5172
    868  OP2       -4.9700   -5.8110  -10.9430 O.3    43  DA43       -0.4373
    869  O5'       -6.9900   -7.1720  -10.3540 O.3    43  DA43       -0.3114
    870  C5'       -8.3940   -7.4830  -10.2470 C.3    43  DA43        0.1811
    871  C4'       -8.5860   -8.6840   -9.3320 C.3    43  DA43        0.1746
    872  O4'       -7.8260   -9.7960   -9.8860 O.3    43  DA43       -0.3327
    873  C3'       -8.0480   -8.5050   -7.9030 C.3    43  DA43        0.1558
    874  O3'       -8.9920   -7.9260   -6.9720 O.3    43  DA43       -0.3138
    875  C2'       -7.6480   -9.9300   -7.5150 C.3    43  DA43        0.0865
    876  C1'       -7.0820  -10.4270   -8.8450 C.3    43  DA43        0.2094
    877  N9        -5.5660  -10.0100   -8.8740 N.ar   43  DA43       -0.2714
    878  C8        -5.0040   -9.1960   -9.8220 C.ar   43  DA43        0.1815
    879  N7        -3.6950   -9.1380   -9.7610 N.ar   43  DA43       -0.2193
    880  C5        -3.3750   -9.9700   -8.7000 C.ar   43  DA43        0.1518
    881  C6        -2.1460  -10.3370   -8.1230 C.ar   43  DA43        0.1919
    882  N6        -0.9640   -9.8920   -8.5550 N.pl3  43  DA43       -0.1054
    883  N1        -2.1760  -11.1860   -7.0740 N.ar   43  DA43       -0.2040
    884  C2        -3.3610  -11.6320   -6.6420 C.ar   43  DA43        0.2016
    885  N3        -4.5800  -11.3600   -7.1020 N.ar   43  DA43       -0.2048
    886  C4        -4.5170  -10.5130   -8.1430 C.ar   43  DA43        0.1691
    887  P         -8.6670   -6.6610   -6.1140 P.3    44  DC44        0.2141
    888  OP1       -9.8660   -5.7940   -6.0750 O.3    44  DC44       -0.4373
    889  OP2       -7.5410   -6.2850   -7.0230 O.2    44  DC44       -0.5172
    890  O5'       -8.0930   -6.8900   -4.6070 O.3    44  DC44       -0.3114
    891  C5'       -8.7930   -7.6310   -3.5860 C.3    44  DC44        0.1811
    892  C4'       -7.8790   -8.5220   -2.7450 C.3    44  DC44        0.1746
    893  O4'       -7.0740   -9.4040   -3.5880 O.3    44  DC44       -0.3327
    894  C3'       -6.8570   -7.8120   -1.8580 C.3    44  DC44        0.1558
    895  O3'       -7.3560   -7.3520   -0.5790 O.3    44  DC44       -0.3138
    896  C2'       -5.7170   -8.8340   -1.7150 C.3    44  DC44        0.0866
    897  C1'       -5.7730   -9.5600   -3.0550 C.3    44  DC44        0.2106
    898  N1        -4.8200   -9.0140   -3.9470 N.ar   44  DC44       -0.2556
    899  C2        -3.4550   -9.2650   -3.7640 C.ar   44  DC44        0.3531
    900  O2        -3.1000   -9.9630   -2.7990 O.2    44  DC44       -0.2443
    901  N3        -2.5650   -8.7420   -4.6410 N.ar   44  DC44       -0.1739
    902  C4        -2.9930   -7.9990   -5.6620 C.ar   44  DC44        0.1759
    903  N4        -2.0790   -7.5050   -6.5010 N.pl3  44  DC44       -0.1070
    904  C5        -4.3710   -7.7330   -5.8650 C.ar   44  DC44        0.0566
    905  C6        -5.2470   -8.2510   -4.9970 C.ar   44  DC44        0.0849
    906  P         -6.7840   -6.0420   -0.2070 P.3    45  DC45        0.2141
    907  OP1       -7.8040   -5.8210    0.8500 O.3    45  DC45       -0.4373
    908  OP2       -6.5450   -4.9900   -1.2360 O.2    45  DC45       -0.5172
    909  O5'       -5.3810   -6.3740    0.4760 O.3    45  DC45       -0.3114
    910  C5'       -5.3140   -7.2390    1.6240 C.3    45  DC45        0.1811
    911  C4'       -3.8900   -7.6910    1.8820 C.3    45  DC45        0.1746
    912  O4'       -3.3580   -8.3210    0.6820 O.3    45  DC45       -0.3327
    913  C3'       -2.8390   -6.6450    2.2330 C.3    45  DC45        0.1558
    914  O3'       -2.8500   -6.2360    3.6030 O.3    45  DC45       -0.3138
    915  C2'       -1.5440   -7.3720    1.8900 C.3    45  DC45        0.0866
    916  C1'       -1.9490   -8.1570    0.6420 C.3    45  DC45        0.2106
    917  N1        -1.6110   -7.4200   -0.5820 N.ar   45  DC45       -0.2556
    918  C2        -0.2750   -7.4110   -1.0000 C.ar   45  DC45        0.3531
    919  O2         0.5780   -7.9710   -0.2890 O.2    45  DC45       -0.2443
    920  N3         0.0490   -6.7940   -2.1610 N.ar   45  DC45       -0.1739
    921  C4        -0.8990   -6.2050   -2.8910 C.ar   45  DC45        0.1759
    922  N4        -0.5330   -5.6090   -4.0280 N.pl3  45  DC45       -0.1070
    923  C5        -2.2590   -6.2030   -2.4850 C.ar   45  DC45        0.0566
    924  C6        -2.5740   -6.8140   -1.3380 C.ar   45  DC45        0.0849
    925  P         -1.9380   -4.9090    4.0590 P.3    46  DC46        0.2141
    926  OP1       -2.4970   -4.7750    5.4230 O.3    46  DC46       -0.4373
    927  OP2       -2.0170   -3.7830    3.1020 O.2    46  DC46       -0.5172
    928  O5'       -0.3760   -5.2400    4.1500 O.3    46  DC46       -0.3114
    929  C5'        0.0040   -6.5720    4.4730 C.3    46  DC46        0.1811
    930  C4'        1.4390   -6.8480    4.1040 C.3    46  DC46        0.1746
    931  O4'        1.5360   -7.1950    2.7030 O.3    46  DC46       -0.3327
    932  C3'        2.3870   -5.6780    4.2880 C.3    46  DC46        0.1558
    933  O3'        2.8290   -5.5930    5.6310 O.3    46  DC46       -0.3138
    934  C2'        3.4840   -5.9430    3.2590 C.3    46  DC46        0.0866
    935  C1'        2.7110   -6.6520    2.1460 C.3    46  DC46        0.2106
    936  N1         2.2990   -5.7510    1.0490 N.ar   46  DC46       -0.2556
    937  C2         3.2820   -5.3590    0.1330 C.ar   46  DC46        0.3531
    938  O2         4.4210   -5.8440    0.2330 O.2    46  DC46       -0.2443
    939  N3         2.9630   -4.4640   -0.8330 N.ar   46  DC46       -0.1739
    940  C4         1.7270   -3.9690   -0.9020 C.ar   46  DC46        0.1759
    941  N4         1.4590   -3.0900   -1.8710 N.pl3  46  DC46       -0.1070
    942  C5         0.7170   -4.3540    0.0170 C.ar   46  DC46        0.0566
    943  C6         1.0360   -5.2370    0.9690 C.ar   46  DC46        0.0849
    944  P          3.9190   -4.3920    6.1770 P.3    47  DC47        0.2141
    945  OP1        4.0540   -4.6050    7.6380 O.3    47  DC47       -0.4373
    946  OP2        3.0880   -3.2670    5.6910 O.2    47  DC47       -0.5172
    947  O5'        5.3480   -4.1520    5.4810 O.3    47  DC47       -0.3114
    948  C5'        6.3690   -5.1410    5.5290 C.3    47  DC47        0.1811
    949  C4'        7.2500   -5.1660    4.2980 C.3    47  DC47        0.1746
    950  O4'        6.4530   -5.1000    3.0810 O.3    47  DC47       -0.3327
    951  C3'        8.2280   -4.0170    4.1070 C.3    47  DC47        0.1558
    952  O3'        9.3530   -4.0370    4.9690 O.3    47  DC47       -0.3138
    953  C2'        8.5780   -4.1800    2.6340 C.3    47  DC47        0.0866
    954  C1'        7.1950   -4.4650    2.0550 C.3    47  DC47        0.2106
    955  N1         6.5790   -3.1930    1.6640 N.ar   47  DC47       -0.2556
    956  C2         6.9940   -2.4320    0.5660 C.ar   47  DC47        0.3531
    957  O2         8.0990   -2.6770    0.0520 O.2    47  DC47       -0.2443
    958  N3         6.1840   -1.4540    0.0960 N.ar   47  DC47       -0.1739
    959  C4         5.0060   -1.2260    0.6800 C.ar   47  DC47        0.1759
    960  N4         4.2410   -0.2510    0.1830 N.pl3  47  DC47       -0.1070
    961  C5         4.5670   -1.9860    1.7940 C.ar   47  DC47        0.0566
    962  C6         5.3710   -2.9510    2.2540 C.ar   47  DC47        0.0849
    963  P          9.6550   -2.8510    5.7790 P.3    48  DT48        0.2141
    964  OP1       10.5490   -3.5680    6.7160 O.3    48  DT48       -0.4373
    965  OP2        8.4410   -2.1740    6.2890 O.2    48  DT48       -0.5172
    966  O5'       10.4730   -1.7020    5.0240 O.3    48  DT48       -0.3114
    967  C5'       11.7640   -2.0220    4.5290 C.3    48  DT48        0.1811
    968  C4'       12.1390   -1.2100    3.3140 C.3    48  DT48        0.1746
    969  O4'       11.1470   -1.3680    2.2680 O.3    48  DT48       -0.3327
    970  C3'       12.2270    0.2940    3.5000 C.3    48  DT48        0.1558
    971  O3'       13.4260    0.7040    4.1320 O.3    48  DT48       -0.3138
    972  C2'       12.1000    0.7990    2.0680 C.3    48  DT48        0.0866
    973  C1'       11.1200   -0.2090    1.4620 C.3    48  DT48        0.2106
    974  N1         9.7100    0.3270    1.4170 N.ar   48  DT48       -0.2559
    975  C2         9.3800    1.2380    0.4320 C.ar   48  DT48        0.3545
    976  O2        10.1860    1.6640   -0.3760 O.2    48  DT48       -0.2443
    977  N3         8.0650    1.6360    0.4260 N.ar   48  DT48       -0.1533
    978  C4         7.0700    1.2230    1.2880 C.ar   48  DT48        0.2804
    979  O4         5.9330    1.6700    1.1570 O.2    48  DT48       -0.2654
    980  C5         7.4920    0.2780    2.2830 C.ar   48  DT48        0.0534
    981  C6         8.7650   -0.1260    2.3110 C.ar   48  DT48        0.0824
    982  C7         6.4820   -0.2310    3.2680 C.3    48  DT48        0.0377
    983  P         13.4560    2.0400    5.0230 P.3    49  DT49        0.2141
    984  OP1       14.8020    1.8370    5.6030 O.2    49  DT49       -0.5172
    985  OP2       12.2510    1.8320    5.8580 O.3    49  DT49       -0.4373
    986  O5'       13.4110    3.5130    4.3920 O.3    49  DT49       -0.3114
    987  C5'       14.5650    4.0470    3.7530 C.3    49  DT49        0.1811
    988  C4'       14.1990    5.1490    2.7740 C.3    49  DT49        0.1746
    989  O4'       13.0210    4.7470    2.0360 O.3    49  DT49       -0.3327
    990  C3'       13.8010    6.4880    3.3770 C.3    49  DT49        0.1558
    991  O3'       14.9400    7.2790    3.6960 O.3    49  DT49       -0.3138
    992  C2'       13.0340    7.1030    2.2140 C.3    49  DT49        0.0866
    993  C1'       12.2680    5.8920    1.6960 C.3    49  DT49        0.2106
    994  N1        10.9580    5.8580    2.3350 N.ar   49  DT49       -0.2559
    995  C2         9.9400    6.5990    1.7650 C.ar   49  DT49        0.3545
    996  O2        10.0890    7.2680    0.7570 O.2    49  DT49       -0.2443
    997  N3         8.7340    6.5300    2.4190 N.ar   49  DT49       -0.1533
    998  C4         8.4500    5.8100    3.5610 C.ar   49  DT49        0.2804
    999  O4         7.3160    5.8460    4.0330 O.2    49  DT49       -0.2654
   1000  C5         9.5590    5.0680    4.0930 C.ar   49  DT49        0.0534
   1001  C6        10.7420    5.1170    3.4760 C.ar   49  DT49        0.0824
   1002  C7         9.3510    4.2530    5.3350 C.3    49  DT49        0.0377
   1003  P         14.8080    8.3890    4.8650 P.3    50  DT50        0.2141
   1004  OP1       16.2600    8.6510    4.9330 O.2    50  DT50       -0.5172
   1005  OP2       14.0100    8.0860    6.0670 O.3    50  DT50       -0.4373
   1006  O5'       14.1900    9.6680    4.1730 O.3    50  DT50       -0.3114
   1007  C5'       14.8370   10.1880    3.0510 C.3    50  DT50        0.1811
   1008  C4'       13.7750   10.9080    2.2750 C.3    50  DT50        0.1746
   1009  O4'       12.6960   10.0070    1.9200 O.3    50  DT50       -0.3327
   1010  C3'       13.0590   11.9980    3.0630 C.3    50  DT50        0.1558
   1011  O3'       13.9670   13.0740    3.3070 O.3    50  DT50       -0.3138
   1012  C2'       11.9500   12.2580    2.0580 C.3    50  DT50        0.0866
   1013  C1'       11.5410   10.8040    1.7580 C.3    50  DT50        0.2106
   1014  N1        10.4270   10.1980    2.6170 N.ar   50  DT50       -0.2559
   1015  C2         9.0960   10.3410    2.2750 C.ar   50  DT50        0.3545
   1016  O2         8.7270   10.9200    1.2680 O.2    50  DT50       -0.2443
   1017  N3         8.2050    9.7800    3.1580 N.ar   50  DT50       -0.1533
   1018  C4         8.5060    9.1060    4.3230 C.ar   50  DT50        0.2804
   1019  O4         7.5950    8.6560    5.0140 O.2    50  DT50       -0.2654
   1020  C5         9.9090    9.0000    4.6100 C.ar   50  DT50        0.0534
   1021  C6        10.7960    9.5370    3.7680 C.ar   50  DT50        0.0824
   1022  C7        10.3380    8.2840    5.8560 C.3    50  DT50        0.0377
   1023  P         13.5880   14.3680    4.2210 P.3    51  DG51        0.2141
   1024  OP1       14.6270   15.4190    4.3390 O.2    51  DG51       -0.5172
   1025  OP2       13.1530   13.6280    5.4360 O.3    51  DG51       -0.4373
   1026  O5'       12.2850   14.9950    3.5440 O.3    51  DG51       -0.3114
   1027  C5'       12.3680   15.6660    2.2700 C.3    51  DG51        0.1811
   1028  C4'       11.0000   16.1160    1.7980 C.3    51  DG51        0.1746
   1029  O4'       10.1780   14.9810    1.4140 O.3    51  DG51       -0.3327
   1030  C3'       10.1340   16.8830    2.7830 C.3    51  DG51        0.1558
   1031  O3'       10.5080   18.2520    2.8880 O.3    51  DG51       -0.3138
   1032  C2'        8.7360   16.7150    2.1890 C.3    51  DG51        0.0865
   1033  C1'        8.8040   15.3000    1.6120 C.3    51  DG51        0.2094
   1034  N9         8.2360   14.3940    2.5050 N.ar   51  DG51       -0.2713
   1035  C8         8.9200   13.6030    3.3970 C.ar   51  DG51        0.1816
   1036  N7         8.1360   12.8920    4.1600 N.ar   51  DG51       -0.2173
   1037  C5         6.8590   13.2290    3.7500 C.ar   51  DG51        0.1748
   1038  C6         5.5940   12.7820    4.2100 C.ar   51  DG51        0.3023
   1039  O6         5.3490   11.9660    5.1070 O.2    51  DG51       -0.2633
   1040  N1         4.5460   13.3820    3.5170 N.ar   51  DG51       -0.1709
   1041  C2         4.6990   14.3000    2.5050 C.ar   51  DG51        0.2606
   1042  N2         3.5700   14.7670    1.9550 N.pl3  51  DG51       -0.0859
   1043  N3         5.8680   14.7250    2.0670 N.ar   51  DG51       -0.1918
   1044  C4         6.9000   14.1560    2.7270 C.ar   51  DG51        0.1722
   1045  P          9.9250   19.0810    3.9550 P.3    52  DG52        0.2141
   1046  OP1       11.1770   19.8200    4.1980 O.2    52  DG52       -0.5172
   1047  OP2        9.5290   17.8980    4.8140 O.3    52  DG52       -0.4373
   1048  O5'        8.7040   20.0500    3.5720 O.3    52  DG52       -0.3114
   1049  C5'        8.9620   21.2380    2.8660 C.3    52  DG52        0.1811
   1050  C4'        7.6640   22.0110    2.7300 C.3    52  DG52        0.1746
   1051  O4'        6.6040   21.0670    2.5340 O.3    52  DG52       -0.3327
   1052  C3'        7.1730   22.7460    3.9670 C.3    52  DG52        0.1558
   1053  O3'        7.7780   23.9540    4.0940 O.3    52  DG52       -0.3138
   1054  C2'        5.6730   22.9330    3.7570 C.3    52  DG52        0.0865
   1055  C1'        5.4200   21.5630    3.1600 C.3    52  DG52        0.2094
   1056  N9         5.1010   20.7600    4.4810 N.ar   52  DG52       -0.2713
   1057  C8         5.8380   19.6620    4.8510 C.ar   52  DG52        0.1816
   1058  N7         5.2490   18.9250    5.7530 N.ar   52  DG52       -0.2173
   1059  C5         4.0510   19.5720    5.9950 C.ar   52  DG52        0.1748
   1060  C6         2.9890   19.2490    6.8780 C.ar   52  DG52        0.3035
   1061  O6         2.9010   18.2850    7.6490 O.2    52  DG52       -0.2633
   1062  N1         1.9550   20.1780    6.8110 N.ar   52  DG52       -0.1582
   1063  C2         1.9460   21.2840    5.9940 C.ar   52  DG52        0.2617
   1064  N2         0.8590   22.0640    6.0690 N.pl3  52  DG52       -0.0859
   1065  N3         2.9250   21.5970    5.1690 N.ar   52  DG52       -0.1918
   1066  C4         3.9400   20.7090    5.2180 C.ar   52  DG52        0.1722
   1067  P          8.7270   23.9260    5.2020 P.3    53  DG53        0.2141
   1068  OP1        9.5490   25.1540    5.0280 O.2    53  DG53       -0.5172
   1069  OP2        9.2130   22.8280    6.0930 O.3    53  DG53       -0.4373
   1070  O5'        7.2810   24.3670    5.7240 O.3    53  DG53       -0.3114
   1071  C5'        6.5330   25.3880    5.0620 C.3    53  DG53        0.1811
   1072  C4'        5.2970   25.7430    5.8610 C.3    53  DG53        0.1746
   1073  O4'        4.4510   24.5690    6.0000 O.3    53  DG53       -0.3327
   1074  C3'        5.5630   26.1700    7.2950 C.3    53  DG53        0.1558
   1075  O3'        5.8920   27.5580    7.3540 O.3    53  DG53       -0.3138
   1076  C2'        4.2390   25.8620    7.9850 C.3    53  DG53        0.0865
   1077  C1'        3.8040   24.5860    7.2670 C.3    53  DG53        0.2094
   1078  N9         4.0670   23.3760    7.9240 N.ar   53  DG53       -0.2713
   1079  C8         5.1500   22.5510    7.7390 C.ar   53  DG53        0.1816
   1080  N7         5.1420   21.5070    8.5220 N.ar   53  DG53       -0.2173
   1081  C5         3.9860   21.6460    9.2680 C.ar   53  DG53        0.1748
   1082  C6         3.4390   20.8220   10.2850 C.ar   53  DG53        0.3023
   1083  O6         3.8920   19.7650   10.7400 O.2    53  DG53       -0.2633
   1084  N1         2.2440   21.3340   10.7830 N.ar   53  DG53       -0.1709
   1085  C2         1.6490   22.4960   10.3530 C.ar   53  DG53        0.2606
   1086  N2         0.4970   22.8270   10.9530 N.pl3  53  DG53       -0.0859
   1087  N3         2.1460   23.2720    9.4100 N.ar   53  DG53       -0.1918
   1088  C4         3.3070   22.7950    8.9130 C.ar   53  DG53        0.1722
   1089  P          6.2810   28.2210    8.8190 P.3    54  DG54        0.2141
   1090  OP1        6.5580   29.6760    8.9300 O.2    54  DG54       -0.5172
   1091  OP2        7.3230   27.2420    9.2220 O.3    54  DG54       -0.4373
   1092  O5'        4.9300   27.8910    9.5970 O.3    54  DG54       -0.3114
   1093  C5'        4.9150   27.7490   11.0040 C.3    54  DG54        0.1811
   1094  C4'        3.5020   27.5430   11.4920 C.3    54  DG54        0.1746
   1095  O4'        2.9060   26.3910   10.8350 O.3    54  DG54       -0.3327
   1096  C3'        3.4270   27.2120   12.9690 C.3    54  DG54        0.1558
   1097  O3'        3.4790   28.4060   13.7170 O.3    54  DG54       -0.3138
   1098  C2'        2.1170   26.4500   13.0600 C.3    54  DG54        0.0865
   1099  C1'        2.2060   25.6020   11.7910 C.3    54  DG54        0.2094
   1100  N9         2.8760   24.4660   12.2160 N.ar   54  DG54       -0.2713
   1101  C8         4.0580   24.1310   11.6000 C.ar   54  DG54        0.1816
   1102  N7         4.5530   22.9980   12.0180 N.ar   54  DG54       -0.2173
   1103  C5         3.6470   22.5540   12.9630 C.ar   54  DG54        0.1748
   1104  C6         3.6450   21.3820   13.7620 C.ar   54  DG54        0.3023
   1105  O6         4.4820   20.4710   13.7870 O.2    54  DG54       -0.2633
   1106  N1         2.5320   21.3220   14.5960 N.ar   54  DG54       -0.1709
   1107  C2         1.5420   22.2740   14.6520 C.ar   54  DG54        0.2606
   1108  N2         0.5460   22.0400   15.5180 N.pl3  54  DG54       -0.0859
   1109  N3         1.5300   23.3680   13.9160 N.ar   54  DG54       -0.1918
   1110  C4         2.6020   23.4480   13.1000 C.ar   54  DG54        0.1722
   1111  P          4.9400   28.9150   14.3590 P.3    55  DA55        0.2141
   1112  OP1        5.0380   30.3820   14.5340 O.3    55  DA55       -0.4373
   1113  OP2        6.1400   28.1170   14.0220 O.2    55  DA55       -0.5172
   1114  O5'        4.3980   28.2580   15.7190 O.3    55  DA55       -0.3114
   1115  C5'        3.3720   28.8770   16.4880 C.3    55  DA55        0.1811
   1116  C4'        2.8550   27.9700   17.5810 C.3    55  DA55        0.1746
   1117  O4'        2.5230   26.6740   17.0190 O.3    55  DA55       -0.3327
   1118  C3'        3.8170   27.6600   18.7250 C.3    55  DA55        0.1558
   1119  O3'        3.8270   28.6610   19.7340 O.3    55  DA55       -0.3138
   1120  C2'        3.3220   26.3090   19.2300 C.3    55  DA55        0.0865
   1121  C1'        2.8200   25.6500   17.9460 C.3    55  DA55        0.2094
   1122  N9         3.7410   24.7380   17.3700 N.ar   55  DA55       -0.2714
   1123  C8         4.6400   24.9740   16.3620 C.ar   55  DA55        0.1815
   1124  N7         5.4100   23.9480   16.0890 N.ar   55  DA55       -0.2193
   1125  C5         4.9890   22.9720   16.9780 C.ar   55  DA55        0.1518
   1126  C6         5.4090   21.6480   17.1970 C.ar   55  DA55        0.1919
   1127  N6         6.3860   21.0580   16.5050 N.pl3  55  DA55       -0.1054
   1128  N1         4.7810   20.9430   18.1630 N.ar   55  DA55       -0.2040
   1129  C2         3.8020   21.5350   18.8560 C.ar   55  DA55        0.2016
   1130  N3         3.3190   22.7710   18.7420 N.ar   55  DA55       -0.2048
   1131  C4         3.9630   23.4440   17.7740 C.ar   55  DA55        0.1691
   1132  P          4.9710   28.7320   20.8510 P.3    56  DG56        0.2141
   1133  OP1        4.3350   29.4460   21.9950 O.3    56  DG56       -0.4373
   1134  OP2        6.2860   29.2000   20.3200 O.2    56  DG56       -0.5172
   1135  O5'        5.1840   27.1780   21.1610 O.3    56  DG56       -0.3114
   1136  C5'        4.2860   26.4220   21.9740 C.3    56  DG56        0.1811
   1137  C4'        4.7630   24.9960   22.0280 C.3    56  DG56        0.1746
   1138  O4'        4.8790   24.5350   20.6610 O.3    56  DG56       -0.3327
   1139  C3'        6.1620   24.8330   22.6050 C.3    56  DG56        0.1558
   1140  O3'        6.1070   24.5850   24.0060 O.3    56  DG56       -0.3138
   1141  C2'        6.7210   23.6170   21.8790 C.3    56  DG56        0.0865
   1142  C1'        6.0200   23.7090   20.5250 C.3    56  DG56        0.2093
   1143  N9         6.8350   24.2090   19.4490 N.ar   56  DG56       -0.2728
   1144  C8         6.9370   25.4940   18.9740 C.ar   56  DG56        0.1814
   1145  N7         7.9180   25.6540   18.1280 N.ar   56  DG56       -0.2177
   1146  C5         8.4980   24.4030   18.0340 C.ar   56  DG56        0.1711
   1147  C6         9.6060   23.9530   17.2710 C.2    56  DG56        0.2986
   1148  O6        10.3170   24.6060   16.4960 O.2    56  DG56       -0.2655
   1149  N1         9.8630   22.6000   17.4730 N.am   56  DG56       -0.1039
   1150  C2         9.1410   21.7810   18.3070 C.1    56  DG56        0.1516
   1151  N2         9.5400   20.5030   18.3690 N.2    56  DG56        0.0253
   1152  N3         8.1100   22.1830   19.0230 N.pl3  56  DG56       -0.1256
   1153  C4         7.8430   23.4940   18.8440 C.ar   56  DG56        0.1688
   1154  P          7.5810   24.4930   24.9280 P.3    57  DA57        0.2141
   1155  OP1        7.0640   24.9050   26.2540 O.3    57  DA57       -0.4373
   1156  OP2        8.9620   24.8390   24.5250 O.2    57  DA57       -0.5172
   1157  O5'        7.5020   22.9030   24.7690 O.3    57  DA57       -0.3114
   1158  C5'        8.6480   22.1630   25.1410 C.3    57  DA57        0.1811
   1159  C4'        8.9440   21.0330   24.1930 C.3    57  DA57        0.1746
   1160  O4'        8.6810   21.4160   22.8190 O.3    57  DA57       -0.3327
   1161  C3'       10.4050   20.6300   24.1420 C.3    57  DA57        0.1558
   1162  O3'       10.8540   19.9370   25.2880 O.3    57  DA57       -0.3138
   1163  C2'       10.4650   19.8590   22.8350 C.3    57  DA57        0.0865
   1164  C1'        9.6450   20.8130   21.9720 C.3    57  DA57        0.2094
   1165  N9        10.5710   21.9670   21.3380 N.ar   57  DA57       -0.2714
   1166  C8        10.1510   23.2680   21.4360 C.ar   57  DA57        0.1815
   1167  N7        10.7760   24.0880   20.6240 N.ar   57  DA57       -0.2193
   1168  C5        11.6670   23.2700   19.9480 C.ar   57  DA57        0.1518
   1169  C6        12.6200   23.5330   18.9480 C.ar   57  DA57        0.1919
   1170  N6        12.8400   24.7460   18.4370 N.pl3  57  DA57       -0.1054
   1171  N1        13.3480   22.4930   18.4880 N.ar   57  DA57       -0.2040
   1172  C2        13.1260   21.2770   19.0000 C.ar   57  DA57        0.2016
   1173  N3        12.2590   20.9060   19.9400 N.ar   57  DA57       -0.2048
   1174  C4        11.5530   21.9620   20.3770 C.ar   57  DA57        0.1691
   1175  P         12.2390   21.0320   26.4830 P.3    58  DC58        0.2141
   1176  OP1       11.4300   20.7900   27.7010 O.3    58  DC58       -0.4373
   1177  OP2       13.4420   21.9000   26.5650 O.2    58  DC58       -0.5172
   1178  O5'       12.6610   19.6270   25.8370 O.3    58  DC58       -0.3114
   1179  C5'       13.5380   19.5720   24.7090 C.3    58  DC58        0.1811
   1180  C4'       14.3300   18.2740   24.6430 C.3    58  DC58        0.1746
   1181  O4'       15.0500   18.0510   25.8820 O.3    58  DC58       -0.3327
   1182  C3'       13.5370   17.0030   24.3440 C.3    58  DC58        0.1558
   1183  O3'       13.8670   16.5640   23.0270 O.3    58  DC58       -0.3138
   1184  C2'       13.9920   16.0020   25.4170 C.3    58  DC58        0.0866
   1185  C1'       14.6220   16.8630   26.5060 C.3    58  DC58        0.2106
   1186  N1        13.7030   17.2780   27.5800 N.ar   58  DC58       -0.2556
   1187  C2        12.7400   16.4250   28.1310 C.ar   58  DC58        0.3531
   1188  O2        12.6540   15.2620   27.7010 O.2    58  DC58       -0.2443
   1189  N3        11.9310   16.8900   29.1130 N.ar   58  DC58       -0.1739
   1190  C4        12.0590   18.1460   29.5440 C.ar   58  DC58        0.1759
   1191  N4        11.2400   18.5610   30.5130 N.pl3  58  DC58       -0.1070
   1192  C5        13.0290   19.0260   28.9980 C.ar   58  DC58        0.0566
   1193  C6        13.8250   18.5620   28.0290 C.ar   58  DC58        0.0849
   1194  P         12.4150   15.5680   22.3360 P.3    59  DA59        0.2141
   1195  OP1       13.3540   14.4290   22.4740 O.3    59  DA59       -0.4373
   1196  OP2       12.3130   16.3250   21.0660 O.2    59  DA59       -0.5172
   1197  O5'       10.9160   15.0960   22.6450 O.3    59  DA59       -0.3114
   1198  C5'       10.6800   14.4020   23.8660 C.3    59  DA59        0.1811
   1199  C4'        9.2200   14.3050   24.2540 C.3    59  DA59        0.1746
   1200  O4'        8.7870   15.6070   24.7390 O.3    59  DA59       -0.3327
   1201  C3'        8.2500   13.9210   23.1390 C.3    59  DA59        0.1558
   1202  O3'        7.7550   12.5900   23.2180 O.3    59  DA59       -0.3138
   1203  C2'        7.0710   14.8770   23.2680 C.3    59  DA59        0.0865
   1204  C1'        7.5210   15.9600   24.2260 C.3    59  DA59        0.2094
   1205  N9         7.5160   17.0720   23.5530 N.ar   59  DA59       -0.2714
   1206  C8         8.5810   17.6480   22.9120 C.ar   59  DA59        0.1815
   1207  N7         8.2580   18.6870   22.1780 N.ar   59  DA59       -0.2193
   1208  C5         6.8870   18.8000   22.3490 C.ar   59  DA59        0.1518
   1209  C6         5.9420   19.7050   21.8360 C.ar   59  DA59        0.1919
   1210  N6         6.2510   20.7090   21.0120 N.pl3  59  DA59       -0.1054
   1211  N1         4.6530   19.5400   22.2030 N.ar   59  DA59       -0.2040
   1212  C2         4.3450   18.5340   23.0290 C.ar   59  DA59        0.2016
   1213  N3         5.1430   17.6210   23.5770 N.ar   59  DA59       -0.2048
   1214  C4         6.4160   17.8120   23.1920 C.ar   59  DA59        0.1691
   1215  P          7.4720   12.0760   21.7610 P.3    60  DT60        0.2141
   1216  OP1        7.4740   10.6280   21.4360 O.3    60  DT60       -0.4373
   1217  OP2        8.4510   12.9680   21.1090 O.2    60  DT60       -0.5172
   1218  O5'        6.0240   12.6790   21.4610 O.3    60  DT60       -0.3114
   1219  C5'        4.8400   12.1340   22.0530 C.3    60  DT60        0.1811
   1220  C4'        3.8130   13.2260   22.2760 C.3    60  DT60        0.1746
   1221  O4'        4.5110   14.4510   22.6260 O.3    60  DT60       -0.3327
   1222  C3'        2.9360   13.6530   21.1090 C.3    60  DT60        0.1558
   1223  O3'        1.8170   12.7900   20.9350 O.3    60  DT60       -0.3138
   1224  C2'        2.4730   15.0260   21.5690 C.3    60  DT60        0.0866
   1225  C1'        3.7540   15.5700   22.1970 C.3    60  DT60        0.2106
   1226  N1         4.5780   16.2940   21.2030 N.ar   60  DT60       -0.2557
   1227  C2         4.2180   17.5610   20.7840 C.ar   60  DT60        0.3545
   1228  O2         3.1620   18.0870   21.0890 O.2    60  DT60       -0.2443
   1229  N3         5.1430   18.1950   19.9900 N.ar   60  DT60       -0.1532
   1230  C4         6.3640   17.7010   19.5810 C.ar   60  DT60        0.2843
   1231  O4         7.0880   18.3900   18.8680 O.2    60  DT60       -0.2652
   1232  C5         6.6640   16.3790   20.0560 C.ar   60  DT60        0.1000
   1233  C6         5.7830   15.7400   20.8300 C.ar   60  DT60        0.0865
   1234  C7         7.9700   15.7520   19.6650 C.3    60  DT60        0.2422
   1235  P          1.2050   12.7150   19.7050 P.3    61  DC61        0.2141
   1236  OP1        0.4210   11.4950   20.0060 O.3    61  DC61       -0.4373
   1237  OP2        2.3040   12.6530   18.7070 O.2    61  DC61       -0.5172
   1238  O5'        0.2150   13.8840   19.2640 O.3    61  DC61       -0.3114
   1239  C5'       -0.8540   14.2910   20.1080 C.3    61  DC61        0.1811
   1240  C4'       -1.1310   15.7650   19.9340 C.3    61  DC61        0.1746
   1241  O4'        0.1220   16.4950   20.0490 O.3    61  DC61       -0.3327
   1242  C3'       -1.6340   16.2210   18.5750 C.3    61  DC61        0.1558
   1243  O3'       -3.0240   16.0020   18.3920 O.3    61  DC61       -0.3138
   1244  C2'       -1.3240   17.7130   18.6100 C.3    61  DC61        0.0866
   1245  C1'        0.0210   17.7190   19.3340 C.3    61  DC61        0.2106
   1246  N1         1.0510   17.7800   18.3700 N.ar   61  DC61       -0.2556
   1247  C2         1.3880   18.9520   17.6840 C.ar   61  DC61        0.3531
   1248  O2         0.6890   19.9660   17.8530 O.2    61  DC61       -0.2443
   1249  N3         2.4610   18.9480   16.8570 N.ar   61  DC61       -0.1739
   1250  C4         3.1820   17.8360   16.7050 C.ar   61  DC61        0.1759
   1251  N4         4.2300   17.8790   15.8800 N.pl3  61  DC61       -0.1070
   1252  C5         2.8570   16.6380   17.3920 C.ar   61  DC61        0.0566
   1253  C6         1.7970   16.6470   18.2070 C.ar   61  DC61        0.0849
   1254  P         -3.6080   15.6510   16.8260 P.3    62  DC62        0.2141
   1255  OP1       -4.7690   15.0530   17.5230 O.3    62  DC62       -0.4373
   1256  OP2       -2.5970   14.7820   16.1770 O.2    62  DC62       -0.5172
   1257  O5'       -4.1140   16.6820   15.7140 O.3    62  DC62       -0.3114
   1258  C5'       -5.0980   17.6290   16.0950 C.3    62  DC62        0.1811
   1259  C4'       -4.6230   19.0500   15.8690 C.3    62  DC62        0.1746
   1260  O4'       -3.2190   19.1710   16.2060 O.3    62  DC62       -0.3327
   1261  C3'       -4.6770   19.5180   14.4320 C.3    62  DC62        0.1558
   1262  O3'       -5.9950   19.8680   14.0920 O.3    62  DC62       -0.3138
   1263  C2'       -3.7730   20.7400   14.5290 C.3    62  DC62        0.0866
   1264  C1'       -2.6510   20.1830   15.3970 C.3    62  DC62        0.2106
   1265  N1        -1.6380   19.6980   14.4930 N.ar   62  DC62       -0.2556
   1266  C2        -0.7780   20.4520   13.6860 C.ar   62  DC62        0.3531
   1267  O2        -1.0660   21.6370   13.4490 O.2    62  DC62       -0.2443
   1268  N3         0.3390   19.8690   13.1890 N.ar   62  DC62       -0.1739
   1269  C4         0.6080   18.5940   13.4700 C.ar   62  DC62        0.1759
   1270  N4         1.7200   18.0620   12.9570 N.pl3  62  DC62       -0.1070
   1271  C5        -0.2510   17.8130   14.2850 C.ar   62  DC62        0.0566
   1272  C6        -1.3530   18.3920   14.7740 C.ar   62  DC62        0.0849
   1273  P         -6.3750   19.7030   12.6660 P.3    63  DT63        0.2141
   1274  OP1       -7.5530   20.6040   12.7170 O.3    63  DT63       -0.4373
   1275  OP2       -6.5670   18.2820   12.2770 O.2    63  DT63       -0.5172
   1276  O5'       -5.3220   20.3690   11.6630 O.3    63  DT63       -0.3114
   1277  C5'       -5.0560   21.7700   11.7210 C.3    63  DT63        0.1811
   1278  C4'       -3.8860   22.1280   10.8400 C.3    63  DT63        0.1746
   1279  O4'       -2.8680   21.1180   11.0120 O.3    63  DT63       -0.3327
   1280  C3'       -4.1220   22.1660    9.3350 C.3    63  DT63        0.1558
   1281  O3'       -4.6030   23.4520    8.9220 O.3    63  DT63       -0.3138
   1282  C2'       -2.7240   21.9140    8.7660 C.3    63  DT63        0.0866
   1283  C1'       -2.0720   21.0570    9.8510 C.3    63  DT63        0.2106
   1284  N1        -1.5880   20.0000    9.4610 N.ar   63  DT63       -0.2559
   1285  C2        -0.3800   19.8520    8.8060 C.ar   63  DT63        0.3545
   1286  O2         0.0810   20.7000    8.0640 O.2    63  DT63       -0.2443
   1287  N3         0.2720   18.6680    9.0510 N.ar   63  DT63       -0.1533
   1288  C4        -0.1530   17.6400    9.8670 C.ar   63  DT63        0.2804
   1289  O4         0.5450   16.6360    9.9890 O.2    63  DT63       -0.2654
   1290  C5        -1.4160   17.8690   10.5110 C.ar   63  DT63        0.0534
   1291  C6        -2.0710   19.0110   10.2900 C.ar   63  DT63        0.0824
   1292  C7        -1.9650   16.8090   11.4190 C.3    63  DT63        0.0377
   1293  P         -6.2190   23.5180    8.0450 P.3    64  DA64        0.2141
   1294  OP1       -7.2900   24.5200    7.8100 O.2    64  DA64       -0.5172
   1295  OP2       -6.5490   22.2370    8.7400 O.3    64  DA64       -0.4373
   1296  O5'       -5.5810   23.1420    6.6360 O.3    64  DA64       -0.3114
   1297  C5'       -5.4700   24.1190    5.6020 C.3    64  DA64        0.1811
   1298  C4'       -5.2910   23.4700    4.2640 C.3    64  DA64        0.1746
   1299  O4'       -3.9620   22.9080    4.1820 O.3    64  DA64       -0.3327
   1300  C3'       -6.2690   22.3600    3.9110 C.3    64  DA64        0.1558
   1301  O3'       -6.6450   22.5350    2.5580 O.3    64  DA64       -0.3138
   1302  C2'       -5.4450   21.0880    4.0840 C.3    64  DA64        0.0865
   1303  C1'       -4.0410   21.5660    3.7340 C.3    64  DA64        0.2094
   1304  N9        -2.4840   21.4580    4.5680 N.ar   64  DA64       -0.2714
   1305  C8        -2.3990   21.3510    5.9320 C.ar   64  DA64        0.1815
   1306  N7        -1.3720   20.6460    6.3450 N.ar   64  DA64       -0.2191
   1307  C5        -0.7400   20.2640    5.1720 C.ar   64  DA64        0.1544
   1308  C6         0.4140   19.4980    4.9260 C.ar   64  DA64        0.2045
   1309  N6         1.1650   18.9610    5.8900 N.2    64  DA64       -0.1388
   1310  N1         0.7720   19.3020    3.6390 N.ar   64  DA64       -0.2017
   1311  C2         0.0190   19.8410    2.6730 C.ar   64  DA64        0.2017
   1312  N3        -1.0830   20.5790    2.7800 N.ar   64  DA64       -0.2048
   1313  C4        -1.4140   20.7550    4.0700 C.ar   64  DA64        0.1693
   1314  P         -8.4050   23.1280    1.7910 P.3    65  DT65        0.2141
   1315  OP1       -8.0700   22.5430    0.4970 O.2    65  DT65       -0.5172
   1316  OP2       -8.7990   24.5400    1.8700 O.3    65  DT65       -0.4373
   1317  O5'       -9.4530   22.0810    2.4540 O.3    65  DT65       -0.3114
   1318  C5'       -9.1140   20.6850    2.4710 C.3    65  DT65        0.1811
   1319  C4'      -10.0250   19.9310    3.4170 C.3    65  DT65        0.1746
   1320  O4'       -9.6920   20.2580    4.8040 O.3    65  DT65       -0.3327
   1321  C3'      -11.5080   20.2300    3.3090 C.3    65  DT65        0.1558
   1322  O3'      -12.0540   19.3970    2.3620 O.3    65  DT65       -0.3138
   1323  C2'      -11.9910   19.7680    4.6790 C.3    65  DT65        0.0866
   1324  C1'      -10.8580   20.2660    5.6040 C.3    65  DT65        0.2106
   1325  N1       -11.1890   21.6450    6.1010 N.ar   65  DT65       -0.2559
   1326  C2       -12.0280   21.7640    7.1930 C.ar   65  DT65        0.3545
   1327  O2       -12.5500   20.8070    7.7370 O.2    65  DT65       -0.2443
   1328  N3       -12.2370   23.0500    7.6270 N.ar   65  DT65       -0.1533
   1329  C4       -11.7040   24.2040    7.0920 C.ar   65  DT65        0.2804
   1330  O4       -11.9850   25.2900    7.5940 O.2    65  DT65       -0.2654
   1331  C5       -10.8440   23.9980    5.9610 C.ar   65  DT65        0.0534
   1332  C6       -10.6230   22.7570    5.5170 C.ar   65  DT65        0.0824
   1333  C7       -10.2150   25.1930    5.3070 C.3    65  DT65        0.0377
   1334  P        -13.2720   19.8770    1.6480 P.3    66  DG66        0.2141
   1335  OP1      -13.2980   19.0270    0.4320 O.2    66  DG66       -0.5172
   1336  OP2      -13.7170   21.2920    1.6080 O.3    66  DG66       -0.4373
   1337  O5'      -14.1130   19.2170    2.8410 O.3    66  DG66       -0.3114
   1338  C5'      -15.4550   18.7900    2.7190 C.3    66  DG66        0.1811
   1339  C4'      -16.0950   18.7050    4.0750 C.3    66  DG66        0.1744
   1340  O4'      -15.2640   19.3740    5.0560 O.3    66  DG66       -0.3348
   1341  C3'      -17.4090   19.4480    4.1730 C.3    66  DG66        0.1555
   1342  O3'      -18.4900   18.7220    3.6350 O.3    66  DG66       -0.3139
   1343  C2'      -17.5320   19.7460    5.6560 C.3    66  DG66        0.0836
   1344  C1'      -16.0780   20.0530    5.9930 C.3    66  DG66        0.1985
   1345  N9       -15.8150   21.4860    5.9160 N.pl3  66  DG66       -0.2313
   1346  C8       -14.7960   21.9970    5.1490 C.2    66  DG66        0.1680
   1347  N7       -14.5460   23.2540    5.3960 N.2    66  DG66       -0.2206
   1348  C5       -15.4500   23.5960    6.3840 C.2    66  DG66        0.1914
   1349  C6       -15.6620   24.8280    7.0550 C.ar   66  DG66        0.3385
   1350  O6       -15.0630   25.8990    6.8980 O.2    66  DG66       -0.3142
   1351  N1       -16.6880   24.7400    7.9920 N.ar   66  DG66       -0.0777
   1352  C2       -17.4190   23.6060    8.2510 C.2    66  DG66        0.4809
   1353  N2       -18.3670   23.7150    9.1920 N.pl3  66  DG66        0.1486
   1354  N3       -17.2350   22.4550    7.6350 N.2    66  DG66       -0.0673
   1355  C4       -16.2440   22.5160    6.7200 C.3    66  DG66        0.3072
   1356  P        -19.5040   19.6370    2.7580 P.3    67  DC67        0.2141
   1357  OP1      -20.3300   18.6490    2.0260 O.3    67  DC67       -0.4373
   1358  OP2      -18.5960   20.5390    2.0070 O.2    67  DC67       -0.5172
   1359  O5'      -20.4660   20.5480    3.6410 O.3    67  DC67       -0.3114
   1360  C5'      -21.5170   19.9620    4.3900 C.3    67  DC67        0.1811
   1361  C4'      -22.0300   20.9260    5.4310 C.3    67  DC67        0.1746
   1362  O4'      -20.8870   21.4740    6.1440 O.3    67  DC67       -0.3327
   1363  C3'      -22.7450   22.1690    4.9130 C.3    67  DC67        0.1558
   1364  O3'      -24.1110   21.9140    4.6190 O.3    67  DC67       -0.3138
   1365  C2'      -22.5770   23.1440    6.0750 C.3    67  DC67        0.0866
   1366  C1'      -21.1650   22.8110    6.5340 C.3    67  DC67        0.2106
   1367  N1       -20.1970   23.7300    5.9120 N.ar   67  DC67       -0.2556
   1368  C2       -20.0840   25.0300    6.4180 C.ar   67  DC67        0.3531
   1369  O2       -20.7820   25.3530    7.3940 O.2    67  DC67       -0.2443
   1370  N3       -19.2230   25.8940    5.8300 N.ar   67  DC67       -0.1739
   1371  C4       -18.4950   25.5020    4.7830 C.ar   67  DC67        0.1759
   1372  N4       -17.6600   26.3890    4.2370 N.pl3  67  DC67       -0.1070
   1373  C5       -18.5940   24.1900    4.2560 C.ar   67  DC67        0.0566
   1374  C6       -19.4460   23.3390    4.8390 C.ar   67  DC67        0.0849
   1375  P        -24.8590   22.8820    3.7420 P.3    68  DG68        0.2141
   1376  OP1      -25.8040   21.7860    3.4290 O.3    68  DG68       -0.4373
   1377  OP2      -23.9320   23.4030    2.7070 O.2    68  DG68       -0.5172
   1378  O5'      -25.6710   24.1230    4.3470 O.3    68  DG68       -0.3114
   1379  C5'      -26.2020   24.0310    5.6620 C.3    68  DG68        0.1811
   1380  C4'      -26.2410   25.4010    6.3080 C.3    68  DG68        0.1746
   1381  O4'      -24.9340   25.7580    6.8220 O.3    68  DG68       -0.3327
   1382  C3'      -26.5590   26.5250    5.3450 C.3    68  DG68        0.1558
   1383  O3'      -27.9510   26.6200    5.1660 O.3    68  DG68       -0.3138
   1384  C2'      -26.0280   27.7230    6.1190 C.3    68  DG68        0.0865
   1385  C1'      -24.7350   27.1510    6.6930 C.3    68  DG68        0.2094
   1386  N9       -23.6210   27.3440    5.8260 N.ar   68  DG68       -0.2713
   1387  C8       -22.9860   26.3590    5.1090 C.ar   68  DG68        0.1816
   1388  N7       -22.0270   26.8130    4.3490 N.ar   68  DG68       -0.2173
   1389  C5       -22.0250   28.1770    4.5760 C.ar   68  DG68        0.1748
   1390  C6       -21.2090   29.2020    4.0330 C.ar   68  DG68        0.3023
   1391  O6       -20.2900   29.0950    3.2110 O.2    68  DG68       -0.2633
   1392  N1       -21.5450   30.4560    4.5350 N.ar   68  DG68       -0.1709
   1393  C2       -22.5440   30.6930    5.4480 C.ar   68  DG68        0.2606
   1394  N2       -22.7190   31.9700    5.8150 N.pl3  68  DG68       -0.0859
   1395  N3       -23.3110   29.7510    5.9610 N.ar   68  DG68       -0.1918
   1396  C4       -23.0040   28.5250    5.4870 C.ar   68  DG68        0.1722
   1397  P        -28.4720   27.3930    3.8600 P.3    69  DT69        0.2141
   1398  OP1      -29.9520   27.2040    3.7790 O.3    69  DT69       -0.4373
   1399  OP2      -27.6470   27.4060    2.6230 O.2    69  DT69       -0.5172
   1400  O5'      -28.1660   28.7460    4.6240 O.3    69  DT69       -0.3114
   1401  C5'      -29.0980   29.7890    4.6370 C.3    69  DT69        0.1812
   1402  C4'      -28.3770   31.0960    4.6450 C.3    69  DT69        0.1775
   1403  O4'      -27.0270   30.8800    5.1120 O.3    69  DT69       -0.3326
   1404  C3'      -28.1050   31.7010    3.3010 C.3    69  DT69        0.1859
   1405  O3'      -29.2620   32.2550    2.7910 O.3    69  DT69       -0.2202
   1406  C2'      -27.0030   32.6840    3.6100 C.3    69  DT69        0.0895
   1407  C1'      -26.1560   31.8350    4.5310 C.3    69  DT69        0.2107
   1408  N1       -25.1040   31.0140    3.6390 N.ar   69  DT69       -0.2559
   1409  C2       -24.0480   31.6890    3.0570 C.ar   69  DT69        0.3545
   1410  O2       -23.9250   32.9000    3.1090 O.2    69  DT69       -0.2443
   1411  N3       -23.1360   30.8930    2.4080 N.ar   69  DT69       -0.1533
   1412  C4       -23.1740   29.5190    2.2840 C.ar   69  DT69        0.2804
   1413  O4       -22.2790   28.9430    1.6700 O.2    69  DT69       -0.2654
   1414  C5       -24.3010   28.8910    2.9140 C.ar   69  DT69        0.0534
   1415  C6       -25.2030   29.6420    3.5520 C.ar   69  DT69        0.0824
   1416  C7       -24.4320   27.3990    2.8350 C.3    69  DT69        0.0377
   1417  P        -29.6200   31.6480    1.5770 P.3    70  DG70        0.4149
   1418  OP1      -30.7460   31.5120    0.6170 O.3    70  DG70       -0.1481
   1419  OP2      -28.2760   31.1320    1.2010 O.2    70  DG70       -0.2668
   1420  O5'      -29.4800   33.1940    1.9510 O.3    70  DG70       -0.2177
   1421  C5'      -29.5490   34.1890    0.9160 C.3    70  DG70        0.2140
   1422  C4'      -28.5030   35.2630    1.1060 C.3    70  DG70        0.1776
   1423  O4'      -27.3030   34.7530    1.7400 O.3    70  DG70       -0.3326
   1424  C3'      -28.0440   35.7820   -0.2370 C.3    70  DG70        0.1559
   1425  O3'      -28.9340   36.7590   -0.7180 O.3    70  DG70       -0.3138
   1426  C2'      -26.6270   36.2670    0.0280 C.3    70  DG70        0.0865
   1427  C1'      -26.1470   35.2600    1.0800 C.3    70  DG70        0.2094
   1428  N9       -25.3570   34.3520    0.4550 N.ar   70  DG70       -0.2713
   1429  C8       -25.6230   33.0100    0.5810 C.ar   70  DG70        0.1816
   1430  N7       -24.8130   32.2570   -0.1120 N.ar   70  DG70       -0.2173
   1431  C5       -23.9600   33.1510   -0.7320 C.ar   70  DG70        0.1748
   1432  C6       -22.8720   32.9280   -1.6150 C.ar   70  DG70        0.3023
   1433  O6       -22.4340   31.8490   -2.0340 O.2    70  DG70       -0.2633
   1434  N1       -22.2730   34.1190   -2.0150 N.ar   70  DG70       -0.1709
   1435  C2       -22.6740   35.3710   -1.6140 C.ar   70  DG70        0.2606
   1436  N2       -21.9720   36.4020   -2.1050 N.pl3  70  DG70       -0.0859
   1437  N3       -23.6830   35.5940   -0.7950 N.ar   70  DG70       -0.1918
   1438  C4       -24.2800   34.4520   -0.3950 C.ar   70  DG70        0.1722
   1439  P        -29.6200   36.6220   -2.1470 P.3    71  DC71        0.2141
   1440  OP1      -30.8580   37.4040   -2.4040 O.2    71  DC71       -0.5172
   1441  OP2      -29.7010   35.1400   -2.0240 O.3    71  DC71       -0.4373
   1442  O5'      -28.5600   37.0040   -3.2770 O.3    71  DC71       -0.3114
   1443  C5'      -28.1490   38.3720   -3.4610 C.3    71  DC71        0.1811
   1444  C4'      -26.9420   38.4550   -4.3770 C.3    71  DC71        0.1746
   1445  O4'      -25.8560   37.6780   -3.8160 O.3    71  DC71       -0.3327
   1446  C3'      -27.1070   37.9350   -5.8000 C.3    71  DC71        0.1558
   1447  O3'      -27.5710   38.9730   -6.6550 O.3    71  DC71       -0.3138
   1448  C2'      -25.6840   37.5660   -6.1930 C.3    71  DC71        0.0866
   1449  C1'      -25.1010   37.0850   -4.8600 C.3    71  DC71        0.2106
   1450  N1       -25.0730   35.6510   -4.6200 N.ar   71  DC71       -0.2556
   1451  C2       -24.1490   34.9120   -5.3680 C.ar   71  DC71        0.3531
   1452  O2       -23.3150   35.5210   -6.0590 O.2    71  DC71       -0.2443
   1453  N3       -24.1910   33.5590   -5.3170 N.ar   71  DC71       -0.1739
   1454  C4       -25.1040   32.9470   -4.5620 C.ar   71  DC71        0.1759
   1455  N4       -25.1070   31.6120   -4.5430 N.pl3  71  DC71       -0.1070
   1456  C5       -26.0490   33.6780   -3.7970 C.ar   71  DC71        0.0566
   1457  C6       -26.0040   35.0140   -3.8500 C.ar   71  DC71        0.0849
   1458  P        -28.5520   38.5840   -8.0270 P.3    72  DT72        0.2141
   1459  OP1      -28.9250   39.9500   -8.4620 O.2    72  DT72       -0.5172
   1460  OP2      -29.4140   37.4280   -8.3730 O.3    72  DT72       -0.4373
   1461  O5'      -27.1110   38.2140   -8.6180 O.3    72  DT72       -0.3114
   1462  C5'      -26.9600   37.6400   -9.9070 C.3    72  DT72        0.1812
   1463  C4'      -25.5720   37.0880  -10.1160 C.3    72  DT72        0.1775
   1464  O4'      -25.1110   36.4210   -8.9130 O.3    72  DT72       -0.3326
   1465  C3'      -25.4740   36.0090  -11.1760 C.3    72  DT72        0.1859
   1466  O3'      -25.4350   36.5160  -12.4890 O.3    72  DT72       -0.2202
   1467  C2'      -24.2400   35.2310  -10.7560 C.3    72  DT72        0.0895
   1468  C1'      -24.4670   35.2090   -9.2450 C.3    72  DT72        0.2107
   1469  N1       -25.5860   34.1380   -8.9390 N.ar   72  DT72       -0.2559
   1470  C2       -25.5450   32.7760   -9.1690 C.ar   72  DT72        0.3545
   1471  O2       -24.8030   32.2630   -9.9870 O.2    72  DT72       -0.2443
   1472  N3       -26.4100   32.0320   -8.4040 N.ar   72  DT72       -0.1533
   1473  C4       -27.2910   32.5020   -7.4530 C.ar   72  DT72        0.2804
   1474  O4       -28.0050   31.7080   -6.8450 O.2    72  DT72       -0.2654
   1475  C5       -27.2750   33.9260   -7.2730 C.ar   72  DT72        0.0534
   1476  C6       -26.4440   34.6740   -8.0040 C.ar   72  DT72        0.0824
   1477  C7       -28.1990   34.5350   -6.2610 C.3    72  DT72        0.0377
   1478  P        -26.5840   36.0220  -13.4780 P.3    73  DA73        0.4149
   1479  OP1      -26.5180   37.4960  -13.5870 O.2    73  DA73       -0.2668
   1480  OP2      -27.4070   35.2480  -14.4370 O.3    73  DA73       -0.1481
   1481  O5'      -25.0860   35.4760  -13.4590 O.3    73  DA73       -0.2177
   1482  C5'      -24.7690   34.1550  -13.8970 C.3    73  DA73        0.2141
   1483  C4'      -23.3510   34.1090  -14.4300 C.3    73  DA73        0.1804
   1484  O4'      -23.2090   35.1300  -15.4600 O.3    73  DA73       -0.3325
   1485  C3'      -22.2480   34.3980  -13.4080 C.3    73  DA73        0.1860
   1486  O3'      -21.0560   33.7010  -13.7570 O.3    73  DA73       -0.2203
   1487  C2'      -21.9930   35.8820  -13.6210 C.3    73  DA73        0.0894
   1488  C1'      -22.1200   35.9680  -15.1390 C.3    73  DA73        0.2095
   1489  N9       -22.1700   37.2690  -15.4260 N.ar   73  DA73       -0.2714
   1490  C8       -23.0870   38.2020  -15.0180 C.ar   73  DA73        0.1815
   1491  N7       -22.9950   39.3460  -15.6540 N.ar   73  DA73       -0.2193
   1492  C5       -21.9460   39.1510  -16.5390 C.ar   73  DA73        0.1518
   1493  C6       -21.3500   39.9880  -17.4980 C.ar   73  DA73        0.1919
   1494  N6       -21.7460   41.2410  -17.7340 N.pl3  73  DA73       -0.1054
   1495  N1       -20.3220   39.4860  -18.2150 N.ar   73  DA73       -0.2040
   1496  C2       -19.9270   38.2300  -17.9780 C.ar   73  DA73        0.2016
   1497  N3       -20.4080   37.3480  -17.1050 N.ar   73  DA73       -0.2048
   1498  C4       -21.4270   37.8770  -16.4090 C.ar   73  DA73        0.1691
   1499  P        -20.4500   31.6670  -13.0510 P.3    74  DC74        0.5411
   1500  OP1      -19.2920   31.1210  -13.8010 O.2    74  DC74       -0.2272
   1501  OP2      -21.3830   30.7400  -12.3680 O.2    74  DC74       -0.2272
   1502  O5'      -19.8890   32.6870  -11.9660 O.3    74  DC74       -0.2722
   1503  C5'      -19.2500   33.9070  -12.3760 C.3    74  DC74        0.1850
   1504  C4'      -19.2910   34.9260  -11.2630 C.3    74  DC74        0.1748
   1505  O4'      -20.6590   35.0850  -10.7940 O.3    74  DC74       -0.3327
   1506  C3'      -18.5410   34.5870   -9.9870 C.3    74  DC74        0.1558
   1507  O3'      -17.1410   34.8120  -10.1340 O.3    74  DC74       -0.3138
   1508  C2'      -19.1800   35.5550   -8.9970 C.3    74  DC74        0.0866
   1509  C1'      -20.6420   35.5110   -9.4390 C.3    74  DC74        0.2106
   1510  N1       -21.3420   34.4500   -8.6650 N.ar   74  DC74       -0.2556
   1511  C2       -21.7070   34.6750   -7.3320 C.ar   74  DC74        0.3531
   1512  O2       -21.3730   35.7440   -6.7930 O.2    74  DC74       -0.2443
   1513  N3       -22.4090   33.7230   -6.6710 N.ar   74  DC74       -0.1739
   1514  C4       -22.7440   32.5910   -7.2900 C.ar   74  DC74        0.1759
   1515  N4       -23.4350   31.6820   -6.5990 N.pl3  74  DC74       -0.1070
   1516  C5       -22.3840   32.3440   -8.6400 C.ar   74  DC74        0.0566
   1517  C6       -21.6910   33.2860   -9.2890 C.ar   74  DC74        0.0849
   1518  P        -16.1460   34.2040   -9.1250 P.3    75  DC75        0.2141
   1519  OP1      -14.7160   34.4050   -9.5000 O.2    75  DC75       -0.5172
   1520  OP2      -16.6760   32.8380   -8.9120 O.3    75  DC75       -0.4373
   1521  O5'      -16.5010   35.0580   -7.8130 O.3    75  DC75       -0.3114
   1522  C5'      -16.0180   36.3720   -7.6510 C.3    75  DC75        0.1811
   1523  C4'      -16.7960   37.0660   -6.5630 C.3    75  DC75        0.1746
   1524  O4'      -18.2010   36.7740   -6.7420 O.3    75  DC75       -0.3327
   1525  C3'      -16.5220   36.6030   -5.1470 C.3    75  DC75        0.1558
   1526  O3'      -15.2730   37.1270   -4.6080 O.3    75  DC75       -0.3138
   1527  C2'      -17.7820   37.1300   -4.4530 C.3    75  DC75        0.0866
   1528  C1'      -18.8480   36.8100   -5.4900 C.3    75  DC75        0.2106
   1529  N1       -19.4480   35.5240   -5.1560 N.ar   75  DC75       -0.2556
   1530  C2       -20.3960   35.4030   -4.1330 C.ar   75  DC75        0.3531
   1531  O2       -20.6480   36.3980   -3.4320 O.2    75  DC75       -0.2443
   1532  N3       -21.0080   34.2110   -3.9380 N.ar   75  DC75       -0.1739
   1533  C4       -20.7050   33.1700   -4.7150 C.ar   75  DC75        0.1759
   1534  N4       -21.3330   32.0150   -4.4850 N.pl3  75  DC75       -0.1070
   1535  C5       -19.7470   33.2720   -5.7560 C.ar   75  DC75        0.0566
   1536  C6       -19.1450   34.4510   -5.9460 C.ar   75  DC75        0.0849
   1537  P        -14.9450   36.9480   -3.1710 P.3    76  DG76        0.2141
   1538  OP1      -13.7760   37.6010   -3.8040 O.2    76  DG76       -0.5172
   1539  OP2      -15.0140   35.4700   -3.0940 O.3    76  DG76       -0.4373
   1540  O5'      -15.1310   37.5600   -1.7180 O.3    76  DG76       -0.3114
   1541  C5'      -15.6400   38.8980   -1.5910 C.3    76  DG76        0.1811
   1542  C4'      -17.0130   38.9100   -0.9490 C.3    76  DG76        0.1746
   1543  O4'      -17.9450   38.0170   -1.6190 O.3    76  DG76       -0.3327
   1544  C3'      -17.0830   38.4320    0.4820 C.3    76  DG76        0.1558
   1545  O3'      -16.5450   39.4060    1.3510 O.3    76  DG76       -0.3138
   1546  C2'      -18.5840   38.2310    0.6610 C.3    76  DG76        0.0865
   1547  C1'      -18.9580   37.6260   -0.6930 C.3    76  DG76        0.2094
   1548  N9       -19.1400   36.3980   -0.3270 N.ar   76  DG76       -0.2713
   1549  C8       -18.3720   35.4990   -1.0270 C.ar   76  DG76        0.1816
   1550  N7       -18.7330   34.2590   -0.8430 N.ar   76  DG76       -0.2173
   1551  C5       -19.8030   34.3390    0.0290 C.ar   76  DG76        0.1748
   1552  C6       -20.6100   33.3190    0.5960 C.ar   76  DG76        0.3023
   1553  O6       -20.5300   32.0960    0.4270 O.2    76  DG76       -0.2633
   1554  N1       -21.5920   33.8390    1.4350 N.ar   76  DG76       -0.1709
   1555  C2       -21.7740   35.1760    1.6960 C.ar   76  DG76        0.2606
   1556  N2       -22.7750   35.4840    2.5310 N.pl3  76  DG76       -0.0859
   1557  N3       -21.0310   36.1340    1.1770 N.ar   76  DG76       -0.1918
   1558  C4       -20.0710   35.6530    0.3600 C.ar   76  DG76        0.1722
   1559  P        -15.5920   38.9810    2.6880 P.3    77  DT77        0.2141
   1560  OP1      -15.3250   40.2210    3.4520 O.3    77  DT77       -0.4373
   1561  OP2      -14.7150   37.7970    2.8440 O.2    77  DT77       -0.5172
   1562  O5'      -17.0490   38.4360    3.0600 O.3    77  DT77       -0.3114
   1563  C5'      -18.0660   39.3070    3.5290 C.3    77  DT77        0.1811
   1564  C4'      -18.9540   38.5950    4.5160 C.3    77  DT77        0.1746
   1565  O4'      -19.7680   37.6140    3.8200 O.3    77  DT77       -0.3327
   1566  C3'      -18.2280   37.7640    5.5620 C.3    77  DT77        0.1558
   1567  O3'      -17.6760   38.5160    6.6280 O.3    77  DT77       -0.3138
   1568  C2'      -19.3060   36.7770    5.9870 C.3    77  DT77        0.0866
   1569  C1'      -19.9450   36.4730    4.6340 C.3    77  DT77        0.2106
   1570  N1       -19.2920   35.3390    4.0080 N.ar   77  DT77       -0.2559
   1571  C2       -19.8480   34.0910    4.2200 C.ar   77  DT77        0.3545
   1572  O2       -20.8600   33.9180    4.8770 O.2    77  DT77       -0.2443
   1573  N3       -19.1740   33.0470    3.6340 N.ar   77  DT77       -0.1533
   1574  C4       -18.0260   33.1230    2.8740 C.ar   77  DT77        0.2804
   1575  O4       -17.5360   32.0950    2.4130 O.2    77  DT77       -0.2654
   1576  C5       -17.5090   34.4520    2.7000 C.ar   77  DT77        0.0534
   1577  C6       -18.1450   35.4850    3.2590 C.ar   77  DT77        0.0824
   1578  C7       -16.2610   34.6390    1.8890 C.3    77  DT77        0.0377
   1579  P        -16.3640   37.9950    7.2210 P.3    78  DG78        0.2141
   1580  OP1      -15.7340   39.0170    8.0950 O.3    78  DG78       -0.4373
   1581  OP2      -15.5650   37.3240    6.1730 O.2    78  DG78       -0.5172
   1582  O5'      -16.9560   36.8400    8.1420 O.3    78  DG78       -0.3114
   1583  C5'      -17.7740   37.1420    9.2670 C.3    78  DG78        0.1811
   1584  C4'      -18.5570   35.9180    9.6820 C.3    78  DG78        0.1746
   1585  O4'      -19.1300   35.3150    8.4920 O.3    78  DG78       -0.3327
   1586  C3'      -17.7870   34.7460   10.2680 C.3    78  DG78        0.1558
   1587  O3'      -17.4490   34.9370   11.6370 O.3    78  DG78       -0.3138
   1588  C2'      -18.8040   33.6250   10.1200 C.3    78  DG78        0.0865
   1589  C1'      -19.4120   33.9490    8.7550 C.3    78  DG78        0.2094
   1590  N9       -18.7710   33.1490    7.7620 N.ar   78  DG78       -0.2713
   1591  C8       -17.8270   33.5240    6.8360 C.ar   78  DG78        0.1816
   1592  N7       -17.4850   32.5570    6.0290 N.ar   78  DG78       -0.2173
   1593  C5       -18.2460   31.4800    6.4430 C.ar   78  DG78        0.1748
   1594  C6       -18.3090   30.1510    5.9500 C.ar   78  DG78        0.3023
   1595  O6       -17.6770   29.6510    5.0110 O.2    78  DG78       -0.2633
   1596  N1       -19.2180   29.3740    6.6630 N.ar   78  DG78       -0.1709
   1597  C2       -19.9730   29.8220    7.7200 C.ar   78  DG78        0.2606
   1598  N2       -20.7960   28.9250    8.2810 N.pl3  78  DG78       -0.0859
   1599  N3       -19.9250   31.0530    8.1900 N.ar   78  DG78       -0.1918
   1600  C4       -19.0480   31.8250    7.5130 C.ar   78  DG78        0.1722
   1601  P        -16.0500   33.9510   12.4290 P.3    79  DA79        0.2141
   1602  OP1      -15.1600   34.8220   13.2300 O.3    79  DA79       -0.4373
   1603  OP2      -15.5080   32.7730   11.7100 O.2    79  DA79       -0.5172
   1604  O5'      -17.1870   33.3450   13.3800 O.3    79  DA79       -0.3114
   1605  C5'      -16.9860   32.1260   14.0880 C.3    79  DA79        0.1811
   1606  C4'      -18.1230   31.1610   13.8500 C.3    79  DA79        0.1746
   1607  O4'      -18.4540   31.1680   12.4370 O.3    79  DA79       -0.3327
   1608  C3'      -17.8570   29.6950   14.1740 C.3    79  DA79        0.1558
   1609  O3'      -18.0390   29.3730   15.5480 O.3    79  DA79       -0.3138
   1610  C2'      -18.8220   28.9660   13.2430 C.3    79  DA79        0.0865
   1611  C1'      -18.8020   29.8710   12.0090 C.3    79  DA79        0.2094
   1612  N9       -17.7490   29.3950   11.0050 N.ar   79  DA79       -0.2714
   1613  C8       -16.7150   30.1750   10.5550 C.ar   79  DA79        0.1815
   1614  N7       -16.0530   29.6480    9.5530 N.ar   79  DA79       -0.2190
   1615  C5       -16.6950   28.4400    9.3300 C.ar   79  DA79        0.1571
   1616  C6       -16.4730   27.4090    8.4000 C.ar   79  DA79        0.2357
   1617  N6       -15.5030   27.4350    7.4830 N.ar   79  DA79       -0.0510
   1618  N1       -17.2940   26.3370    8.4450 N.ar   79  DA79       -0.1498
   1619  C2       -18.2670   26.3120    9.3630 C.ar   79  DA79        0.2160
   1620  N3       -18.5740   27.2190   10.2880 N.ar   79  DA79       -0.2038
   1621  C4       -17.7400   28.2700   10.2170 C.ar   79  DA79        0.1695
   1622  P        -17.8350   28.2620   15.8120 P.3    80  DA80        0.2141
   1623  OP1      -18.8300   28.2480   16.9170 O.3    80  DA80       -0.4373
   1624  OP2      -16.3920   28.0560   16.1160 O.2    80  DA80       -0.5172
   1625  O5'      -18.2540   27.1900   14.7070 O.3    80  DA80       -0.3114
   1626  C5'      -18.4580   25.8350   15.0730 C.3    80  DA80        0.1811
   1627  C4'      -19.2440   25.1030   14.0110 C.3    80  DA80        0.1753
   1628  O4'      -18.3590   24.7290   12.9160 O.3    80  DA80       -0.3510
   1629  C3'      -19.7920   23.7810   14.5200 C.3    80  DA80        0.1839
   1630  O3'      -21.0290   23.9640   15.1930 O.3    80  DA80       -0.2204
   1631  C2'      -19.8760   22.9340   13.2580 C.3    80  DA80        0.0676
   1632  C1'      -18.6220   23.3920   12.5120 C.3    80  DA80        0.1450
   1633  N9       -16.7600   24.8830   11.7200 N.2    80  DA80       -0.0102
   1634  C8       -16.1110   25.9980   12.1830 C.2    80  DA80        0.3354
   1635  N7       -14.9690   26.2340   11.5800 N.2    80  DA80       -0.2028
   1636  C5       -14.8600   25.2030   10.6610 C.3    80  DA80        0.3315
   1637  C6       -13.8740   24.8830    9.7110 C.2    80  DA80        0.4301
   1638  N6       -12.7650   25.6030    9.5250 N.pl3  80  DA80        0.2140
   1639  N1       -14.0700   23.7850    8.9500 N.2    80  DA80        0.0200
   1640  C2       -15.1830   23.0650    9.1360 C.2    80  DA80        0.4720
   1641  N3       -16.1800   23.2650    9.9940 N.2    80  DA80        0.0177
   1642  C4       -15.9550   24.3630   10.7360 C.2    80  DA80        0.3923
@<TRIPOS>BOND
     1   597   598   ar
     2   597   595   ar
     3   598   599   ar
     4   596   595    1
     5   595   594   ar
     6   599   600   ar
     7   594   600   ar
     8   594   593   ar
     9   600   591   ar
    10   357   358    1
    11   357   356    1
    12   357   359    1
    13   358   362    1
    14   356   355    1
    15   593   592   ar
    16   591   590    1
    17   591   592   ar
    18   360   359    1
    19   360   373    1
    20   377   378    1
    21   377   376    1
    22   590   589    1
    23   590   586    1
    24   394   393    2
    25   362   361    1
    26   362   363    1
    27   378   380    1
    28   378   379    1
    29  1495  1496   ar
    30  1495  1493   ar
    31   359   361    1
    32   788   787    1
    33   788   789    1
    34   788   790    1
    35   374   373    2
    36   589   587    1
    37   349   348    1
    38   787   786    1
    39   381   380    1
    40   381   393    1
    41  1496  1497   ar
    42   789   793    1
    43   339   340    1
    44   339   337    1
    45   338   355    1
    46   338   337    1
    47  1494  1493    1
    48   373   376    1
    49   373   375    1
    50   791   790    1
    51   791   803    1
    52   586   585    1
    53   397   396    1
    54   397   398    1
    55   380   382    1
    56  1493  1492   ar
    57   393   396    1
    58   393   395    1
    59   379   383    1
    60   350   348   ar
    61   350   351   ar
    62   804   803    2
    63   340   336    1
    64   340   341    1
    65   784   783    2
    66   793   792    1
    67   793   794    1
    68   792   790    1
    69   335   337    1
    70   335   336    1
    71   335   334    1
    72   807   808    1
    73   807   806    1
    74   348   347   ar
    75  1497  1498   ar
    76   771   783    1
    77   771   770    1
    78   363   372   ar
    79   363   364   ar
    80   353   352    1
    81   808   809    1
    82   808   810    1
    83   371   372   ar
    84   371   370   ar
    85   786   783    1
    86   398   399    1
    87   398   400    1
    88   602   601    2
    89   803   806    1
    90   803   805    1
    91   352   354    2
    92   783   785    1
    93   587   585    1
    94   587   588    1
    95   772   770    1
    96   772   773    1
    97  1492  1498   ar
    98  1492  1491   ar
    99   603   601    1
   100   809   813    1
   101  1498  1489   ar
   102   585   584    1
   103   372   366   ar
   104   768   770    1
   105   768   769    1
   106   768   767    1
   107   351   341   ar
   108   351   344   ar
   109   341   342   ar
   110   383   382    1
   111   383   384    1
   112   399   403    1
   113   334   333    1
   114   811   810    1
   115   811   825    1
   116   364   365   ar
   117   588   601    1
   118   601   604    1
   119   370   369   ar
   120   773   769    1
   121   773   774    1
   122   810   812    1
   123   347   345   ar
   124   794   795   ar
   125   794   801   ar
   126   831   835    1
   127   831   830    1
   128   796   795    2
   129   835   834    1
   130   835   836    1
   131   401   400    1
   132   401   415    1
   133  1491  1490   ar
   134   826   825    2
   135   813   812    1
   136   813   814    1
   137   767   766    1
   138   844   843   ar
   139   844   845   ar
   140  1484  1488    1
   141  1484  1483    1
   142   400   402    1
   143  1489  1488    1
   144  1489  1490   ar
   145   830   829    1
   146   830   832    1
   147   583   584    1
   148   583   580    1
   149   825   828    1
   150   825   827    1
   151   828   829    1
   152   384   391   ar
   153   384   385   ar
   154   834   832    1
   155   795   797   ar
   156   801   800   ar
   157   776   775    2
   158  1488  1487    1
   159   366   365   ar
   160   366   367   ar
   161   836   845   ar
   162   836   837   ar
   163   416   415    2
   164   843   842   ar
   165   403   402    1
   166   403   404    1
   167   344   345   ar
   168   344   343   ar
   169   333   330    1
   170   845   839   ar
   171   391   390   ar
   172   342   343   ar
   173   386   385    2
   174   345   346    2
   175   620   618    1
   176   369   367   ar
   177   756   755    2
   178   833   832    1
   179   833   846    1
   180   415   417    1
   181   415   418    1
   182   581   580    2
   183   604   605    1
   184   852   851    1
   185   852   856    1
   186  1480  1478    1
   187   385   387   ar
   188  1483  1482    1
   189  1483  1485    1
   190   774   775   ar
   191   774   781   ar
   192   331   330    2
   193   837   838   ar
   194   850   851    1
   195   850   849    1
   196   580   582    1
   197   580   566    1
   198   419   418    1
   199   419   420    1
   200   775   777   ar
   201   814   815   ar
   202   814   824   ar
   203   851   853    1
   204   367   368    1
   205   842   840   ar
   206   766   763    1
   207   800   802    1
   208   800   798   ar
   209   797   798   ar
   210   839   838   ar
   211   839   840   ar
   212   405   404   ar
   213   405   406   ar
   214   815   816   ar
   215   752   753    1
   216   752   750    1
   217   404   414   ar
   218  1482  1481    1
   219  1500  1499    2
   220   330   317    1
   221   330   332    1
   222   856   855    1
   223   856   857    1
   224  1486  1485    1
   225   764   763    2
   226   390   392    1
   227   390   388   ar
   228   605   606    1
   229  1487  1485    1
   230   840   841    2
   231  1479  1478    2
   232   753   754    1
   233   753   749    1
   234  1481  1466    1
   235   327   328   ar
   236   327   326   ar
   237   755   754   ar
   238   755   757   ar
   239   781   780   ar
   240   847   846    2
   241   849   846    1
   242   798   799    2
   243   618   619   ar
   244   618   616   ar
   245   846   848    1
   246   751   763    1
   247   751   750    1
   248   420   421    1
   249   420   422    1
   250   317   316    1
   251   328   329   ar
   252   318   316    1
   253   318   319    1
   254   387   388   ar
   255   763   765    1
   256   824   823   ar
   257   824   817   ar
   258  1499  1501    2
   259  1499  1502    1
   260   855   853    1
   261   777   778   ar
   262   823   821   ar
   263   566   565    1
   264   853   854    1
   265   750   748    1
   266   406   407   ar
   267   857   864   ar
   268   857   858   ar
   269   619   612   ar
   270   577   576    1
   271   754   761   ar
   272   748   749    1
   273   748   747    1
   274   854   866    1
   275   816   817   ar
   276   841   319    1
   277   326   324   ar
   278   421   425    1
   279   388   389    2
   280   617   616    2
   281   414   413   ar
   282   414   407   ar
   283   859   858    2
   284   757   758   ar
   285  1466  1465    1
   286   864   863   ar
   287   616   615   ar
   288   316   314    1
   289  1503  1502    1
   290  1503  1504    1
   291   858   860   ar
   292   423   422    1
   293   423   434    1
   294   319   320    1
   295   319   315    1
   296   413   411   ar
   297   817   818   ar
   298   606   607    1
   299   606   608    1
   300   576   575   ar
   301   576   578   ar
   302   567   565    1
   303   567   568    1
   304   780   778   ar
   305   780   782    1
   306   329   320   ar
   307   329   323   ar
   308   407   408   ar
   309   607   611    1
   310   422   424    1
   311   565   563    1
   312   778   779    2
   313   575   573   ar
   314   578   579   ar
   315   821   822    1
   316   821   820   ar
   317   608   609    1
   318   608   610    1
   319   324   323   ar
   320   324   325    1
   321   863   865    1
   322   863   861   ar
   323   314   315    1
   324   314   313    1
   325   747   746    1
   326   612   611    1
   327   612   613   ar
   328   320   321   ar
   329   623   621    2
   330   435   434    2
   331   761   760   ar
   332   860   861   ar
   333   622   621    1
   334   425   424    1
   335   425   426    1
   336   866   867    2
   337   866   868    1
   338   866   869    1
   339  1504  1505    1
   340  1504  1506    1
   341   758   760   ar
   342   758   759    2
   343   323   322   ar
   344   609   621    1
   345  1465  1467    1
   346  1465  1463    1
   347   615   613   ar
   348   573   574    2
   349   573   572   ar
   350   434   436    1
   351   434   437    1
   352   579   572   ar
   353   579   569   ar
   354   206   205    2
   355   861   862    2
   356   411   412    1
   357   411   410   ar
   358   611   610    1
   359   736   735    2
   360   818   820   ar
   361   818   819    2
   362   433   426   ar
   363   433   432   ar
   364   621   624    1
   365  1505  1509    1
   366  1467  1468    1
   367   572   571   ar
   368   408   410   ar
   369   408   409    2
   370   568   569    1
   371   568   564    1
   372   760   762    1
   373   613   614    2
   374   563   564    1
   375   563   562    1
   376   569   570   ar
   377   426   427   ar
   378   746   743    1
   379   184   183    2
   380   321   322   ar
   381   869   870    1
   382   313   312    1
   383   870   871    1
   384  1507  1506    1
   385  1507  1518    1
   386  1463  1462    1
   387  1463  1464    1
   388   432   430   ar
   389   737   735   ar
   390   737   738   ar
   391   571   570   ar
   392   735   734   ar
   393  1506  1508    1
   394  1471  1470    2
   395  1462  1461    1
   396   872   871    1
   397   872   876    1
   398   878   879   ar
   399   878   877   ar
   400   562   561    1
   401   879   880   ar
   402   205   207    1
   403   205   191    1
   404   205   208    1
   405   732   733    1
   406   732   730    1
   407   437   438    1
   408  1519  1518    2
   409   561   558    1
   410   312   309    1
   411  1509  1508    1
   412  1509  1510    1
   413   871   873    1
   414   624   625    1
   415  1517  1510   ar
   416  1517  1516   ar
   417   427   428    2
   418   427   429   ar
   419  1468  1469    1
   420  1468  1464    1
   421   744   743    2
   422   183   170    1
   423   183   185    1
   424   183   186    1
   425   739   738    2
   426  1470  1469   ar
   427  1470  1472   ar
   428   227   226    2
   429  1518  1520    1
   430  1518  1521    1
   431   743   731    1
   432   743   745    1
   433   228   226    1
   434   731   730    1
   435   738   740   ar
   436   559   558    2
   437  1469  1476   ar
   438   555   554    1
   439   191   190    1
   440   438   439    1
   441   877   876    1
   442   877   886   ar
   443   876   875    1
   444   303   302    2
   445   208   209    1
   446   430   429   ar
   447   430   431    1
   448   734   733    1
   449   734   741   ar
   450   170   169    1
   451   553   554   ar
   452   553   551   ar
   453   552   551    2
   454   880   886   ar
   455   880   881   ar
   456   733   729    1
   457  1510  1511   ar
   458  1516  1514   ar
   459  1461  1458    1
   460   730   728    1
   461   304   302   ar
   462   304   305   ar
   463   882   881    1
   464   558   560    1
   465   558   544    1
   466   625   626    1
   467  1459  1458    2
   468   163   162    2
   469   187   186    1
   470   187   188    1
   471   226   213    1
   472   226   229    1
   473   554   556   ar
   474   209   210    1
   475   310   309    2
   476  1472  1473   ar
   477  1460  1458    1
   478   551   550   ar
   479   306   305    1
   480   302   301   ar
   481   886   885   ar
   482   309   311    1
   483   309   298    1
   484   881   883   ar
   485   213   212    1
   486  1458  1447    1
   487  1476  1475   ar
   488   873   875    1
   489   873   874    1
   490   305   307   ar
   491  1521  1522    1
   492   634   633   ar
   493   634   635   ar
   494   740   741   ar
   495   740   742    1
   496   447   446   ar
   497   447   448   ar
   498   190   188    1
   499   190   192    1
   500   446   445   ar
   501   556   557   ar
   502   188   189    1
   503  1522  1523    1
   504   633   632   ar
   505   550   557   ar
   506   550   549   ar
   507   166   167    1
   508   166   165    1
   509  1473  1475   ar
   510  1473  1474    2
   511   299   297    1
   512   299   300    1
   513   439   440    1
   514   439   441    1
   515   169   167    1
   516   169   171    1
   517   440   444    1
   518   729   728    1
   519   212   210    1
   520   212   214    1
   521   728   727    1
   522   661   659    1
   523  1511  1512    2
   524  1511  1513   ar
   525   167   168    1
   526   644   642    2
   527  1514  1513   ar
   528  1514  1515    1
   529  1475  1477    1
   530   557   547   ar
   531   210   211    1
   532   716   715    2
   533   544   543    1
   534   229   230    1
   535   885   884   ar
   536   883   884   ar
   537   301   300    1
   538   301   308   ar
   539   889   887    2
   540   626   627    1
   541   626   628    1
   542   298   297    1
   543   162   165    1
   544   162   151    1
   545   162   164    1
   546   874   887    1
   547   549   548   ar
   548   545   543    1
   549   545   546    1
   550   717   715   ar
   551   717   718   ar
   552   637   636    1
   553   698   697    1
   554   286   285    2
   555   458   456    2
   556   543   541    1
   557   658   657    2
   558   719   718    2
   559  1524  1523    1
   560  1524  1528    1
   561   297   295    1
   562   627   631    1
   563   307   308   ar
   564  1447  1446    1
   565   699   697   ar
   566   699   700   ar
   567  1523  1525    1
   568   171   172    1
   569   628   629    1
   570   628   630    1
   571   635   636   ar
   572   635   641   ar
   573   300   296    1
   574   903   902    1
   575   441   442    1
   576   441   443    1
   577   472   471    1
   578   715   714   ar
   579   547   548   ar
   580   547   546    1
   581   192   193    1
   582   445   444    1
   583   445   455   ar
   584   448   449   ar
   585   448   455   ar
   586   450   449    2
   587   230   231    1
   588   151   150    1
   589   632   631    1
   590   632   641   ar
   591   189   193    1
   592   629   642    1
   593   718   720   ar
   594   444   443    1
   595  1448  1446    1
   596  1448  1449    1
   597   211   215    1
   598   250   248    2
   599   678   677    2
   600   887   888    1
   601   887   890    1
   602   727   726    1
   603   217   218   ar
   604   217   216   ar
   605   697   696   ar
   606  1452  1451    2
   607   636   638   ar
   608   442   456    1
   609   642   643    1
   610   642   645    1
   611   659   657   ar
   612   659   660   ar
   613  1536  1535   ar
   614  1536  1529   ar
   615   168   172    1
   616   214   215    1
   617   904   902   ar
   618   904   905   ar
   619   449   451   ar
   620   657   656   ar
   621   239   238   ar
   622   239   240   ar
   623   546   542    1
   624   289   287    1
   625   700   701   ar
   626  1446  1444    1
   627   285   287   ar
   628   285   284   ar
   629  1535  1533   ar
   630   631   630    1
   631   218   219   ar
   632   902   901   ar
   633   456   457    1
   634   456   459    1
   635   455   454   ar
   636   469   470   ar
   637   469   468   ar
   638   264   263    2
   639   641   640   ar
   640   238   237   ar
   641  1528  1529    1
   642  1528  1527    1
   643   193   194    1
   644   493   492    2
   645   172   173    1
   646  1451  1453   ar
   647  1451  1450   ar
   648   726   723    1
   649   144   143    2
   650   215   216    1
   651  1453  1454   ar
   652   295   296    1
   653   295   294    1
   654   541   542    1
   655   541   540    1
   656   471   470   ar
   657   471   473   ar
   658   216   225   ar
   659   287   288   ar
   660   242   241    2
   661   284   282   ar
   662  1529  1530   ar
   663   714   713    1
   664   714   721   ar
   665  1525  1526    1
   666  1525  1527    1
   667   249   248    1
   668   195   194   ar
   669   195   196   ar
   670   905   898   ar
   671   529   528    2
   672   231   233    1
   673   231   232    1
   674   677   676   ar
   675   677   679   ar
   676   660   653   ar
   677   470   476   ar
   678   532   531    2
   679   150   152    1
   680   150   148    1
   681   530   528   ar
   682   530   531   ar
   683   248   234    1
   684   248   251    1
   685  1449  1450    1
   686  1449  1445    1
   687   720   721   ar
   688   720   722    1
   689   681   679    1
   690   645   646    1
   691   712   713    1
   692   712   710    1
   693   194   204   ar
   694   240   241   ar
   695   240   247   ar
   696   468   467   ar
   697   233   234    1
   698   233   235    1
   699   540   539    1
   700   638   639   ar
   701  1533  1534    1
   702  1533  1532   ar
   703   293   294    1
   704   293   290    1
   705   696   702   ar
   706   696   695   ar
   707   261   262   ar
   708   261   260   ar
   709   901   899   ar
   710  1450  1457   ar
   711  1526  1537    1
   712   890   891    1
   713   513   512    1
   714   713   709    1
   715   219   225   ar
   716   219   220   ar
   717  1454  1455    1
   718  1454  1456   ar
   719   656   654   ar
   720   263   262   ar
   721   263   265   ar
   722   232   236    1
   723   451   452   ar
   724   701   702   ar
   725   241   243   ar
   726   272   270    2
   727   496   494    1
   728  1444  1445    1
   729  1444  1443    1
   730   454   452   ar
   731   459   460    1
   732   292   290    2
   733   237   247   ar
   734   237   236    1
   735   152   153    1
   736   528   527   ar
   737   148   147    1
   738   148   149    1
   739   196   197   ar
   740   473   474   ar
   741   492   494   ar
   742   492   491   ar
   743   173   174   ar
   744   173   182   ar
   745   531   533   ar
   746   225   224   ar
   747   640   639   ar
   748   676   674   ar
   749   147   146    1
   750  1530  1532   ar
   751  1530  1531    2
   752   288   281   ar
   753   679   680   ar
   754   262   269   ar
   755   282   283    2
   756   282   281   ar
   757   922   921    1
   758   702   693   ar
   759   898   899   ar
   760   898   897    1
   761   221   220    1
   762   174   175   ar
   763   251   252    1
   764   143   146    1
   765   143   145    1
   766   143   130    1
   767   723   724    2
   768   723   725    1
   769   723   711    1
   770  1457  1456   ar
   771   695   694   ar
   772   452   453    1
   773   260   259   ar
   774  1538  1537    2
   775   247   246   ar
   776   204   197   ar
   777   204   203   ar
   778   899   900    2
   779   220   222   ar
   780   236   235    1
   781   653   654   ar
   782   653   652    1
   783   290   291    1
   784   290   278    1
   785   265   266   ar
   786   494   495   ar
   787   893   897    1
   788   893   892    1
   789   891   892    1
   790   476   467   ar
   791   476   475   ar
   792   281   280    1
   793   710   711    1
   794   710   708    1
   795   646   647    1
   796   197   198   ar
   797   467   466    1
   798   491   489   ar
   799  1443  1442    1
   800   654   655    2
   801   512   511   ar
   802   512   514   ar
   803   539   536    1
   804   511   509   ar
   805   182   181   ar
   806   182   176   ar
   807   181   180   ar
   808  1442  1439    1
   809   243   244   ar
   810   203   201   ar
   811   224   223   ar
   812   709   708    1
   813  1537  1539    1
   814  1537  1540    1
   815   460   461    1
   816   270   273    1
   817   270   271    1
   818   270   256    1
   819   648   652    1
   820   648   647    1
   821   897   896    1
   822   474   475   ar
   823   149   153    1
   824   273   274    1
   825   527   534   ar
   826   527   526    1
   827   153   154    1
   828   921   923   ar
   829   921   920   ar
   830   130   129    1
   831   175   176   ar
   832   533   534   ar
   833   533   535    1
   834   269   259   ar
   835   269   268   ar
   836   538   536    2
   837   674   675    2
   838   674   673   ar
   839   680   673   ar
   840   277   279    1
   841   277   278    1
   842   277   275    1
   843   892   894    1
   844   693   694   ar
   845   693   692    1
   846   664   662    2
   847   259   258    1
   848   279   280    1
   849   222   223   ar
   850   462   466    1
   851   462   461    1
   852   252   253    1
   853   246   244   ar
   854   525   526    1
   855   525   523    1
   856   652   651    1
   857   198   199    2
   858   198   200   ar
   859   176   177   ar
   860   708   707    1
   861   923   924   ar
   862   647   649    1
   863   266   268   ar
   864   266   267    1
   865  1440  1439    2
   866   280   276    1
   867   244   245    1
   868   201   200   ar
   869   201   202    1
   870   180   179   ar
   871   495   488   ar
   872   526   522    1
   873   466   465    1
   874   536   537    1
   875   536   524    1
   876   509   510    2
   877   509   508   ar
   878   479   477    2
   879   514   515   ar
   880   920   918   ar
   881   461   463    1
   882  1439  1441    1
   883  1439  1425    1
   884   673   672    1
   885   489   488   ar
   886   489   490    2
   887  1436  1435    1
   888   255   253    1
   889   255   256    1
   890   255   257    1
   891  1433  1432    2
   892  1434  1432   ar
   893  1434  1435   ar
   894   649   651    1
   895   649   650    1
   896   463   465    1
   897   463   464    1
   898   274   275    1
   899   254   253    1
   900   254   258    1
   901   941   940    1
   902   276   275    1
   903   894   896    1
   904   894   895    1
   905   154   161   ar
   906   154   155   ar
   907  1540  1541    1
   908   706   707    1
   909   706   703    1
   910   692   691    1
   911   692   688    1
   912   258   257    1
   913  1543  1542    1
   914  1543  1547    1
   915  1432  1431   ar
   916  1435  1437   ar
   917  1541  1542    1
   918   691   689    1
   919   488   487    1
   920   129   131    1
   921   129   127    1
   922   156   155    2
   923   177   179   ar
   924   177   178    1
   925   161   160   ar
   926   131   132    1
   927   523   524    1
   928   523   521    1
   929   924   917   ar
   930   705   703    2
   931   662   650    1
   932   662   665    1
   933   662   663    1
   934   908   906    2
   935   155   157   ar
   936   515   508   ar
   937   464   477    1
   938   508   507    1
   939  1549  1550   ar
   940  1549  1548   ar
   941   918   917   ar
   942   918   919    2
   943   477   478    1
   944   477   480    1
   945  1542  1544    1
   946   127   126    1
   947   127   128    1
   948   940   939   ar
   949   940   942   ar
   950   522   521    1
   951   665   666    1
   952  1550  1551   ar
   953   939   937   ar
   954  1437  1438   ar
   955  1431  1438   ar
   956  1431  1430   ar
   957  1425  1424    1
   958  1547  1548    1
   959  1547  1546    1
   960   703   704    1
   961   703   690    1
   962   672   668    1
   963   672   671    1
   964   689   690    1
   965   689   687    1
   966   160   158   ar
   967   917   916    1
   968   895   906    1
   969   684   682    2
   970   688   687    1
   971  1438  1428   ar
   972   976   975    2
   973  1548  1558   ar
   974   157   158   ar
   975   123   122    2
   976   521   520    1
   977  1424  1426    1
   978  1424  1422    1
   979   906   909    1
   980   906   907    1
   981   126   125    1
   982   132   128    1
   983   132   133    1
   984   668   667    1
   985  1430  1429   ar
   986   487   483    1
   987   487   486    1
   988   671   669    1
   989   158   159    1
   990   942   943   ar
   991  1426  1427    1
   992  1551  1558   ar
   993  1551  1552   ar
   994   957   956    2
   995   958   956   ar
   996   958   959   ar
   997   937   938    2
   998   937   936   ar
   999   669   667    1
  1000   669   670    1
  1001   960   959    1
  1002   685   682    1
  1003   685   686    1
  1004   483   482    1
  1005   507   506    1
  1006   507   503    1
  1007   480   481    1
  1008  1558  1557   ar
  1009   687   686    1
  1010   977   975   ar
  1011   977   978   ar
  1012  1553  1552    2
  1013  1335  1334    2
  1014   975   974   ar
  1015  1428  1429   ar
  1016  1428  1427    1
  1017   909   910    1
  1018  1544  1546    1
  1019  1544  1545    1
  1020  1315  1314    2
  1021   666   667    1
  1022   956   955   ar
  1023  1552  1554   ar
  1024  1418  1417    1
  1025   141   140   ar
  1026   141   142   ar
  1027   916   912    1
  1028   916   915    1
  1029   125   122    1
  1030   959   961   ar
  1031   912   911    1
  1032   682   670    1
  1033   682   683    1
  1034   486   484    1
  1035   506   504    1
  1036   996   995    2
  1037   481   482    1
  1038   519   520    1
  1039   519   516    1
  1040   133   142   ar
  1041   133   134   ar
  1042  1421  1422    1
  1043  1421  1420    1
  1044   499   497    2
  1045   122   111    1
  1046   122   124    1
  1047   484   482    1
  1048   484   485    1
  1049   943   936   ar
  1050   936   935    1
  1051  1427  1423    1
  1052  1422  1423    1
  1053   979   978    2
  1054   140   139   ar
  1055   142   136   ar
  1056  1557  1555   ar
  1057  1419  1417    2
  1058  1016  1015    2
  1059   503   502    1
  1060   978   980   ar
  1061  1545  1559    1
  1062  1029  1033    1
  1063  1029  1028    1
  1064   974   973    1
  1065   974   981   ar
  1066  1554  1555   ar
  1067   973   972    1
  1068   973   969    1
  1069   518   516    2
  1070   504   502    1
  1071   504   505    1
  1072  1336  1334    1
  1073  1033  1032    1
  1074  1033  1034    1
  1075   111   110    1
  1076   910   911    1
  1077  1334  1322    1
  1078  1334  1337    1
  1079   955   954    1
  1080   955   962   ar
  1081  1413  1412    2
  1082   134   135   ar
  1083   993   989    1
  1084   993   992    1
  1085   993   994    1
  1086  1555  1556    1
  1087  1013  1009    1
  1088  1013  1012    1
  1089  1013  1014    1
  1090   995   994   ar
  1091   995   997   ar
  1092  1314  1316    1
  1093  1314  1317    1
  1094  1314  1301    1
  1095   961   962   ar
  1096  1028  1027    1
  1097  1028  1030    1
  1098   500   497    1
  1099   500   501    1
  1100   911   913    1
  1101  1578  1576    1
  1102   915   913    1
  1103  1009  1008    1
  1104  1420  1405    1
  1105  1042  1041    1
  1106  1358  1356    2
  1107  1357  1356    1
  1108   989   988    1
  1109   516   505    1
  1110   516   517    1
  1111   954   953    1
  1112   954   950    1
  1113  1012  1010    1
  1114  1043  1041   ar
  1115  1043  1044   ar
  1116   972   970    1
  1117   139   137   ar
  1118   935   931    1
  1119   935   934    1
  1120   136   135   ar
  1121   136   137   ar
  1122   485   497    1
  1123   497   498    1
  1124  1032  1030    1
  1125   992   990    1
  1126   913   914    1
  1127   969   968    1
  1128  1027  1026    1
  1129  1008  1007    1
  1130  1008  1010    1
  1131  1015  1014   ar
  1132  1015  1017   ar
  1133   502   501    1
  1134   980   981   ar
  1135   980   982    1
  1136  1412  1411   ar
  1137  1412  1414   ar
  1138   994  1001   ar
  1139  1322  1321    1
  1140  1411  1409   ar
  1141  1575  1574    2
  1142   997   998   ar
  1143  1317  1318    1
  1144  1318  1319    1
  1145  1034  1044   ar
  1146  1034  1035   ar
  1147  1041  1040   ar
  1148  1051  1050    1
  1149  1051  1055    1
  1150  1301  1300    1
  1151   112   110    1
  1152   112   113    1
  1153  1014  1021   ar
  1154  1399  1397    2
  1155   137   138    1
  1156   953   951    1
  1157  1311  1312   ar
  1158  1311  1310   ar
  1159  1559  1561    2
  1160  1559  1562    1
  1161  1559  1560    1
  1162  1576  1574   ar
  1163  1576  1577   ar
  1164   931   930    1
  1165  1377  1375    2
  1166  1338  1337    1
  1167  1338  1339    1
  1168  1044  1037   ar
  1169  1050  1049    1
  1170  1050  1052    1
  1171  1356  1342    1
  1172  1356  1359    1
  1173   988   990    1
  1174   988   987    1
  1175  1312  1313   ar
  1176  1030  1031    1
  1177   110   108    1
  1178  1405  1404    1
  1179  1416  1414    1
  1180  1049  1048    1
  1181  1574  1573   ar
  1182  1031  1045    1
  1183  1414  1415   ar
  1184  1007  1006    1
  1185  1409  1410    2
  1186  1409  1408   ar
  1187  1562  1563    1
  1188  1010  1011    1
  1189   950   949    1
  1190   927   925    2
  1191  1017  1018   ar
  1192  1055  1054    1
  1193  1055  1056    1
  1194  1391  1390    2
  1195   934   932    1
  1196  1577  1570   ar
  1197  1404  1406    1
  1198  1404  1402    1
  1199  1011  1023    1
  1200  1321  1319    1
  1201  1321  1323    1
  1202   968   970    1
  1203   968   967    1
  1204   990   991    1
  1205  1035  1036   ar
  1206  1319  1320    1
  1207   116   115    2
  1208  1376  1375    1
  1209  1001  1000   ar
  1210   970   971    1
  1211  1040  1038   ar
  1212  1563  1564    1
  1213  1026  1023    1
  1214  1415  1408   ar
  1215   998   999    2
  1216   998  1000   ar
  1217  1048  1045    1
  1218   914   925    1
  1219  1406  1407    1
  1220  1573  1571   ar
  1221  1342  1341    1
  1222  1310  1308   ar
  1223  1408  1407    1
  1224  1359  1360    1
  1225   991  1003    1
  1226  1303  1302    1
  1227  1303  1299    1
  1228  1303  1304    1
  1229  1375  1378    1
  1230  1375  1364    1
  1231  1037  1036   ar
  1232  1037  1038   ar
  1233   987   986    1
  1234  1054  1052    1
  1235  1021  1020   ar
  1236  1398  1397    1
  1237  1565  1564    1
  1238  1565  1569    1
  1239   108   107    1
  1240   108   109    1
  1241  1397  1400    1
  1242  1397  1383    1
  1243  1300  1302    1
  1244  1300  1298    1
  1245  1045  1046    2
  1246  1045  1047    1
  1247  1052  1053    1
  1248  1570  1571   ar
  1249  1570  1569    1
  1250  1390  1392   ar
  1251  1390  1389   ar
  1252   113   114    1
  1253   113   109    1
  1254   925   928    1
  1255   925   926    1
  1256  1313  1304   ar
  1257  1313  1307   ar
  1258  1339  1341    1
  1259  1339  1340    1
  1260  1000  1002    1
  1261  1053  1067    1
  1262   930   932    1
  1263   930   929    1
  1264   951   949    1
  1265   951   952    1
  1266   971   983    1
  1267   928   929    1
  1268  1006  1003    1
  1269  1341  1343    1
  1270  1299  1298    1
  1271   115   114   ar
  1272   115   117   ar
  1273  1038  1039    2
  1274  1571  1572    2
  1275  1023  1024    2
  1276  1023  1025    1
  1277  1372  1371    1
  1278  1373  1371   ar
  1279  1373  1374   ar
  1280  1298  1297    1
  1281   932   933    1
  1282   949   948    1
  1283  1018  1020   ar
  1284  1018  1019    2
  1285  1378  1379    1
  1286  1388  1389   ar
  1287  1388  1387   ar
  1288  1360  1361    1
  1289   986   983    1
  1290  1056  1057   ar
  1291  1056  1066   ar
  1292  1564  1566    1
  1293   967   966    1
  1294  1407  1403    1
  1295  1392  1393   ar
  1296  1304  1305   ar
  1297  1389  1396   ar
  1298   114   121   ar
  1299  1020  1022    1
  1300  1364  1363    1
  1301   107   106    1
  1302  1400  1401    1
  1303  1569  1568    1
  1304  1401  1402    1
  1305  1402  1403    1
  1306   117   118   ar
  1307  1323  1324    1
  1308  1371  1370   ar
  1309  1320  1324    1
  1310  1374  1367   ar
  1311  1057  1058   ar
  1312  1003  1004    2
  1313  1003  1005    1
  1314  1363  1361    1
  1315  1363  1365    1
  1316  1308  1307   ar
  1317  1308  1309    2
  1318   952   963    1
  1319  1595  1594    2
  1320   983   984    2
  1321   983   985    1
  1322   966   963    1
  1323  1068  1067    2
  1324  1340  1344    1
  1325  1071  1070    1
  1326  1071  1072    1
  1327  1387  1386   ar
  1328  1346  1347    2
  1329  1346  1345    1
  1330  1383  1382    1
  1331  1065  1066   ar
  1332  1065  1063   ar
  1333  1307  1306   ar
  1334  1067  1070    1
  1335  1067  1069    1
  1336  1066  1059   ar
  1337  1333  1331    1
  1338  1382  1384    1
  1339  1382  1380    1
  1340  1347  1348    1
  1341   121   120   ar
  1342   106   103    1
  1343  1361  1362    1
  1344  1393  1394    1
  1345  1393  1395   ar
  1346   947   948    1
  1347   947   944    1
  1348  1396  1386   ar
  1349  1396  1395   ar
  1350   118   120   ar
  1351   118   119    1
  1352  1332  1331   ar
  1353  1332  1325   ar
  1354  1566  1568    1
  1355  1566  1567    1
  1356  1297  1296    1
  1357  1324  1325    1
  1358   933   944    1
  1359  1343  1344    1
  1360  1379  1380    1
  1361   946   944    2
  1362  1058  1059   ar
  1363   963   965    2
  1364   963   964    1
  1365  1386  1385    1
  1366  1370  1368   ar
  1367   104   103    2
  1368  1072  1073    1
  1369  1072  1074    1
  1370  1309  1062    1
  1371  1367  1368   ar
  1372  1367  1366    1
  1373  1345  1344    1
  1374  1345  1355    1
  1375  1305  1306   ar
  1376  1594  1593   ar
  1377  1594  1596   ar
  1378  1331  1329   ar
  1379  1063  1064    1
  1380  1063  1062   ar
  1381  1059  1060   ar
  1382  1073  1077    1
  1383  1592  1593   ar
  1384  1592  1591   ar
  1385  1365  1366    1
  1386  1325  1326   ar
  1387  1384  1385    1
  1388  1362  1366    1
  1389  1581  1579    2
  1390   944   945    1
  1391  1380  1381    1
  1392  1348  1355    1
  1393  1348  1349    2
  1394   100    99    1
  1395  1368  1369    2
  1396   103   105    1
  1397   103    89    1
  1398  1593  1600   ar
  1399  1567  1579    1
  1400  1296  1293    1
  1401  1596  1597   ar
  1402  1385  1381    1
  1403  1355  1354    1
  1404  1062  1060   ar
  1405  1591  1590   ar
  1406  1060  1061    2
  1407  1350  1349   ar
  1408  1350  1617   ar
  1409  1349  1351   ar
  1410  1329  1330    2
  1411  1329  1328   ar
  1412  1326  1328   ar
  1413  1326  1327    2
  1414  1579  1580    1
  1415  1579  1582    1
  1416  1077  1078    1
  1417  1077  1076    1
  1418  1074  1075    1
  1419  1074  1076    1
  1420    99    98   ar
  1421    99   101   ar
  1422  1075  1089    1
  1423  1617  1616   ar
  1424    89    88    1
  1425  1600  1590   ar
  1426  1600  1599   ar
  1427  1354  1352    2
  1428    98    96   ar
  1429  1597  1599   ar
  1430  1597  1598    1
  1431  1079  1078   ar
  1432  1079  1080   ar
  1433  1590  1589    1
  1434  1294  1293    2
  1435   101   102   ar
  1436  1078  1088   ar
  1437  1351  1352    1
  1438  1351  1618   ar
  1439  1293  1295    1
  1440  1293  1281    1
  1441  1286  1285    2
  1442  1582  1583    1
  1443  1352  1353    1
  1444    88    90    1
  1445    88    86    1
  1446  1616  1618   ar
  1447  1616  1615   ar
  1448    90    91    1
  1449  1618  1619   ar
  1450  1585  1589    1
  1451  1585  1584    1
  1452  1080  1081   ar
  1453    96    97    2
  1454    96    95   ar
  1455   102    95   ar
  1456   102    92   ar
  1457  1589  1588    1
  1458  1282  1280    1
  1459  1282  1283    1
  1460  1285  1287   ar
  1461  1285  1284   ar
  1462  1089  1090    2
  1463  1089  1091    1
  1464  1089  1092    1
  1465  1088  1081   ar
  1466  1088  1087   ar
  1467  1281  1280    1
  1468  1639  1640    1
  1469  1639  1637    2
  1470  1287  1288   ar
  1471  1640  1641    2
  1472    95    94   ar
  1473  1583  1584    1
  1474  1081  1082   ar
  1475  1615  1614   ar
  1476  1615  1621   ar
  1477  1280  1278    1
  1478  1619  1620   ar
  1479  1087  1085   ar
  1480    92    91    1
  1481    92    93   ar
  1482  1284  1283    1
  1483  1284  1291   ar
  1484  1638  1637    1
  1485  1614  1613   ar
  1486  1092  1093    1
  1487    91    87    1
  1488  1584  1586    1
  1489  1637  1636    1
  1490    86    85    1
  1491    86    87    1
  1492  1283  1279    1
  1493  1288  1289    2
  1494  1288  1290   ar
  1495  1641  1642    1
  1496    94    93   ar
  1497  1588  1586    1
  1498  1621  1620   ar
  1499  1621  1612   ar
  1500    85    84    1
  1501  1586  1587    1
  1502  1082  1083    2
  1503  1082  1084   ar
  1504  1291  1290   ar
  1505  1085  1084   ar
  1506  1085  1086    1
  1507  1290  1292    1
  1508    83    81    2
  1509  1613  1612   ar
  1510  1636  1642    1
  1511  1636  1635    1
  1512    84    81    1
  1513  1642  1633    2
  1514  1095  1094    1
  1515  1095  1099    1
  1516  1278  1279    1
  1517  1278  1277    1
  1518  1093  1094    1
  1519  1612  1611    1
  1520    81    82    1
  1521    81    68    1
  1522    20    19    2
  1523    76    75    1
  1524  1094  1096    1
  1525    43    41    2
  1526  1635  1634    2
  1527  1101  1102   ar
  1528  1101  1100   ar
  1529  1587  1601    1
  1530  1276  1277    1
  1531  1276  1273    1
  1532  1603  1601    2
  1533  1633  1634    1
  1534    42    41    1
  1535  1099  1100    1
  1536  1099  1098    1
  1537  1611  1607    1
  1538  1611  1610    1
  1539  1102  1103   ar
  1540    62    60    2
  1541    75    77   ar
  1542    75    74   ar
  1543  1100  1110   ar
  1544    77    78   ar
  1545  1275  1273    2
  1546    21    19    1
  1547    41    27    1
  1548    41    44    1
  1549  1601  1602    1
  1550  1601  1604    1
  1551  1607  1606    1
  1552  1632  1628    1
  1553  1632  1631    1
  1554    19    22    1
  1555    19     6    1
  1556  1273  1274    1
  1557  1273  1262    1
  1558    74    73   ar
  1559    74    80   ar
  1560    61    60    1
  1561    73    72   ar
  1562    78    79   ar
  1563  1628  1627    1
  1564    68    67    1
  1565  1270  1269    1
  1566  1103  1110   ar
  1567  1103  1104   ar
  1568  1096  1098    1
  1569  1096  1097    1
  1570  1110  1109   ar
  1571    60    63    1
  1572    60    49    1
  1573    23    22    1
  1574    23    24    1
  1575  1268  1269   ar
  1576  1268  1266   ar
  1577    57    56    1
  1578  1610  1608    1
  1579  1631  1629    1
  1580    67    69    1
  1581    67    65    1
  1582    27    26    1
  1583  1604  1605    1
  1584    80    79   ar
  1585    80    71   ar
  1586  1267  1266    2
  1587  1269  1271   ar
  1588     6     5    1
  1589    72    71   ar
  1590    63    64    1
  1591    69    70    1
  1592    44    45    1
  1593    58    56   ar
  1594    58    59   ar
  1595  1266  1265   ar
  1596  1097  1111    1
  1597  1104  1105    2
  1598  1104  1106   ar
  1599  1606  1605    1
  1600  1606  1608    1
  1601    26    24    1
  1602    26    28    1
  1603    71    70    1
  1604  1109  1107   ar
  1605    56    55   ar
  1606     1     2    1
  1607  1627  1629    1
  1608  1627  1626    1
  1609  1113  1111    2
  1610  1262  1261    1
  1611  1608  1609    1
  1612    24    25    1
  1613  1271  1272   ar
  1614     2     3    1
  1615  1111  1112    1
  1616  1111  1114    1
  1617    59    52   ar
  1618  1261  1263    1
  1619  1261  1259    1
  1620     5     3    1
  1621     5     7    1
  1622    49    48    1
  1623  1265  1272   ar
  1624  1265  1264    1
  1625    70    66    1
  1626  1629  1630    1
  1627  1263  1264    1
  1628    64    65    1
  1629  1106  1107   ar
  1630    65    66    1
  1631  1107  1108    1
  1632    45    46    1
  1633  1625  1626    1
  1634  1625  1622    1
  1635    48    46    1
  1636    48    50    1
  1637    32    31   ar
  1638    32    33   ar
  1639    55    53   ar
  1640    31    30   ar
  1641     3     4    1
  1642    28    29    1
  1643    25    29    1
  1644    35    34    2
  1645    52    53   ar
  1646    52    51    1
  1647  1264  1260    1
  1648    46    47    1
  1649    33    34   ar
  1650    33    40   ar
  1651  1609  1622    1
  1652    53    54    2
  1653    50    51    1
  1654     7     8    1
  1655    30    29    1
  1656    30    40   ar
  1657  1257  1258    1
  1658  1257  1254    1
  1659  1114  1115    1
  1660    34    36   ar
  1661  1622  1624    2
  1662  1622  1623    1
  1663  1259  1258    1
  1664  1259  1260    1
  1665  1251  1250    1
  1666  1124  1123   ar
  1667  1124  1125   ar
  1668    40    39   ar
  1669    47    51    1
  1670  1256  1254    2
  1671     4     8    1
  1672  1123  1122   ar
  1673  1115  1116    1
  1674  1148  1147    2
  1675  1127  1126    1
  1676    36    37   ar
  1677    10     9    1
  1678    10    11    2
  1679  1250  1249   ar
  1680  1250  1252   ar
  1681     8     9    1
  1682  1254  1255    1
  1683  1254  1243    1
  1684  1249  1247   ar
  1685    39    37   ar
  1686  1125  1126   ar
  1687  1125  1131   ar
  1688     9    18    1
  1689  1117  1116    1
  1690  1117  1121    1
  1691    11    12    1
  1692    37    38    1
  1693  1126  1128   ar
  1694  1147  1149    1
  1695  1147  1146    1
  1696  1122  1131   ar
  1697  1122  1121    1
  1698  1252  1253   ar
  1699  1149  1150    2
  1700  1116  1118    1
  1701    18    12    1
  1702    18    17    1
  1703  1247  1248    2
  1704  1247  1246   ar
  1705    12    13    2
  1706  1131  1130   ar
  1707  1121  1120    1
  1708  1146  1145   ar
  1709  1146  1153   ar
  1710  1145  1144   ar
  1711  1128  1129   ar
  1712    17    16    2
  1713  1253  1246   ar
  1714  1150  1151    2
  1715  1150  1152    1
  1716  1151    14    1
  1717  1246  1245    1
  1718    13    14    1
  1719    13    15    1
  1720  1243  1242    1
  1721  1170  1169    1
  1722  1171  1169   ar
  1723  1171  1172   ar
  1724  1242  1244    1
  1725  1242  1240    1
  1726  1244  1245    1
  1727  1237  1235    2
  1728  1118  1120    1
  1729  1118  1119    1
  1730  1130  1129   ar
  1731    16    15    1
  1732  1153  1152    1
  1733  1153  1143   ar
  1734  1231  1230    2
  1735    15  1234    1
  1736  1169  1168   ar
  1737  1144  1143   ar
  1738  1172  1173   ar
  1739  1238  1235    1
  1740  1238  1239    1
  1741  1245  1241    1
  1742  1143  1142    1
  1743  1230  1229   ar
  1744  1230  1232   ar
  1745  1234  1232    1
  1746  1235  1236    1
  1747  1235  1223    1
  1748  1119  1132    1
  1749  1240  1241    1
  1750  1240  1239    1
  1751  1173  1174   ar
  1752  1168  1174   ar
  1753  1168  1167   ar
  1754  1229  1227   ar
  1755  1232  1233   ar
  1756  1134  1132    2
  1757  1174  1165   ar
  1758  1142  1138    1
  1759  1142  1141    1
  1760  1167  1166   ar
  1761  1138  1137    1
  1762  1227  1228    2
  1763  1227  1226   ar
  1764  1233  1226   ar
  1765  1132  1135    1
  1766  1132  1133    1
  1767  1223  1222    1
  1768  1210  1209    1
  1769  1196  1194    2
  1770  1217  1215    2
  1771  1222  1224    1
  1772  1222  1220    1
  1773  1135  1136    1
  1774  1226  1225    1
  1775  1165  1166   ar
  1776  1165  1164    1
  1777  1216  1215    1
  1778  1218  1215    1
  1779  1218  1219    1
  1780  1224  1225    1
  1781  1215  1202    1
  1782  1209  1211   ar
  1783  1209  1208   ar
  1784  1141  1139    1
  1785  1164  1160    1
  1786  1164  1163    1
  1787  1136  1137    1
  1788  1137  1139    1
  1789  1219  1220    1
  1790  1207  1208   ar
  1791  1207  1206   ar
  1792  1225  1221    1
  1793  1211  1212   ar
  1794  1220  1221    1
  1795  1194  1195    1
  1796  1194  1197    1
  1797  1194  1183    1
  1798  1208  1214   ar
  1799  1139  1140    1
  1800  1197  1198    1
  1801  1160  1159    1
  1802  1163  1161    1
  1803  1206  1205   ar
  1804  1183  1182    1
  1805  1212  1213   ar
  1806  1201  1202    1
  1807  1201  1203    1
  1808  1201  1199    1
  1809  1214  1205   ar
  1810  1214  1213   ar
  1811  1203  1204    1
  1812  1205  1204    1
  1813  1198  1199    1
  1814  1140  1154    1
  1815  1161  1159    1
  1816  1161  1162    1
  1817  1159  1158    1
  1818  1204  1200    1
  1819  1199  1200    1
  1820  1182  1180    1
  1821  1182  1184    1
  1822  1156  1154    2
  1823  1180  1179    1
  1824  1180  1181    1
  1825  1179  1178    1
  1826  1157  1154    1
  1827  1157  1158    1
  1828  1154  1155    1
  1829  1162  1175    1
  1830  1184  1185    1
  1831  1178  1175    1
  1832  1181  1185    1
  1833  1175  1177    2
  1834  1175  1176    1
  1835  1185  1186    1
  1836  1186  1193   ar
  1837  1186  1187   ar
  1838  1188  1187    2
  1839  1193  1192   ar
  1840  1187  1189   ar
  1841  1192  1190   ar
  1842  1189  1190   ar
  1843  1190  1191    1
