@<TRIPOS>MOLECULE
dna.pdb
 1573 1760 0 0 0
SMALL
GASTEIGER

@<TRIPOS>ATOM
      1  O5'       10.9850   27.5100   21.4770 O.3     1  DA1        -0.2176
      2  C5'       10.5920   28.8900   21.4770 C.3     1  DA1         0.2141
      3  C4'       11.2590   29.6290   20.3400 C.3     1  DA1         0.1804
      4  O4'       12.6970   29.6460   20.5450 O.3     1  DA1        -0.3325
      5  C3'       11.1000   29.0260   18.9540 C.3     1  DA1         0.1860
      6  O3'        9.8490   29.3520   18.3650 O.3     1  DA1        -0.2203
      7  C2'       12.2740   29.6430   18.2090 C.3     1  DA1         0.0894
      8  C1'       13.3560   29.6020   19.2880 C.3     1  DA1         0.2095
      9  N9        14.1270   28.4060   19.2180 N.ar    1  DA1        -0.2714
     10  C8        13.7830   27.1840   19.7330 C.ar    1  DA1         0.1815
     11  N7        14.6820   26.2510   19.5270 N.ar    1  DA1        -0.2193
     12  C5        15.6840   26.9040   18.8270 C.ar    1  DA1         0.1518
     13  C6        16.9170   26.4680   18.3100 C.ar    1  DA1         0.1919
     14  N6        17.3650   25.2160   18.4270 N.pl3   1  DA1        -0.1054
     15  N1        17.6810   27.3730   17.6620 N.ar    1  DA1        -0.2040
     16  C2        17.2300   28.6280   17.5470 C.ar    1  DA1         0.2016
     17  N3        16.0920   29.1570   17.9900 N.ar    1  DA1        -0.2048
     18  C4        15.3560   28.2320   18.6280 C.ar    1  DA1         0.1691
     19  P          8.9160   28.2760   16.7080 P.3     2  DT2         0.5411
     20  OP1        7.7520   28.9420   16.0800 O.2     2  DT2        -0.2272
     21  OP2        8.9070   26.8080   16.9180 O.2     2  DT2        -0.2272
     22  O5'       10.2280   28.6590   15.8890 O.3     2  DT2        -0.2722
     23  C5'       10.5560   30.0240   15.6330 C.3     2  DT2         0.1850
     24  C4'       11.8800   30.1220   14.9020 C.3     2  DT2         0.1748
     25  O4'       12.9220   29.5410   15.7210 O.3     2  DT2        -0.3327
     26  C3'       11.9740   29.3620   13.5860 C.3     2  DT2         0.1558
     27  O3'       11.5160   30.1930   12.5260 O.3     2  DT2        -0.3138
     28  C2'       13.4720   29.1220   13.4400 C.3     2  DT2         0.0866
     29  C1'       13.9090   28.9590   14.8920 C.3     2  DT2         0.2106
     30  N1        14.0820   27.5150   15.2870 N.ar    2  DT2        -0.2559
     31  C2        15.2450   26.9050   14.8570 C.ar    2  DT2         0.3545
     32  O2        16.0650   27.4620   14.1480 O.2     2  DT2        -0.2443
     33  N3        15.4160   25.6110   15.2870 N.ar    2  DT2        -0.1533
     34  C4        14.5600   24.8820   16.0850 C.ar    2  DT2         0.2804
     35  O4        14.8510   23.7280   16.3890 O.2     2  DT2        -0.2654
     36  C5        13.3740   25.5840   16.4890 C.ar    2  DT2         0.0534
     37  C6        13.1830   26.8430   16.0860 C.ar    2  DT2         0.0824
     38  C7        12.3790   24.8750   17.3590 C.3     2  DT2         0.0377
     39  P         10.9560   29.6150   11.4430 P.3     3  DA3         0.2141
     40  OP1       10.4450   30.7690   10.6740 O.2     3  DA3        -0.5172
     41  OP2       10.1160   28.4240   11.7160 O.3     3  DA3        -0.4373
     42  O5'       12.2360   28.9990   10.6970 O.3     3  DA3        -0.3114
     43  C5'       13.4630   29.6130   11.0710 C.3     3  DA3         0.1811
     44  C4'       14.6560   29.2000   10.2450 C.3     3  DA3         0.1746
     45  O4'       15.5180   28.3980   11.0910 O.3     3  DA3        -0.3327
     46  C3'       14.3640   28.3920    8.9830 C.3     3  DA3         0.1558
     47  O3'       14.6710   29.1030    7.7860 O.3     3  DA3        -0.3138
     48  C2'       15.2630   27.1630    9.0740 C.3     3  DA3         0.0865
     49  C1'       15.8570   27.1760   10.4770 C.3     3  DA3         0.2094
     50  N9        15.1890   26.1900   11.2590 N.ar    3  DA3        -0.2714
     51  C8        13.9450   26.2200   11.8330 C.ar    3  DA3         0.1815
     52  N7        13.5050   25.0410   12.2060 N.ar    3  DA3        -0.2193
     53  C5        14.5300   24.1780   11.8520 C.ar    3  DA3         0.1518
     54  C6        14.6810   22.7860   11.9810 C.ar    3  DA3         0.1919
     55  N6        13.7590   21.9900   12.5250 N.pl3   3  DA3        -0.1054
     56  N1        15.8270   22.2360   11.5250 N.ar    3  DA3        -0.2040
     57  C2        16.7510   23.0350   10.9800 C.ar    3  DA3         0.2016
     58  N3        16.7240   24.3540   10.8050 N.ar    3  DA3        -0.2048
     59  C4        15.5730   24.8710   11.2670 C.ar    3  DA3         0.1691
     60  P         13.4480   28.9820    6.5050 P.3     4  DC4         0.2141
     61  OP1       13.2200   30.1170    5.5880 O.2     4  DC4        -0.5172
     62  OP2       12.3280   28.0610    6.8180 O.3     4  DC4        -0.4373
     63  O5'       14.6790   28.1500    5.9450 O.3     4  DC4        -0.3114
     64  C5'       14.4990   27.1440    4.9510 C.3     4  DC4         0.1811
     65  C4'       15.5680   26.0950    5.0870 C.3     4  DC4         0.1746
     66  O4'       15.6380   25.6370    6.4610 O.3     4  DC4        -0.3327
     67  C3'       15.3100   24.8530    4.2550 C.3     4  DC4         0.1558
     68  O3'       15.8740   25.0480    2.9640 O.3     4  DC4        -0.3138
     69  C2'       16.0280   23.7640    5.0430 C.3     4  DC4         0.0866
     70  C1'       15.8160   24.2330    6.4860 C.3     4  DC4         0.2106
     71  N1        14.7260   23.6700    7.1340 N.ar    4  DC4        -0.2556
     72  C2        14.7250   22.3030    7.4350 C.ar    4  DC4         0.3531
     73  O2        15.7240   21.6250    7.1400 O.2     4  DC4        -0.2443
     74  N3        13.6380   21.7600    8.0340 N.ar    4  DC4        -0.1739
     75  C4        12.5870   22.5260    8.3310 C.ar    4  DC4         0.1759
     76  N4        11.5390   21.9470    8.9210 N.pl3   4  DC4        -0.1070
     77  C5        12.5690   23.9130    8.0350 C.ar    4  DC4         0.0566
     78  C6        13.6440   24.4450    7.4420 C.ar    4  DC4         0.0849
     79  P         15.0650   24.5230    1.5740 P.3     5  DC5         0.2141
     80  OP1       15.5680   25.0410    0.3090 O.2     5  DC5        -0.5172
     81  OP2       13.6250   24.4940    1.8340 O.3     5  DC5        -0.4373
     82  O5'       15.6170   23.0250    1.8460 O.3     5  DC5        -0.3114
     83  C5'       17.0290   22.8370    2.0670 C.3     5  DC5         0.1811
     84  C4'       17.4040   21.4170    2.4000 C.3     5  DC5         0.1746
     85  O4'       17.0640   21.1260    3.7820 O.3     5  DC5        -0.3327
     86  C3'       16.6660   20.3440    1.6540 C.3     5  DC5         0.1558
     87  O3'       17.2670   20.1070    0.4240 O.3     5  DC5        -0.3138
     88  C2'       16.8600   19.1320    2.5710 C.3     5  DC5         0.0866
     89  C1'       16.6700   19.7620    3.9370 C.3     5  DC5         0.2106
     90  N1        15.2560   19.7570    4.4450 N.ar    5  DC5        -0.2556
     91  C2        14.8740   18.5820    5.1020 C.ar    5  DC5         0.3531
     92  O2        15.6960   17.6540    5.1930 O.2     5  DC5        -0.2443
     93  N3        13.6250   18.4910    5.6180 N.ar    5  DC5        -0.1739
     94  C4        12.7770   19.5130    5.4950 C.ar    5  DC5         0.1759
     95  N4        11.5560   19.3770    6.0190 N.pl3   5  DC5        -0.1070
     96  C5        13.1440   20.7120    4.8330 C.ar    5  DC5         0.0566
     97  C6        14.3790   20.7980    4.3250 C.ar    5  DC5         0.0849
     98  P         16.1830   19.6180   -0.5680 P.3     6  DA6         0.2141
     99  OP1       17.0320   19.9640   -1.7290 O.2     6  DA6        -0.5172
    100  OP2       14.9170   20.3510   -0.3390 O.3     6  DA6        -0.4373
    101  O5'       15.8810   18.0500   -0.6130 O.3     6  DA6        -0.3114
    102  C5'       16.9730   17.1530   -0.4650 C.3     6  DA6         0.1811
    103  C4'       16.5960   15.9690    0.4040 C.3     6  DA6         0.1746
    104  O4'       16.3690   16.3880    1.7730 O.3     6  DA6        -0.3327
    105  C3'       15.2930   15.2900    0.0280 C.3     6  DA6         0.1558
    106  O3'       15.4760   14.4550   -1.1010 O.3     6  DA6        -0.3138
    107  C2'       15.0440   14.4860    1.2960 C.3     6  DA6         0.0865
    108  C1'       15.4340   15.5020    2.3670 C.3     6  DA6         0.2094
    109  N9        14.2580   16.2640    2.8060 N.ar    6  DA6        -0.2714
    110  C8        13.8940   17.5660    2.5820 C.ar    6  DA6         0.1815
    111  N7        12.7300   17.8860    3.0960 N.ar    6  DA6        -0.2193
    112  C5        12.3000   16.7140    3.6980 C.ar    6  DA6         0.1518
    113  C6        11.1360   16.3930    4.4180 C.ar    6  DA6         0.1919
    114  N6        10.1540   17.2630    4.6620 N.pl3   6  DA6        -0.1054
    115  N1        11.0160   15.1310    4.8830 N.ar    6  DA6        -0.2040
    116  C2        12.0010   14.2600    4.6380 C.ar    6  DA6         0.2016
    117  N3        13.1410   14.4440    3.9760 N.ar    6  DA6        -0.2048
    118  C4        13.2300   15.7060    3.5270 C.ar    6  DA6         0.1691
    119  P         14.1990   14.2860   -2.3520 P.3     7  DG7         0.2141
    120  OP1       14.8220   14.4820   -3.6810 O.2     7  DG7        -0.5172
    121  OP2       12.9050   14.9550   -2.0420 O.3     7  DG7        -0.4373
    122  O5'       14.0450   12.7250   -2.0880 O.3     7  DG7        -0.3114
    123  C5'       12.9440   12.0210   -2.6230 C.3     7  DG7         0.1811
    124  C4'       12.2620   11.2110   -1.5550 C.3     7  DG7         0.1746
    125  O4'       12.2890   11.8800   -0.2640 O.3     7  DG7        -0.3327
    126  C3'       10.7910   11.0500   -1.8520 C.3     7  DG7         0.1558
    127  O3'       10.5590   10.0150   -2.7880 O.3     7  DG7        -0.3138
    128  C2'       10.1690   10.7960   -0.4860 C.3     7  DG7         0.0865
    129  C1'       11.0900   11.5920    0.4460 C.3     7  DG7         0.2094
    130  N9        10.5180   12.6840    0.8890 N.ar    7  DG7        -0.2713
    131  C8        10.9800   13.9450    0.6010 C.ar    7  DG7         0.1816
    132  N7        10.2480   14.8930    1.1200 N.ar    7  DG7        -0.2173
    133  C5         9.2440   14.2220    1.7930 C.ar    7  DG7         0.1748
    134  C6         8.1500   14.7160    2.5490 C.ar    7  DG7         0.3023
    135  O6         7.8460   15.8930    2.7780 O.2     7  DG7        -0.2633
    136  N1         7.3660   13.6870    3.0630 N.ar    7  DG7        -0.1709
    137  C2         7.6080   12.3470    2.8730 C.ar    7  DG7         0.2606
    138  N2         6.7410   11.5030    3.4490 N.pl3   7  DG7        -0.0859
    139  N3         8.6200   11.8740    2.1730 N.ar    7  DG7        -0.1918
    140  C4         9.3940   12.8550    1.6630 C.ar    7  DG7         0.1722
    141  P          9.3430   10.1500   -3.9760 P.3     8  DC8         0.2141
    142  OP1        9.1920    9.0520   -4.9590 O.2     8  DC8        -0.5172
    143  OP2        9.0900   11.5650   -4.3930 O.3     8  DC8        -0.4373
    144  O5'        8.3450    9.8010   -2.7920 O.3     8  DC8        -0.3114
    145  C5'        8.2610    8.4950   -2.2940 C.3     8  DC8         0.1811
    146  C4'        7.0210    8.3640   -1.4790 C.3     8  DC8         0.1746
    147  O4'        7.0780    9.3260   -0.3880 O.3     8  DC8        -0.3327
    148  C3'        5.7630    8.7830   -2.1950 C.3     8  DC8         0.1558
    149  O3'        5.2900    7.7630   -3.0420 O.3     8  DC8        -0.3138
    150  C2'        4.8220    9.0270   -1.0290 C.3     8  DC8         0.0866
    151  C1'        5.7570    9.7100   -0.0250 C.3     8  DC8         0.2106
    152  N1         5.6310   11.1210   -0.1420 N.ar    8  DC8        -0.2556
    153  C2         4.6390   11.8020    0.5740 C.ar    8  DC8         0.3531
    154  O2         3.8630   11.1460    1.2900 O.2     8  DC8        -0.2443
    155  N3         4.5540   13.1490    0.4650 N.ar    8  DC8        -0.1739
    156  C4         5.4090   13.8110   -0.3160 C.ar    8  DC8         0.1759
    157  N4         5.2870   15.1380   -0.3920 N.pl3   8  DC8        -0.1070
    158  C5         6.4210   13.1400   -1.0500 C.ar    8  DC8         0.0566
    159  C6         6.5010   11.8090   -0.9390 C.ar    8  DC8         0.0849
    160  P          4.4010    8.1660   -4.3090 P.3     9  DT9         0.2141
    161  OP1        4.3550    7.0670   -5.3170 O.2     9  DT9        -0.5172
    162  OP2        4.7860    9.5300   -4.7430 O.3     9  DT9        -0.4373
    163  O5'        2.9740    8.3400   -3.6240 O.3     9  DT9        -0.3114
    164  C5'        2.2390    7.2230   -3.1060 C.3     9  DT9         0.1811
    165  C4'        0.8990    7.6930   -2.6020 C.3     9  DT9         0.1746
    166  O4'        1.1170    8.7460   -1.6260 O.3     9  DT9        -0.3327
    167  C3'        0.0090    8.3410   -3.6500 C.3     9  DT9         0.1558
    168  O3'       -0.7530    7.3600   -4.3370 O.3     9  DT9        -0.3138
    169  C2'       -0.8820    9.2360   -2.8100 C.3     9  DT9         0.0866
    170  C1'        0.1050    9.7310   -1.7520 C.3     9  DT9         0.2106
    171  N1         0.8550   11.0300   -2.0300 N.ar    9  DT9        -0.2559
    172  C2         0.3090   12.1790   -1.4920 C.ar    9  DT9         0.3545
    173  O2        -0.6490   12.1700   -0.7380 O.2     9  DT9        -0.2443
    174  N3         0.9240   13.3480   -1.8700 N.ar    9  DT9        -0.1533
    175  C4         2.0080   13.4790   -2.7140 C.ar    9  DT9         0.2804
    176  O4         2.4510   14.5990   -2.9590 O.2     9  DT9        -0.2654
    177  C5         2.5170   12.2410   -3.2320 C.ar    9  DT9         0.0534
    178  C6         1.9380   11.0900   -2.8810 C.ar    9  DT9         0.0824
    179  C7         3.6950   12.2790   -4.1600 C.3     9  DT9         0.0377
    180  P         -1.4930    7.7060   -5.9320 P.3    10  DT10        0.2141
    181  OP1       -2.1730    6.4120   -6.1420 O.3    10  DT10       -0.4373
    182  OP2       -0.3080    8.0510   -6.7520 O.2    10  DT10       -0.5172
    183  O5'       -2.5520    8.8790   -6.1630 O.3    10  DT10       -0.3114
    184  C5'       -3.8430    8.8120   -5.5850 C.3    10  DT10        0.1811
    185  C4'       -4.5840   10.0940   -5.9000 C.3    10  DT10        0.1746
    186  O4'       -3.7460   11.2220   -5.5590 O.3    10  DT10       -0.3327
    187  C3'       -4.8650   10.3170   -7.3740 C.3    10  DT10        0.1558
    188  O3'       -6.0240    9.6080   -7.7540 O.3    10  DT10       -0.3138
    189  C2'       -5.0960   11.8240   -7.4030 C.3    10  DT10        0.0866
    190  C1'       -4.0390   12.3060   -6.4180 C.3    10  DT10        0.2106
    191  N1        -2.8060   12.7240   -7.0320 N.ar   10  DT10       -0.2559
    192  C2        -2.7400   13.9640   -7.6380 C.ar   10  DT10        0.3545
    193  O2        -3.7000   14.7090   -7.7330 O.2    10  DT10       -0.2443
    194  N3        -1.5040   14.3050   -8.1330 N.ar   10  DT10       -0.1533
    195  C4        -0.3530   13.5460   -8.0830 C.ar   10  DT10        0.2804
    196  O4         0.6840   13.9880   -8.5710 O.2    10  DT10       -0.2654
    197  C5        -0.5030   12.2710   -7.4390 C.ar   10  DT10        0.0534
    198  C6        -1.6930   11.9150   -6.9490 C.ar   10  DT10        0.0824
    199  C7         0.6930   11.3710   -7.3350 C.3    10  DT10        0.0377
    200  P         -5.9010    9.0690   -8.8260 P.3    11  DA11        0.2141
    201  OP1       -6.9100    8.0040   -8.6040 O.3    11  DA11       -0.4373
    202  OP2       -4.8560    8.8700   -9.8440 O.2    11  DA11       -0.5172
    203  O5'       -6.7190   10.3760   -9.1810 O.3    11  DA11       -0.3114
    204  C5'       -7.2070   10.5670  -10.4720 C.3    11  DA11        0.1811
    205  C4'       -7.2240   12.0200  -10.7940 C.3    11  DA11        0.1746
    206  O4'       -6.0850   12.7020  -10.2050 O.3    11  DA11       -0.3327
    207  C3'       -7.0080   12.2120  -12.2690 C.3    11  DA11        0.1558
    208  O3'       -8.1860   11.8910  -12.9620 O.3    11  DA11       -0.3138
    209  C2'       -6.5400   13.6550  -12.3240 C.3    11  DA11        0.0865
    210  C1'       -5.6170   13.6970  -11.1080 C.3    11  DA11        0.2094
    211  N9        -4.1610   13.3350  -11.4170 N.ar   11  DA11       -0.2714
    212  C8        -3.4910   12.2750  -10.8650 C.ar   11  DA11        0.1815
    213  N7        -2.1920   12.3200  -11.0430 N.ar   11  DA11       -0.2193
    214  C5        -1.9960   13.4880  -11.7630 C.ar   11  DA11        0.1518
    215  C6        -0.8380   14.1060  -12.2670 C.ar   11  DA11        0.1919
    216  N6         0.3920   13.6090  -12.1130 N.pl3  11  DA11       -0.1054
    217  N1        -0.9890   15.2650  -12.9420 N.ar   11  DA11       -0.2040
    218  C2        -2.2220   15.7630  -13.0950 C.ar   11  DA11        0.2016
    219  N3        -3.3840   15.2750  -12.6680 N.ar   11  DA11       -0.2048
    220  C4        -3.2000   14.1230  -12.0020 C.ar   11  DA11        0.1691
    221  P         -8.0560   11.2110  -14.1780 P.3    12  DT12        0.2141
    222  OP1       -9.4550   10.9480  -14.5440 O.2    12  DT12       -0.5172
    223  OP2       -7.0620   10.0450  -14.3420 O.3    12  DT12       -0.4373
    224  O5'       -7.5840   12.4180  -15.1710 O.3    12  DT12       -0.3114
    225  C5'       -8.4720   13.5330  -15.5070 C.3    12  DT12        0.1811
    226  C4'       -7.6790   14.6610  -16.1870 C.3    12  DT12        0.1746
    227  O4'       -6.5950   15.1280  -15.3150 O.3    12  DT12       -0.3327
    228  C3'       -6.9290   14.1970  -17.4300 C.3    12  DT12        0.1558
    229  O3'       -7.8390   14.1480  -18.5380 O.3    12  DT12       -0.3138
    230  C2'       -5.9120   15.3400  -17.5630 C.3    12  DT12        0.0866
    231  C1'       -5.4210   15.4620  -16.1310 C.3    12  DT12        0.2106
    232  N1        -4.2950   14.5120  -15.8730 N.ar   12  DT12       -0.2559
    233  C2        -3.0320   15.0120  -16.1270 C.ar   12  DT12        0.3545
    234  O2        -2.8370   16.1310  -16.5690 O.2    12  DT12       -0.2443
    235  N3        -1.9990   14.1520  -15.8460 N.ar   12  DT12       -0.1533
    236  C4        -2.1000   12.8700  -15.3470 C.ar   12  DT12        0.2804
    237  O4        -1.0790   12.2170  -15.1450 O.2    12  DT12       -0.2654
    238  C5        -3.4440   12.4220  -15.1100 C.ar   12  DT12        0.0534
    239  C6        -4.4670   13.2390  -15.3750 C.ar   12  DT12        0.0824
    240  C7        -3.6590   11.0400  -14.5680 C.3    12  DT12        0.0377
    241  P         -7.6440   13.0260  -19.8380 P.3    13  DT13        0.2141
    242  OP1       -8.8080   13.0230  -20.7480 O.2    13  DT13       -0.5172
    243  OP2       -6.8550   11.7840  -19.6360 O.3    13  DT13       -0.4373
    244  O5'       -6.6540   14.1640  -20.3290 O.3    13  DT13       -0.3114
    245  C5'       -7.1560   15.4420  -20.7060 C.3    13  DT13        0.1811
    246  C4'       -6.0110   16.3540  -21.0260 C.3    13  DT13        0.1746
    247  O4'       -5.1840   16.4780  -19.8430 O.3    13  DT13       -0.3327
    248  C3'       -5.0430   15.8490  -22.0820 C.3    13  DT13        0.1558
    249  O3'       -5.5240   16.1290  -23.3910 O.3    13  DT13       -0.3138
    250  C2'       -3.7930   16.6480  -21.7540 C.3    13  DT13        0.0866
    251  C1'       -3.8290   16.6400  -20.2250 C.3    13  DT13        0.2106
    252  N1        -3.0310   15.5660  -19.5990 N.ar   13  DT13       -0.2559
    253  C2        -1.6900   15.8260  -19.3860 C.ar   13  DT13        0.3545
    254  O2        -1.1710   16.8960  -19.6480 O.2    13  DT13       -0.2443
    255  N3        -0.9740   14.7810  -18.8540 N.ar   13  DT13       -0.1533
    256  C4        -1.4520   13.5310  -18.5210 C.ar   13  DT13        0.2804
    257  O4        -0.6850   12.6950  -18.0500 O.2    13  DT13       -0.2654
    258  C5        -2.8530   13.3390  -18.7720 C.ar   13  DT13        0.0534
    259  C6        -3.5730   14.3380  -19.2890 C.ar   13  DT13        0.0824
    260  C7        -3.4690   12.0110  -18.4430 C.3    13  DT13        0.0377
    261  P         -4.9960   15.2730  -24.6950 P.3    14  DC14        0.2141
    262  OP1       -5.8940   15.6730  -25.8030 O.2    14  DC14       -0.5172
    263  OP2       -4.7690   13.7840  -24.5780 O.3    14  DC14       -0.4373
    264  O5'       -3.5730   15.9340  -24.6580 O.3    14  DC14       -0.3114
    265  C5'       -3.3820   17.0920  -25.5060 C.3    14  DC14        0.1811
    266  C4'       -1.9330   17.4520  -25.3810 C.3    14  DC14        0.1746
    267  O4'       -1.5820   17.6660  -24.0330 O.3    14  DC14       -0.3327
    268  C3'       -0.9210   16.4300  -25.8680 C.3    14  DC14        0.1558
    269  O3'       -0.8090   16.3470  -27.2740 O.3    14  DC14       -0.3138
    270  C2'        0.3370   16.9850  -25.2050 C.3    14  DC14        0.0866
    271  C1'       -0.1880   17.3660  -23.8430 C.3    14  DC14        0.2106
    272  N1        -0.0280   16.3530  -22.8290 N.ar   14  DC14       -0.2556
    273  C2         1.2420   16.1990  -22.2620 C.ar   14  DC14        0.3531
    274  O2         2.1320   17.0150  -22.5600 O.2    14  DC14       -0.2443
    275  N3         1.4640   15.1700  -21.4110 N.ar   14  DC14       -0.1739
    276  C4         0.4790   14.3190  -21.1210 C.ar   14  DC14        0.1759
    277  N4         0.7450   13.3200  -20.2760 N.pl3  14  DC14       -0.1070
    278  C5        -0.8150   14.4570  -21.6840 C.ar   14  DC14        0.0566
    279  C6        -1.0300   15.4750  -22.5250 C.ar   14  DC14        0.0849
    280  P          0.0120   15.1080  -28.0480 P.3    15  DA15        0.2141
    281  OP1        0.0310   15.5200  -29.4670 O.2    15  DA15       -0.5172
    282  OP2       -0.7800   13.9220  -27.7010 O.3    15  DA15       -0.4373
    283  O5'        1.5400   14.9690  -27.5890 O.3    15  DA15       -0.3114
    284  C5'        2.4530   15.9740  -28.0250 C.3    15  DA15        0.1811
    285  C4'        3.7680   15.9690  -27.2800 C.3    15  DA15        0.1746
    286  O4'        3.5400   15.9760  -25.8490 O.3    15  DA15       -0.3327
    287  C3'        4.5950   14.7310  -27.5250 C.3    15  DA15        0.1558
    288  O3'        5.3830   14.8340  -28.6890 O.3    15  DA15       -0.3138
    289  C2'        5.4610   14.6770  -26.2870 C.3    15  DA15        0.0865
    290  C1'        4.4520   15.0910  -25.2110 C.3    15  DA15        0.2094
    291  N9         3.8090   13.8810  -24.6420 N.ar   15  DA15       -0.2714
    292  C8         2.5620   13.3810  -24.9120 C.ar   15  DA15        0.1815
    293  N7         2.2820   12.2770  -24.2610 N.ar   15  DA15       -0.2193
    294  C5         3.4240   12.0340  -23.5140 C.ar   15  DA15        0.1518
    295  C6         3.7640   11.0120  -22.6110 C.ar   15  DA15        0.1919
    296  N6         2.9490   10.0020  -22.2960 N.pl3  15  DA15       -0.1054
    297  N1         4.9850   11.0630  -22.0360 N.ar   15  DA15       -0.2040
    298  C2         5.8010   12.0760  -22.3520 C.ar   15  DA15        0.2016
    299  N3         5.5940   13.0940  -23.1840 N.ar   15  DA15       -0.2048
    300  C4         4.3730   13.0130  -23.7390 C.ar   15  DA15        0.1691
    301  P          5.5840   13.4930  -29.5060 P.3    16  DA16        0.2141
    302  OP1        5.9740   14.0070  -30.8430 O.2    16  DA16       -0.5172
    303  OP2        4.5110   12.4710  -29.3980 O.3    16  DA16       -0.4373
    304  O5'        6.8820   12.8890  -28.7930 O.3    16  DA16       -0.3114
    305  C5'        8.1660   13.4830  -28.9900 C.3    16  DA16        0.1811
    306  C4'        9.1100   13.1100  -27.8690 C.3    16  DA16        0.1746
    307  O4'        8.4370   13.3580  -26.6080 O.3    16  DA16       -0.3327
    308  C3'        9.5680   11.6610  -27.7930 C.3    16  DA16        0.1558
    309  O3'       10.7650   11.4530  -28.5460 O.3    16  DA16       -0.3138
    310  C2'        9.8520   11.4650  -26.3060 C.3    16  DA16        0.0865
    311  C1'        8.8380   12.3970  -25.6530 C.3    16  DA16        0.2094
    312  N9         7.6360   11.7040  -25.2310 N.ar   16  DA16       -0.2711
    313  C8         6.4260   11.4850  -25.8350 C.ar   16  DA16        0.1812
    314  N7         5.6500   10.6540  -25.1810 N.ar   16  DA16       -0.2232
    315  C5         6.4030   10.3020  -24.0720 C.ar   16  DA16        0.1366
    316  C6         6.1440    9.4480  -22.9850 C.3    16  DA16        0.2487
    317  N6         5.0050    8.7680  -22.8340 N.3    16  DA16       -0.0984
    318  N1         7.1070    9.3170  -22.0480 N.2    16  DA16       -0.1656
    319  C2         8.2480   10.0000  -22.1990 C.1    16  DA16        0.2017
    320  N3         8.6060   10.8310  -23.1750 N.2    16  DA16       -0.1443
    321  C4         7.6290   10.9400  -24.0900 C.ar   16  DA16        0.1762
    322  P         11.4010    9.9640  -28.7550 P.3    17  DT17        0.2141
    323  OP1       12.8220    9.7610  -29.1310 O.3    17  DT17       -0.4373
    324  OP2       10.3000    9.2930  -29.4810 O.2    17  DT17       -0.5172
    325  O5'       11.1890    9.5050  -27.2440 O.3    17  DT17       -0.3114
    326  C5'       12.1340    9.9100  -26.2690 C.3    17  DT17        0.1811
    327  C4'       11.8520    9.1740  -24.9970 C.3    17  DT17        0.1746
    328  O4'       10.5710    9.6180  -24.4910 O.3    17  DT17       -0.3327
    329  C3'       11.7080    7.6760  -25.1820 C.3    17  DT17        0.1558
    330  O3'       12.9590    7.0190  -25.1100 O.3    17  DT17       -0.3138
    331  C2'       10.7390    7.2760  -24.0810 C.3    17  DT17        0.0866
    332  C1'        9.8740    8.5360  -23.9280 C.3    17  DT17        0.2106
    333  N1         8.6890    8.4430  -24.6950 N.ar   17  DT17       -0.2559
    334  C2         7.6350    7.8030  -24.0710 C.ar   17  DT17        0.3545
    335  O2         7.6330    7.5280  -22.8840 O.2    17  DT17       -0.2443
    336  N3         6.5760    7.4940  -24.8900 N.ar   17  DT17       -0.1533
    337  C4         6.4680    7.7540  -26.2400 C.ar   17  DT17        0.2804
    338  O4         5.4520    7.4160  -26.8430 O.2    17  DT17       -0.2654
    339  C5         7.6030    8.4200  -26.8150 C.ar   17  DT17        0.0534
    340  C6         8.6460    8.7320  -26.0410 C.ar   17  DT17        0.0824
    341  C7         7.5820    8.7470  -28.2790 C.3    17  DT17        0.0377
    342  P         13.3300    5.7470  -26.2390 P.3    18  DT18        0.2141
    343  OP1       14.8050    5.7890  -26.3700 O.3    18  DT18       -0.4373
    344  OP2       12.4450    5.6670  -27.4250 O.2    18  DT18       -0.5172
    345  O5'       12.9350    4.4650  -25.3720 O.3    18  DT18       -0.3114
    346  C5'       13.4290    4.3530  -24.0490 C.3    18  DT18        0.1811
    347  C4'       12.5450    3.4580  -23.2210 C.3    18  DT18        0.1746
    348  O4'       11.2440    4.0760  -23.0280 O.3    18  DT18       -0.3327
    349  C3'       12.1840    2.1190  -23.8440 C.3    18  DT18        0.1558
    350  O3'       13.2320    1.1680  -23.8430 O.3    18  DT18       -0.3138
    351  C2'       10.9700    1.7180  -23.0170 C.3    18  DT18        0.0866
    352  C1'       10.2540    3.0680  -22.9370 C.3    18  DT18        0.2106
    353  N1         9.2960    3.1210  -24.0320 N.ar   18  DT18       -0.2559
    354  C2         8.1320    2.3770  -24.0010 C.ar   18  DT18        0.3546
    355  O2         7.8970    1.5460  -23.1410 O.3    18  DT18       -0.2424
    356  N3         7.2470    2.6400  -25.0190 N.ar   18  DT18       -0.1533
    357  C4         7.4060    3.5510  -26.0420 C.ar   18  DT18        0.2804
    358  O4         6.5210    3.6760  -26.8850 O.2    18  DT18       -0.2654
    359  C5         8.6410    4.2840  -26.0050 C.ar   18  DT18        0.0534
    360  C6         9.5190    4.0480  -25.0270 C.ar   18  DT18        0.0824
    361  C7         8.9080    5.3000  -27.0760 C.3    18  DT18        0.0377
    362  P         13.4560    0.3440  -25.1530 P.3    19  DA19        0.2141
    363  OP1       14.6090   -0.4520  -24.6630 O.3    19  DA19       -0.4373
    364  OP2       13.4790    0.7730  -26.5810 O.2    19  DA19       -0.5172
    365  O5'       12.1370   -0.4980  -24.8140 O.3    19  DA19       -0.3114
    366  C5'       12.2240   -1.4850  -23.8020 C.3    19  DA19        0.1811
    367  C4'       11.0890   -2.4770  -23.8870 C.3    19  DA19        0.1746
    368  O4'        9.8200   -1.7720  -23.6980 O.3    19  DA19       -0.3327
    369  C3'       10.9720   -3.2230  -25.2200 C.3    19  DA19        0.1558
    370  O3'       11.8920   -4.3370  -25.3950 O.3    19  DA19       -0.3138
    371  C2'        9.4830   -3.5880  -25.2030 C.3    19  DA19        0.0865
    372  C1'        8.8650   -2.2900  -24.6170 C.3    19  DA19        0.2094
    373  N9         8.5940   -1.3210  -25.7220 N.ar   19  DA19       -0.2714
    374  C8         9.3930   -0.2910  -26.1480 C.ar   19  DA19        0.1815
    375  N7         8.8510    0.4440  -27.0890 N.ar   19  DA19       -0.2193
    376  C5         7.6120   -0.1420  -27.2960 C.ar   19  DA19        0.1518
    377  C6         6.5530    0.1680  -28.1670 C.ar   19  DA19        0.1919
    378  N6         6.5770    1.1890  -29.0270 N.pl3  19  DA19       -0.1054
    379  N1         5.4560   -0.6180  -28.1240 N.ar   19  DA19       -0.2040
    380  C2         5.4320   -1.6410  -27.2610 C.ar   19  DA19        0.2016
    381  N3         6.3630   -2.0310  -26.3940 N.ar   19  DA19       -0.2048
    382  C4         7.4400   -1.2310  -26.4620 C.ar   19  DA19        0.1691
    383  P         12.7830   -4.5230  -26.8840 P.3    20  DA20        0.2141
    384  OP1       13.8820   -5.4550  -26.5410 O.3    20  DA20       -0.4373
    385  OP2       13.0440   -3.3150  -27.7050 O.2    20  DA20       -0.5172
    386  O5'       11.6240   -5.2900  -27.6890 O.3    20  DA20       -0.3114
    387  C5'       11.2790   -6.6370  -27.3960 C.3    20  DA20        0.1811
    388  C4'       10.0580   -7.0950  -28.1590 C.3    20  DA20        0.1746
    389  O4'        8.9560   -6.1790  -27.9370 O.3    20  DA20       -0.3327
    390  C3'       10.1870   -7.1610  -29.6730 C.3    20  DA20        0.1558
    391  O3'       10.8160   -8.3480  -30.1190 O.3    20  DA20       -0.3138
    392  C2'        8.7450   -7.0300  -30.1520 C.3    20  DA20        0.0865
    393  C1'        8.1430   -6.1150  -29.0870 C.3    20  DA20        0.2094
    394  N9         8.1530   -4.7290  -29.5210 N.ar   20  DA20       -0.2714
    395  C8         9.1920   -3.8450  -29.3860 C.ar   20  DA20        0.1815
    396  N7         8.9500   -2.6620  -29.8990 N.ar   20  DA20       -0.2193
    397  C5         7.6660   -2.7770  -30.4060 C.ar   20  DA20        0.1518
    398  C6         6.8290   -1.8670  -31.0760 C.ar   20  DA20        0.1919
    399  N6         7.1800   -0.6110  -31.3610 N.pl3  20  DA20       -0.1054
    400  N1         5.6050   -2.2990  -31.4480 N.ar   20  DA20       -0.2040
    401  C2         5.2540   -3.5580  -31.1620 C.ar   20  DA20        0.2016
    402  N3         5.9510   -4.5040  -30.5370 N.ar   20  DA20       -0.2048
    403  C4         7.1620   -4.0440  -30.1810 C.ar   20  DA20        0.1691
    404  P         11.4890   -8.3850  -31.5510 P.3    21  DT21        0.2141
    405  OP1       12.0750   -9.7010  -31.8920 O.2    21  DT21       -0.5172
    406  OP2       12.3040   -7.1500  -31.6120 O.3    21  DT21       -0.4373
    407  O5'       10.2570   -8.0840  -32.5320 O.3    21  DT21       -0.3114
    408  C5'        9.3830   -9.1320  -32.9210 C.3    21  DT21        0.1811
    409  C4'        8.0350   -8.6200  -33.3680 C.3    21  DT21        0.1746
    410  O4'        7.6340   -7.4960  -32.5460 O.3    21  DT21       -0.3327
    411  C3'        7.9360   -8.0850  -34.7860 C.3    21  DT21        0.1558
    412  O3'        7.8000   -9.1210  -35.7420 O.3    21  DT21       -0.3138
    413  C2'        6.6990   -7.2060  -34.6960 C.3    21  DT21        0.0866
    414  C1'        6.8360   -6.6180  -33.2990 C.3    21  DT21        0.2106
    415  N1         7.5080   -5.2800  -33.2600 N.ar   21  DT21       -0.2559
    416  C2         6.8050   -4.2510  -33.8570 C.ar   21  DT21        0.3545
    417  O2         5.6880   -4.3920  -34.3230 O.2    21  DT21       -0.2443
    418  N3         7.4600   -3.0430  -33.8910 N.ar   21  DT21       -0.1533
    419  C4         8.7180   -2.7680  -33.3990 C.ar   21  DT21        0.2804
    420  O4         9.1730   -1.6320  -33.5030 O.2    21  DT21       -0.2654
    421  C5         9.3840   -3.8880  -32.7950 C.ar   21  DT21        0.0534
    422  C6         8.7700   -5.0730  -32.7490 C.ar   21  DT21        0.0824
    423  C7        10.7590   -3.6900  -32.2300 C.3    21  DT21        0.0377
    424  P          8.1030   -8.9500  -37.2280 P.3    22  DC22        0.2141
    425  OP1        7.6370  -10.2350  -37.8050 O.2    22  DC22       -0.5172
    426  OP2        9.5510   -8.7660  -36.9570 O.3    22  DC22       -0.4373
    427  O5'        7.5660   -7.6710  -38.0980 O.3    22  DC22       -0.3114
    428  C5'        6.4810   -7.6540  -39.0720 C.3    22  DC22        0.1811
    429  C4'        5.7100   -6.3280  -39.0770 C.3    22  DC22        0.1746
    430  O4'        5.9600   -5.5790  -37.8350 O.3    22  DC22       -0.3327
    431  C3'        6.0130   -5.3290  -40.2050 C.3    22  DC22        0.1558
    432  O3'        5.2460   -5.5560  -41.4450 O.3    22  DC22       -0.3138
    433  C2'        5.7660   -3.9550  -39.5160 C.3    22  DC22        0.0866
    434  C1'        6.1240   -4.1730  -38.0490 C.3    22  DC22        0.2106
    435  N1         7.2740   -3.7990  -37.5570 N.ar   22  DC22       -0.2556
    436  C2         7.4010   -2.4060  -37.5020 C.ar   22  DC22        0.3531
    437  O2         6.3950   -1.7060  -37.7070 O.2    22  DC22       -0.2443
    438  N3         8.6120   -1.8650  -37.2310 N.ar   22  DC22       -0.1739
    439  C4         9.6640   -2.6570  -37.0190 C.ar   22  DC22        0.1759
    440  N4        10.8380   -2.0780  -36.7540 N.pl3  22  DC22       -0.1070
    441  C5         9.5560   -4.0700  -37.0700 C.ar   22  DC22        0.0566
    442  C6         8.3580   -4.6010  -37.3390 C.ar   22  DC22        0.0849
    443  P          5.5260   -4.8130  -42.8640 P.3    23  DG23        0.2141
    444  OP1        4.4900   -5.3450  -43.7610 O.2    23  DG23       -0.5172
    445  OP2        6.9630   -5.0710  -43.1320 O.3    23  DG23       -0.4373
    446  O5'        5.3360   -3.2470  -42.6550 O.3    23  DG23       -0.3114
    447  C5'        4.1750   -2.7440  -41.9670 C.3    23  DG23        0.1811
    448  C4'        4.4680   -1.3950  -41.3220 C.3    23  DG23        0.1746
    449  O4'        5.4290   -1.5520  -40.2400 O.3    23  DG23       -0.3327
    450  C3'        5.0050   -0.3510  -42.2940 C.3    23  DG23        0.1558
    451  O3'        4.2170    0.8140  -42.2220 O.3    23  DG23       -0.3138
    452  C2'        6.4410   -0.1080  -41.8370 C.3    23  DG23        0.0865
    453  C1'        6.5820   -0.7360  -40.4370 C.3    23  DG23        0.2094
    454  N9         7.8250   -1.5520  -40.6250 N.ar   23  DG23       -0.2713
    455  C8         7.8600   -2.8410  -41.0990 C.ar   23  DG23        0.1816
    456  N7         9.0710   -3.3170  -41.2060 N.ar   23  DG23       -0.2173
    457  C5         9.8850   -2.2850  -40.7770 C.ar   23  DG23        0.1748
    458  C6        11.2970   -2.2070  -40.6700 C.ar   23  DG23        0.3023
    459  O6        12.1350   -3.0750  -40.9450 O.2    23  DG23       -0.2633
    460  N1        11.7150   -0.9700  -40.1890 N.ar   23  DG23       -0.1709
    461  C2        10.8760    0.0650  -39.8520 C.ar   23  DG23        0.2606
    462  N2        11.4650    1.1820  -39.4040 N.pl3  23  DG23       -0.0859
    463  N3         9.5620    0.0080  -39.9470 N.ar   23  DG23       -0.1918
    464  C4         9.1330   -1.1840  -40.4130 C.ar   23  DG23        0.1722
    465  P          4.1680    1.8960  -43.2680 P.3    24  DC24        0.2141
    466  OP1        2.7980    1.3710  -43.5080 O.3    24  DC24       -0.4373
    467  OP2        4.9380    2.4810  -44.4090 O.2    24  DC24       -0.5172
    468  O5'        4.0940    2.9850  -42.1170 O.3    24  DC24       -0.3114
    469  C5'        5.2720    3.6710  -41.6720 C.3    24  DC24        0.1811
    470  C4'        5.0930    5.1650  -41.8210 C.3    24  DC24        0.1746
    471  O4'        5.2660    5.5600  -43.1980 O.3    24  DC24       -0.3327
    472  C3'        3.7130    5.6950  -41.4780 C.3    24  DC24        0.1558
    473  O3'        3.6540    5.8740  -40.0680 O.3    24  DC24       -0.3138
    474  C2'        3.6790    7.0460  -42.2080 C.3    24  DC24        0.0866
    475  C1'        4.6250    6.7990  -43.3960 C.3    24  DC24        0.2106
    476  N1         5.3290    7.0180  -44.8740 N.ar   24  DC24       -0.2556
    477  C2         5.5320    8.3100  -45.3710 C.ar   24  DC24        0.3531
    478  O2         5.4380    9.2730  -44.5910 O.2    24  DC24       -0.2443
    479  N3         5.8240    8.4740  -46.6840 N.ar   24  DC24       -0.1739
    480  C4         5.9140    7.4110  -47.4850 C.ar   24  DC24        0.1759
    481  N4         6.2040    7.6210  -48.7710 N.pl3  24  DC24       -0.1070
    482  C5         5.7110    6.0930  -47.0000 C.ar   24  DC24        0.0566
    483  C6         5.4240    5.9360  -45.7040 C.ar   24  DC24        0.0849
    484  P          2.1380    5.7300  -39.2740 P.3    25  DA25        0.2141
    485  OP1        0.9310    6.5930  -39.2330 O.2    25  DA25       -0.5172
    486  OP2        3.2210    5.9960  -38.3120 O.3    25  DA25       -0.4373
    487  O5'        1.7370    4.1930  -39.1180 O.3    25  DA25       -0.3114
    488  C5'        0.5270    3.6710  -39.6280 C.3    25  DA25        0.1811
    489  C4'        0.4200    2.2220  -39.2070 C.3    25  DA25        0.1746
    490  O4'        1.7000    1.5890  -39.4460 O.3    25  DA25       -0.3327
    491  C3'        0.2050    1.9550  -37.7280 C.3    25  DA25        0.1558
    492  O3'       -1.1410    2.0450  -37.3570 O.3    25  DA25       -0.3138
    493  C2'        0.6560    0.5040  -37.6260 C.3    25  DA25        0.0865
    494  C1'        1.9250    0.5830  -38.4780 C.3    25  DA25        0.2094
    495  N9         3.0940    0.9400  -37.6050 N.ar   25  DA25       -0.2714
    496  C8         3.6160    2.1920  -37.4090 C.ar   25  DA25        0.1815
    497  N7         4.6700    2.2100  -36.6290 N.ar   25  DA25       -0.2193
    498  C5         4.8540    0.8790  -36.2880 C.ar   25  DA25        0.1518
    499  C6         5.8070    0.2310  -35.4820 C.ar   25  DA25        0.1919
    500  N6         6.7940    0.8680  -34.8490 N.pl3  25  DA25       -0.1054
    501  N1         5.7070   -1.1080  -35.3490 N.ar   25  DA25       -0.2040
    502  C2         4.7180   -1.7460  -35.9850 C.ar   25  DA25        0.2016
    503  N3         3.7650   -1.2480  -36.7690 N.ar   25  DA25       -0.2048
    504  C4         3.8900    0.0850  -36.8810 C.ar   25  DA25        0.1691
    505  P         -1.3530    2.7200  -36.1940 P.3    26  DT26        0.2141
    506  OP1       -2.7120    2.8550  -36.7900 O.2    26  DT26       -0.5172
    507  OP2       -0.9050    3.6880  -35.1600 O.3    26  DT26       -0.4373
    508  O5'       -1.1910    1.2750  -35.5510 O.3    26  DT26       -0.3114
    509  C5'       -1.7360    0.1010  -36.1690 C.3    26  DT26        0.1811
    510  C4'       -1.3790   -1.1130  -35.3510 C.3    26  DT26        0.1746
    511  O4'        0.0360   -1.3930  -35.4900 O.3    26  DT26       -0.3327
    512  C3'       -1.5480   -0.8970  -33.8540 C.3    26  DT26        0.1558
    513  O3'       -2.8840   -1.1150  -33.4600 O.3    26  DT26       -0.3138
    514  C2'       -0.5730   -1.8930  -33.2590 C.3    26  DT26        0.0866
    515  C1'        0.5890   -1.7800  -34.2350 C.3    26  DT26        0.2106
    516  N1         1.6070   -0.7320  -33.8200 N.ar   26  DT26       -0.2559
    517  C2         2.6140   -1.1960  -32.9950 C.ar   26  DT26        0.3545
    518  O2         2.6990   -2.3580  -32.6390 O.2    26  DT26       -0.2443
    519  N3         3.5230   -0.2450  -32.5970 N.ar   26  DT26       -0.1533
    520  C4         3.5250    1.0920  -32.9340 C.ar   26  DT26        0.2804
    521  O4         4.4110    1.8240  -32.4980 O.2    26  DT26       -0.2654
    522  C5         2.4480    1.4960  -33.7920 C.ar   26  DT26        0.0534
    523  C6         1.5500    0.5930  -34.1940 C.ar   26  DT26        0.0824
    524  C7         2.3630    2.9330  -34.2140 C.3    26  DT26        0.0377
    525  P         -3.3820   -0.4340  -32.2340 P.3    27  DT27        0.2141
    526  OP1       -4.8500   -0.4750  -32.0300 O.3    27  DT27       -0.4373
    527  OP2       -2.6750    0.8680  -32.2460 O.2    27  DT27       -0.5172
    528  O5'       -2.6750   -1.3230  -31.1160 O.3    27  DT27       -0.3114
    529  C5'       -3.1410   -2.6540  -30.8180 C.3    27  DT27        0.1811
    530  C4'       -2.1850   -3.3450  -29.8700 C.3    27  DT27        0.1746
    531  O4'       -0.8620   -3.3580  -30.4600 O.3    27  DT27       -0.3327
    532  C3'       -1.9590   -2.6760  -28.5240 C.3    27  DT27        0.1558
    533  O3'       -2.9690   -3.0070  -27.5860 O.3    27  DT27       -0.3138
    534  C2'       -0.6280   -3.2730  -28.1010 C.3    27  DT27        0.0866
    535  C1'        0.1150   -3.3070  -29.4330 C.3    27  DT27        0.2106
    536  N1         0.9760   -2.1330  -29.6460 N.ar   27  DT27       -0.2559
    537  C2         2.1490   -2.1100  -28.9160 C.ar   27  DT27        0.3545
    538  O2         2.5080   -3.0330  -28.2060 O.2    27  DT27       -0.2443
    539  N3         2.8920   -0.9620  -29.0450 N.ar   27  DT27       -0.1533
    540  C4         2.5870    0.1420  -29.8140 C.ar   27  DT27        0.2804
    541  O4         3.3560    1.1000  -29.8300 O.2    27  DT27       -0.2654
    542  C5         1.3530    0.0420  -30.5410 C.ar   27  DT27        0.0534
    543  C6         0.6110   -1.0630  -30.4340 C.ar   27  DT27        0.0824
    544  C7         0.9320    1.1930  -31.4060 C.3    27  DT27        0.0377
    545  P         -3.0950   -2.1500  -26.1820 P.3    28  DA28        0.2141
    546  OP1       -4.4370   -2.4770  -25.6390 O.3    28  DA28       -0.4373
    547  OP2       -2.5700   -0.7630  -26.1510 O.2    28  DA28       -0.5172
    548  O5'       -1.9530   -3.0360  -25.4920 O.3    28  DA28       -0.3114
    549  C5'       -1.7690   -3.1380  -24.0930 C.3    28  DA28        0.1811
    550  C4'       -0.3720   -3.5950  -23.7880 C.3    28  DA28        0.1746
    551  O4'        0.4510   -3.4930  -24.9760 O.3    28  DA28       -0.3327
    552  C3'        0.3500   -2.7150  -22.7930 C.3    28  DA28        0.1558
    553  O3'       -0.0130   -2.9850  -21.4580 O.3    28  DA28       -0.3138
    554  C2'        1.8150   -2.9610  -23.1040 C.3    28  DA28        0.0865
    555  C1'        1.7540   -3.0670  -24.6240 C.3    28  DA28        0.2094
    556  N9         1.8940   -1.5890  -25.2410 N.ar   28  DA28       -0.2714
    557  C8         0.9510   -0.7870  -25.8310 C.ar   28  DA28        0.1815
    558  N7         1.4160    0.3750  -26.2250 N.ar   28  DA28       -0.2193
    559  C5         2.7550    0.3340  -25.8690 C.ar   28  DA28        0.1518
    560  C6         3.8010    1.2630  -26.0140 C.ar   28  DA28        0.1919
    561  N6         3.6520    2.4620  -26.5810 N.pl3  28  DA28       -0.1054
    562  N1         5.0190    0.9110  -25.5500 N.ar   28  DA28       -0.2040
    563  C2         5.1680   -0.2910  -24.9830 C.ar   28  DA28        0.2016
    564  N3         4.2630   -1.2480  -24.7910 N.ar   28  DA28       -0.2048
    565  C4         3.0640   -0.8680  -25.2610 C.ar   28  DA28        0.1691
    566  P         -0.1940   -1.6110  -20.6330 P.3    29  DC29        0.2141
    567  OP1       -0.5540   -2.1510  -19.2870 O.3    29  DC29       -0.4373
    568  OP2       -0.8880   -0.4030  -21.1480 O.2    29  DC29       -0.5172
    569  O5'        1.3720   -1.3080  -20.6670 O.3    29  DC29       -0.3114
    570  C5'        2.3120   -2.3740  -20.5020 C.3    29  DC29        0.1811
    571  C4'        3.7200   -1.8910  -20.7450 C.3    29  DC29        0.1744
    572  O4'        3.8740   -1.4630  -22.1250 O.3    29  DC29       -0.3348
    573  C3'        4.1970   -0.6850  -19.9600 C.3    29  DC29        0.1555
    574  O3'        4.5430   -1.0050  -18.6190 O.3    29  DC29       -0.3139
    575  C2'        5.4160   -0.2730  -20.7780 C.3    29  DC29        0.0836
    576  C1'        4.8990   -0.4880  -22.2040 C.3    29  DC29        0.2000
    577  N1         4.4030    0.8630  -22.5810 N.pl3  29  DC29       -0.2121
    578  C2         5.2990    1.8630  -22.9760 C.2    29  DC29        0.4493
    579  O2         6.5170    1.6180  -22.9490 O.2    29  DC29       -0.2192
    580  N3         4.8150    3.0640  -23.3740 N.2    29  DC29        0.0248
    581  C4         3.4990    3.2820  -23.3860 C.2    29  DC29        0.4172
    582  N4         3.0680    4.4800  -23.7860 N.pl3  29  DC29        0.2162
    583  C5         2.5740    2.2820  -22.9900 C.2    29  DC29        0.0937
    584  C6         3.0570    1.0980  -22.5980 C.3    29  DC29        0.1340
    585  P          4.5660    0.1020  -17.5460 P.3    30  DC30        0.2141
    586  OP1        4.2220   -0.3830  -16.1900 O.3    30  DC30       -0.4373
    587  OP2        3.9540    1.3380  -18.0830 O.2    30  DC30       -0.5172
    588  O5'        6.1340    0.3700  -17.6470 O.3    30  DC30       -0.3114
    589  C5'        6.6820    1.3040  -16.7410 C.3    30  DC30        0.1811
    590  C4'        7.7830    2.1130  -17.3650 C.3    30  DC30        0.1746
    591  O4'        7.6600    2.1530  -18.8100 O.3    30  DC30       -0.3327
    592  C3'        7.7570    3.5630  -16.9390 C.3    30  DC30        0.1558
    593  O3'        8.3420    3.7190  -15.6620 O.3    30  DC30       -0.3138
    594  C2'        8.4970    4.2490  -18.0780 C.3    30  DC30        0.0866
    595  C1'        8.0100    3.4380  -19.2770 C.3    30  DC30        0.2106
    596  N1         6.8010    4.1970  -19.8770 N.ar   30  DC30       -0.2556
    597  C2         6.9960    5.4080  -20.5510 C.ar   30  DC30        0.3531
    598  O2         8.1280    5.9190  -20.5460 O.2    30  DC30       -0.2443
    599  N3         5.9480    5.9850  -21.1870 N.ar   30  DC30       -0.1739
    600  C4         4.7500    5.3990  -21.1660 C.ar   30  DC30        0.1759
    601  N4         3.7470    6.0050  -21.8060 N.pl3  30  DC30       -0.1070
    602  C5         4.5320    4.1720  -20.4880 C.ar   30  DC30        0.0566
    603  C6         5.5690    3.6060  -19.8620 C.ar   30  DC30        0.0849
    604  P          7.6890    4.6430  -14.6930 P.3    31  DT31        0.2141
    605  OP1        8.1890    4.4300  -13.3150 O.3    31  DT31       -0.4373
    606  OP2        6.2490    4.8930  -14.9350 O.2    31  DT31       -0.5172
    607  O5'        8.4430    5.8660  -15.3730 O.3    31  DT31       -0.3114
    608  C5'        9.8380    5.8230  -15.6600 C.3    31  DT31        0.1811
    609  C4'       10.1180    6.9290  -16.6470 C.3    31  DT31        0.1746
    610  O4'        9.2470    6.7180  -17.7760 O.3    31  DT31       -0.3327
    611  C3'        9.6880    8.3300  -16.2260 C.3    31  DT31        0.1558
    612  O3'       10.5860    8.9070  -15.2980 O.3    31  DT31       -0.3138
    613  C2'        9.6430    9.0530  -17.5760 C.3    31  DT31        0.0866
    614  C1'        8.9980    7.9670  -18.4150 C.3    31  DT31        0.2105
    615  N1         7.6350    8.0630  -18.7630 N.ar   31  DT31       -0.2583
    616  C2         7.2150    8.9510  -19.7340 C.ar   31  DT31        0.3198
    617  O2         7.9850    9.6180  -20.4020 O.3    31  DT31       -0.3556
    618  N3         5.8530    9.0340  -19.8970 N.ar   31  DT31       -0.1558
    619  C4         4.8900    8.3320  -19.2010 C.ar   31  DT31        0.2803
    620  O4         3.7030    8.5130  -19.4620 O.2    31  DT31       -0.2654
    621  C5         5.4050    7.4310  -18.2090 C.ar   31  DT31        0.0534
    622  C6         6.7250    7.3310  -18.0300 C.ar   31  DT31        0.0823
    623  C7         4.4360    6.6220  -17.3980 C.3    31  DT31        0.0377
    624  P         10.0650    9.8410  -14.3840 P.3    32  DT32        0.2141
    625  OP1       10.6920    9.8550  -13.0400 O.3    32  DT32       -0.4373
    626  OP2        8.8270    9.0600  -14.6150 O.2    32  DT32       -0.5172
    627  O5'        9.7430   11.3380  -14.8480 O.3    32  DT32       -0.3114
    628  C5'       10.7710   12.2440  -15.2490 C.3    32  DT32        0.1811
    629  C4'       10.3400   13.0020  -16.4820 C.3    32  DT32        0.1746
    630  O4'        9.4830   12.1310  -17.2690 O.3    32  DT32       -0.3327
    631  C3'        9.4640   14.2170  -16.2770 C.3    32  DT32        0.1558
    632  O3'       10.2650   15.3450  -15.9550 O.3    32  DT32       -0.3138
    633  C2'        8.8200   14.3650  -17.6540 C.3    32  DT32        0.0866
    634  C1'        8.5780   12.9130  -18.0300 C.3    32  DT32        0.2106
    635  N1         7.1940   12.4480  -17.7280 N.ar   32  DT32       -0.2559
    636  C2         6.1050   13.0460  -18.3330 C.ar   32  DT32        0.3545
    637  O2         6.2060   13.9840  -19.1040 O.2    32  DT32       -0.2443
    638  N3         4.8870   12.5050  -18.0020 N.ar   32  DT32       -0.1533
    639  C4         4.6530   11.4500  -17.1450 C.ar   32  DT32        0.2804
    640  O4         3.4990   11.0750  -16.9480 O.2    32  DT32       -0.2654
    641  C5         5.8330   10.8830  -16.5560 C.ar   32  DT32        0.0534
    642  C6         7.0310   11.3900  -16.8600 C.ar   32  DT32        0.0824
    643  C7         5.6830    9.7300  -15.6090 C.3    32  DT32        0.0377
    644  P          9.6770   16.4840  -15.0610 P.3    33  DA33        0.2141
    645  OP1       10.8950   17.2940  -14.8020 O.2    33  DA33       -0.5172
    646  OP2        9.0510   15.7240  -13.9590 O.3    33  DA33       -0.4373
    647  O5'        8.5490   17.3810  -15.7210 O.3    33  DA33       -0.3114
    648  C5'        8.8320   18.1320  -16.9060 C.3    33  DA33        0.1811
    649  C4'        7.5520   18.5570  -17.5690 C.3    33  DA33        0.1746
    650  O4'        6.8480   17.3910  -18.0600 O.3    33  DA33       -0.3327
    651  C3'        6.5390   19.2470  -16.6740 C.3    33  DA33        0.1558
    652  O3'        6.8390   20.6190  -16.4630 O.3    33  DA33       -0.3138
    653  C2'        5.2350   19.0130  -17.4290 C.3    33  DA33        0.0865
    654  C1'        5.4500   17.6070  -17.9750 C.3    33  DA33        0.2094
    655  N9         4.9110   16.5820  -17.1250 N.ar   33  DA33       -0.2714
    656  C8         5.5660   15.8280  -16.1860 C.ar   33  DA33        0.1815
    657  N7         4.7750   15.0510  -15.4860 N.ar   33  DA33       -0.2193
    658  C5         3.5140   15.3120  -15.9990 C.ar   33  DA33        0.1518
    659  C6         2.2410   14.8070  -15.6820 C.ar   33  DA33        0.1919
    660  N6         2.0220   13.8940  -14.7330 N.pl3  33  DA33       -0.1054
    661  N1         1.1880   15.2780  -16.3840 N.ar   33  DA33       -0.2040
    662  C2         1.4080   16.1930  -17.3360 C.ar   33  DA33        0.2016
    663  N3         2.5560   16.7420  -17.7240 N.ar   33  DA33       -0.2048
    664  C4         3.5820   16.2540  -17.0080 C.ar   33  DA33        0.1691
    665  P          6.0330   21.4750  -15.4140 P.3    34  DT34        0.2141
    666  OP1        6.1840   22.9400  -15.3580 O.2    34  DT34       -0.5172
    667  OP2        6.0190   20.7150  -14.1450 O.3    34  DT34       -0.4373
    668  O5'        4.7260   21.1350  -16.2430 O.3    34  DT34       -0.3114
    669  C5'        3.9420   22.1130  -16.8120 C.3    34  DT34        0.1811
    670  C4'        2.5310   21.6940  -16.5790 C.3    34  DT34        0.1746
    671  O4'        2.3890   20.2760  -16.7960 O.3    34  DT34       -0.3327
    672  C3'        2.0910   21.8190  -15.1530 C.3    34  DT34        0.1558
    673  O3'        1.8940   23.1850  -14.8110 O.3    34  DT34       -0.3138
    674  C2'        0.8240   20.9730  -15.1810 C.3    34  DT34        0.0866
    675  C1'        1.2900   19.8120  -16.0330 C.3    34  DT34        0.2106
    676  N1         1.6880   18.6940  -15.2510 N.ar   34  DT34       -0.2559
    677  C2         0.7280   17.8160  -14.7870 C.ar   34  DT34        0.3545
    678  O2        -0.4560   17.9230  -15.0550 O.2    34  DT34       -0.2443
    679  N3         1.2040   16.8010  -13.9920 N.ar   34  DT34       -0.1533
    680  C4         2.5150   16.5830  -13.6230 C.ar   34  DT34        0.2804
    681  O4         2.7890   15.6260  -12.9030 O.2    34  DT34       -0.2654
    682  C5         3.4520   17.5380  -14.1440 C.ar   34  DT34        0.0534
    683  C6         3.0160   18.5340  -14.9200 C.ar   34  DT34        0.0824
    684  C7         4.9040   17.3860  -13.7980 C.3    34  DT34        0.0377
    685  P          2.0110   23.5940  -13.3240 P.3    35  DA35        0.2141
    686  OP1        1.7120   24.9100  -12.8320 O.2    35  DA35       -0.5172
    687  OP2        3.0040   22.7270  -12.6200 O.3    35  DA35       -0.4373
    688  O5'        0.6140   22.8140  -13.3140 O.3    35  DA35       -0.3114
    689  C5'       -0.5100   23.2770  -14.0750 C.3    35  DA35        0.1811
    690  C4'       -1.7890   22.7890  -13.4790 C.3    35  DA35        0.1746
    691  O4'       -1.9620   21.3710  -13.6570 O.3    35  DA35       -0.3327
    692  C3'       -1.9760   23.0130  -11.9890 C.3    35  DA35        0.1558
    693  O3'       -2.5220   24.3210  -11.8580 O.3    35  DA35       -0.3138
    694  C2'       -3.0440   21.9820  -11.6620 C.3    35  DA35        0.0865
    695  C1'       -2.5620   20.7990  -12.5050 C.3    35  DA35        0.2094
    696  N9        -1.3680   19.9070  -11.8490 N.ar   35  DA35       -0.2714
    697  C8        -0.0410   20.2400  -11.7670 C.ar   35  DA35        0.1815
    698  N7         0.6710   19.4020  -11.0530 N.ar   35  DA35       -0.2193
    699  C5        -0.2500   18.4540  -10.6370 C.ar   35  DA35        0.1518
    700  C6        -0.1270   17.2980   -9.8470 C.ar   35  DA35        0.1919
    701  N6         1.0260   16.8850   -9.3150 N.pl3  35  DA35       -0.1054
    702  N1        -1.2430   16.5720   -9.6200 N.ar   35  DA35       -0.2040
    703  C2        -2.3980   16.9860  -10.1530 C.ar   35  DA35        0.2016
    704  N3        -2.6390   18.0530  -10.9120 N.ar   35  DA35       -0.2048
    705  C4        -1.5110   18.7530  -11.1180 C.ar   35  DA35        0.1691
    706  P         -1.8820   25.2850  -10.9110 P.3    36  DC36        0.2141
    707  OP1       -2.2800   26.6600  -10.5770 O.2    36  DC36       -0.5172
    708  OP2       -0.4550   25.0750  -10.5670 O.3    36  DC36       -0.4373
    709  O5'       -2.7970   24.2000  -10.1660 O.3    36  DC36       -0.3114
    710  C5'       -4.1780   24.5540   -9.9580 C.3    36  DC36        0.1811
    711  C4'       -4.7670   23.6790   -8.8840 C.3    36  DC36        0.1746
    712  O4'       -4.7050   22.2890   -9.3040 O.3    36  DC36       -0.3327
    713  C3'       -4.0500   23.6620   -7.5550 C.3    36  DC36        0.1558
    714  O3'       -4.3780   24.7860   -6.7280 O.3    36  DC36       -0.3138
    715  C2'       -4.4620   22.3480   -6.9550 C.3    36  DC36        0.0866
    716  C1'       -4.4390   21.4580   -8.1790 C.3    36  DC36        0.2106
    717  N1        -3.1200   20.8310   -8.3200 N.ar   36  DC36       -0.2556
    718  C2        -2.8410   19.7100   -7.5300 C.ar   36  DC36        0.3531
    719  O2        -3.7340   19.2630   -6.7900 O.2    36  DC36       -0.2443
    720  N3        -1.6110   19.1460   -7.5950 N.ar   36  DC36       -0.1739
    721  C4        -0.6830   19.6610   -8.4030 C.ar   36  DC36        0.1759
    722  N4         0.5140   19.0720   -8.4330 N.pl3  36  DC36       -0.1070
    723  C5        -0.9450   20.7970   -9.2110 C.ar   36  DC36        0.0566
    724  C6        -2.1610   21.3500   -9.1440 C.ar   36  DC36        0.0849
    725  P         -3.2010   25.4770   -5.7180 P.3    37  DC37        0.2141
    726  OP1       -3.6200   26.8200   -5.2120 O.3    37  DC37       -0.4373
    727  OP2       -1.8170   25.2810   -6.2190 O.2    37  DC37       -0.5172
    728  O5'       -3.4480   24.3930   -4.5740 O.3    37  DC37       -0.3114
    729  C5'       -4.7750   24.1420   -4.0990 C.3    37  DC37        0.1811
    730  C4'       -4.7940   22.9650   -3.1560 C.3    37  DC37        0.1746
    731  O4'       -4.4100   21.7530   -3.8580 O.3    37  DC37       -0.3327
    732  C3'       -3.8430   22.9910   -1.9760 C.3    37  DC37        0.1558
    733  O3'       -4.2950   23.8340   -0.9250 O.3    37  DC37       -0.3138
    734  C2'       -3.8500   21.5220   -1.5680 C.3    37  DC37        0.0866
    735  C1'       -3.8400   20.8370   -2.9390 C.3    37  DC37        0.2106
    736  N1        -2.4270   20.5930   -3.3960 N.ar   37  DC37       -0.2556
    737  C2        -1.7920   19.4050   -3.0140 C.ar   37  DC37        0.3531
    738  O2        -2.3960   18.6190   -2.2650 O.2    37  DC37       -0.2443
    739  N3        -0.5430   19.1500   -3.4700 N.ar   37  DC37       -0.1739
    740  C4         0.0670   20.0240   -4.2720 C.ar   37  DC37        0.1759
    741  N4         1.2980   19.7290   -4.6960 N.pl3  37  DC37       -0.1070
    742  C5        -0.5590   21.2330   -4.6700 C.ar   37  DC37        0.0566
    743  C6        -1.7930   21.4810   -4.2180 C.ar   37  DC37        0.0849
    744  P         -3.1330   24.5170    0.2090 P.3    38  DA38        0.2141
    745  OP1       -3.3080   25.7000    1.1000 O.3    38  DA38       -0.4373
    746  OP2       -2.0210   24.4740   -0.7660 O.2    38  DA38       -0.5172
    747  O5'       -3.0480   23.1730    1.0830 O.3    38  DA38       -0.3114
    748  C5'       -3.8980   22.9710    2.1880 C.3    38  DA38        0.1811
    749  C4'       -3.8870   21.5150    2.5760 C.3    38  DA38        0.1746
    750  O4'       -3.9780   20.7170    1.3740 O.3    38  DA38       -0.3327
    751  C3'       -2.6200   21.0090    3.2350 C.3    38  DA38        0.1558
    752  O3'       -2.5140   21.3970    4.6370 O.3    38  DA38       -0.3138
    753  C2'       -2.7910   19.5040    3.0060 C.3    38  DA38        0.0865
    754  C1'       -3.3350   19.4790    1.5860 C.3    38  DA38        0.2094
    755  N9        -2.2770   19.3370    0.6280 N.ar   38  DA38       -0.2714
    756  C8        -1.5760   20.3370    0.0070 C.ar   38  DA38        0.1815
    757  N7        -0.6040   19.9040   -0.7600 N.ar   38  DA38       -0.2193
    758  C5        -0.6700   18.5250   -0.6320 C.ar   38  DA38        0.1518
    759  C6         0.0900   17.4860   -1.1950 C.ar   38  DA38        0.1919
    760  N6         1.1090   17.6860   -2.0350 N.pl3  38  DA38       -0.1054
    761  N1        -0.2360   16.2190   -0.8610 N.ar   38  DA38       -0.2040
    762  C2        -1.2570   16.0190   -0.0200 C.ar   38  DA38        0.2016
    763  N3        -2.0450   16.9140    0.5720 N.ar   38  DA38       -0.2048
    764  C4        -1.6950   18.1620    0.2200 C.ar   38  DA38        0.1691
    765  P         -1.6000   20.8050    5.3490 P.3    39  DG39        0.2141
    766  OP1       -1.8830   21.3210    6.7240 O.3    39  DG39       -0.4373
    767  OP2       -0.3740   21.2390    4.6310 O.2    39  DG39       -0.5172
    768  O5'       -1.6150   19.2170    5.3890 O.3    39  DG39       -0.3114
    769  C5'       -2.7960   18.5030    5.7370 C.3    39  DG39        0.1811
    770  C4'       -2.6390   17.0510    5.3820 C.3    39  DG39        0.1746
    771  O4'       -2.3610   16.9410    3.9640 O.3    39  DG39       -0.3327
    772  C3'       -1.4720   16.3290    6.0210 C.3    39  DG39        0.1558
    773  O3'       -1.7270   15.9040    7.3390 O.3    39  DG39       -0.3138
    774  C2'       -1.2450   15.1690    5.0700 C.3    39  DG39        0.0865
    775  C1'       -1.5060   15.8320    3.7270 C.3    39  DG39        0.2094
    776  N9        -0.2890   16.1600    3.1890 N.ar   39  DG39       -0.2713
    777  C8         0.1040   17.4660    3.0220 C.ar   39  DG39        0.1816
    778  N7         1.2290   17.5870    2.3710 N.ar   39  DG39       -0.2173
    779  C5         1.6030   16.2860    2.0890 C.ar   39  DG39        0.1748
    780  C6         2.7380   15.7800    1.4040 C.ar   39  DG39        0.3023
    781  O6         3.6690   16.4140    0.8930 O.2    39  DG39       -0.2633
    782  N1         2.7310   14.3890    1.3410 N.ar   39  DG39       -0.1709
    783  C2         1.7510   13.5850    1.8730 C.ar   39  DG39        0.2606
    784  N2         1.9170   12.2660    1.7110 N.pl3  39  DG39       -0.0859
    785  N3         0.6910   14.0410    2.5120 N.ar   39  DG39       -0.1918
    786  C4         0.6780   15.3890    2.5860 C.ar   39  DG39        0.1722
    787  P         -0.6060   15.9360    8.2890 P.3    40  DC40        0.2141
    788  OP1       -1.5540   15.7200    9.4100 O.3    40  DC40       -0.4373
    789  OP2        0.3100   17.1030    8.2630 O.2    40  DC40       -0.5172
    790  O5'        0.3510   14.6620    8.1590 O.3    40  DC40       -0.3114
    791  C5'       -0.2860   13.3990    8.2480 C.3    40  DC40        0.1811
    792  C4'        0.5380   12.2970    7.6410 C.3    40  DC40        0.1746
    793  O4'        0.8100   12.5780    6.2460 O.3    40  DC40       -0.3327
    794  C3'        1.9060   12.0740    8.2520 C.3    40  DC40        0.1558
    795  O3'        1.8450   11.2980    9.4310 O.3    40  DC40       -0.3138
    796  C2'        2.6120   11.3390    7.1340 C.3    40  DC40        0.0866
    797  C1'        2.0810   12.0780    5.9070 C.3    40  DC40        0.2106
    798  N1         2.9620   13.2440    5.5330 N.ar   40  DC40       -0.2556
    799  C2         4.1430   12.9940    4.8250 C.ar   40  DC40        0.3531
    800  O2         4.4430   11.8180    4.5590 O.2    40  DC40       -0.2443
    801  N3         4.9220   14.0370    4.4530 N.ar   40  DC40       -0.1739
    802  C4         4.5610   15.2830    4.7630 C.ar   40  DC40        0.1759
    803  N4         5.3610   16.2800    4.3750 N.pl3  40  DC40       -0.1070
    804  C5         3.3680   15.5580    5.4790 C.ar   40  DC40        0.0566
    805  C6         2.6020   14.5240    5.8450 C.ar   40  DC40        0.0849
    806  P          2.9520   11.2430   10.5080 P.3    41  DT41        0.2141
    807  OP1        1.9780   10.4150   11.2420 O.3    41  DT41       -0.4373
    808  OP2        3.4270   12.5300   11.1000 O.2    41  DT41       -0.5172
    809  O5'        4.1990   10.3310   10.1230 O.3    41  DT41       -0.3114
    810  C5'        4.1250    9.4090    9.0460 C.3    41  DT41        0.1811
    811  C4'        5.4650    9.3020    8.3720 C.3    41  DT41        0.1746
    812  O4'        5.8420   10.6010    7.8600 O.3    41  DT41       -0.3327
    813  C3'        6.6090    8.9320    9.2920 C.3    41  DT41        0.1558
    814  O3'        6.6530    7.5160    9.4460 O.3    41  DT41       -0.3138
    815  C2'        7.8300    9.4880    8.5620 C.3    41  DT41        0.0866
    816  C1'        7.2520   10.7220    7.8500 C.3    41  DT41        0.2106
    817  N1         7.5290   12.0720    7.5950 N.ar   41  DT41       -0.2559
    818  C2         8.6850   12.4770    6.9540 C.ar   41  DT41        0.3545
    819  O2         9.5540   11.7000    6.5980 O.2    41  DT41       -0.2443
    820  N3         8.7890   13.8300    6.7430 N.ar   41  DT41       -0.1533
    821  C4         7.8750   14.7990    7.1010 C.ar   41  DT41        0.2804
    822  O4         8.1090   15.9770    6.8430 O.2    41  DT41       -0.2654
    823  C5         6.7020   14.3000    7.7630 C.ar   41  DT41        0.0534
    824  C6         6.5750   12.9880    7.9800 C.ar   41  DT41        0.0824
    825  C7         5.6480   15.2760    8.1930 C.3    41  DT41        0.0377
    826  P          6.4150    6.5560   11.0760 P.3    42  DT42        0.2141
    827  OP1        7.8830    6.3240   11.0170 O.3    42  DT42       -0.4373
    828  OP2        5.4790    5.4870   10.6590 O.2    42  DT42       -0.5172
    829  O5'        6.0200    7.0000   12.5590 O.3    42  DT42       -0.3114
    830  C5'        6.7140    8.0540   13.2200 C.3    42  DT42        0.1811
    831  C4'        5.9200    8.5320   14.4200 C.3    42  DT42        0.1746
    832  O4'        4.6620    9.1220   13.9800 O.3    42  DT42       -0.3327
    833  C3'        5.5260    7.4650   15.4360 C.3    42  DT42        0.1558
    834  O3'        6.5680    7.2190   16.3920 O.3    42  DT42       -0.3138
    835  C2'        4.2950    8.0800   16.0950 C.3    42  DT42        0.0866
    836  C1'        3.6560    8.8590   14.9350 C.3    42  DT42        0.2106
    837  N1         2.5240    8.3110   14.2680 N.ar   42  DT42       -0.2574
    838  C2         1.3060    8.4250   14.9110 C.ar   42  DT42        0.3310
    839  O2         1.1510    9.0740   15.9300 O.3    42  DT42       -0.3352
    840  N3         0.2690    7.7480   14.3150 N.ar   42  DT42       -0.1549
    841  C4         0.3270    6.9860   13.1670 C.ar   42  DT42        0.2804
    842  O4        -0.6920    6.4380   12.7530 O.2    42  DT42       -0.2654
    843  C5         1.6260    6.9160   12.5590 C.ar   42  DT42        0.0534
    844  C6         2.6520    7.5640   13.1170 C.ar   42  DT42        0.0824
    845  C7         1.7920    6.1100   11.3050 C.3    42  DT42        0.0377
    846  P          6.5610    5.8730   17.3280 P.3    43  DA43        0.2141
    847  OP1        7.7010    5.1650   17.9760 O.3    43  DA43       -0.4373
    848  OP2        5.5430    5.0950   16.5820 O.2    43  DA43       -0.5172
    849  O5'        5.7420    6.6170   18.4750 O.3    43  DA43       -0.3114
    850  C5'        6.3800    6.8670   19.7170 C.3    43  DA43        0.1811
    851  C4'        5.5080    7.6680   20.6500 C.3    43  DA43        0.1744
    852  O4'        4.8530    8.7540   19.9390 O.3    43  DA43       -0.3349
    853  C3'        4.3630    6.9340   21.2980 C.3    43  DA43        0.1555
    854  O3'        4.8240    6.1660   22.3860 O.3    43  DA43       -0.3139
    855  C2'        3.4470    8.0670   21.7250 C.3    43  DA43        0.0835
    856  C1'        3.5970    9.0420   20.5530 C.3    43  DA43        0.1973
    857  N9         2.4860    8.8080   19.5840 N.pl3  43  DA43       -0.2475
    858  C8         2.6440    8.3780   18.2920 C.3    43  DA43        0.2422
    859  N7         1.5430    8.4240   17.5810 N.4    43  DA43       -0.1654
    860  C5         0.5970    8.9170   18.4650 C.ar   43  DA43        0.1614
    861  C6        -0.7730    9.2010   18.3240 C.ar   43  DA43        0.1927
    862  N6        -1.4520    9.0200   17.1890 N.pl3  43  DA43       -0.1054
    863  N1        -1.4270    9.6820   19.4020 N.ar   43  DA43       -0.2040
    864  C2        -0.7460    9.8640   20.5390 C.ar   43  DA43        0.2014
    865  N3         0.5410    9.6360   20.7940 N.ar   43  DA43       -0.2072
    866  C4         1.1630    9.1570   19.7030 C.ar   43  DA43        0.1582
    867  P          4.3420    4.5570   22.4720 P.3    44  DT44        0.2141
    868  OP1        5.0730    3.6260   23.3570 O.3    44  DT44       -0.4373
    869  OP2        3.9470    4.1470   21.1040 O.2    44  DT44       -0.5172
    870  O5'        3.0290    5.0210   23.2370 O.3    44  DT44       -0.3114
    871  C5'        3.0520    5.1150   24.6450 C.3    44  DT44        0.1811
    872  C4'        1.8990    5.9810   25.0930 C.3    44  DT44        0.1746
    873  O4'        1.6480    7.0050   24.0980 O.3    44  DT44       -0.3327
    874  C3'        0.5650    5.2700   25.1390 C.3    44  DT44        0.1558
    875  O3'        0.4780    4.4480   26.2730 O.3    44  DT44       -0.3138
    876  C2'       -0.3650    6.4710   25.2060 C.3    44  DT44        0.0866
    877  C1'        0.2630    7.3320   24.1130 C.3    44  DT44        0.2106
    878  N1        -0.3130    7.0930   22.8250 N.ar   44  DT44       -0.2559
    879  C2        -1.6130    7.4260   22.4910 C.ar   44  DT44        0.3545
    880  O2        -2.4300    7.8110   23.3080 O.2    44  DT44       -0.2443
    881  N3        -1.9240    7.2900   21.1600 N.ar   44  DT44       -0.1533
    882  C4        -1.0850    6.8640   20.1510 C.ar   44  DT44        0.2804
    883  O4        -1.5090    6.7930   19.0000 O.2    44  DT44       -0.2654
    884  C5         0.2470    6.5360   20.5770 C.ar   44  DT44        0.0534
    885  C6         0.5760    6.6600   21.8660 C.ar   44  DT44        0.0824
    886  C7         1.2350    6.0620   19.5530 C.3    44  DT44        0.0377
    887  P         -0.0200    3.1810   26.0350 P.3    45  DT45        0.2141
    888  OP1        0.0430    2.4290   27.3050 O.3    45  DT45       -0.4373
    889  OP2        0.4530    2.5830   24.7690 O.2    45  DT45       -0.5172
    890  O5'       -1.5630    3.4790   25.7370 O.3    45  DT45       -0.3114
    891  C5'       -2.4320    3.9370   26.7630 C.3    45  DT45        0.1811
    892  C4'       -3.7800    4.3530   26.2230 C.3    45  DT45        0.1746
    893  O4'       -3.6610    5.3140   25.1370 O.3    45  DT45       -0.3327
    894  C3'       -4.5870    3.2450   25.5830 C.3    45  DT45        0.1558
    895  O3'       -5.1290    2.3450   26.5240 O.3    45  DT45       -0.3138
    896  C2'       -5.6240    4.0360   24.8080 C.3    45  DT45        0.0866
    897  C1'       -4.7360    5.1370   24.2310 C.3    45  DT45        0.2106
    898  N1        -4.2480    4.8340   22.8250 N.ar   45  DT45       -0.2559
    899  C2        -5.1580    5.0220   21.8020 C.ar   45  DT45        0.3545
    900  O2        -6.3250    5.3100   21.9970 O.2    45  DT45       -0.2443
    901  N3        -4.6500    4.8580   20.5360 N.ar   45  DT45       -0.1533
    902  C4        -3.3530    4.5330   20.1980 C.ar   45  DT45        0.2804
    903  O4        -3.0470    4.4230   19.0130 O.2    45  DT45       -0.2654
    904  C5        -2.4690    4.3540   21.3150 C.ar   45  DT45        0.0534
    905  C6        -2.9370    4.5060   22.5570 C.ar   45  DT45        0.0824
    906  C7        -1.0360    3.9980   21.0500 C.3    45  DT45        0.0377
    907  P         -4.6750    0.7620   26.2790 P.3    46  DC46        0.2141
    908  OP1       -4.1240   -0.1420   27.3140 O.3    46  DC46       -0.4373
    909  OP2       -4.3180    0.5650   24.8550 O.2    46  DC46       -0.5172
    910  O5'       -6.2740    0.6900   26.2980 O.3    46  DC46       -0.3114
    911  C5'       -6.9300   -0.4460   25.7560 C.3    46  DC46        0.1811
    912  C4'       -8.0620   -0.0410   24.8480 C.3    46  DC46        0.1746
    913  O4'       -7.6620    1.1030   24.0530 O.3    46  DC46       -0.3327
    914  C3'       -8.4760   -1.0810   23.8200 C.3    46  DC46        0.1558
    915  O3'       -9.3440   -2.0700   24.3390 O.3    46  DC46       -0.3138
    916  C2'       -9.1070   -0.2390   22.7220 C.3    46  DC46        0.0866
    917  C1'       -8.2250    1.0110   22.7600 C.3    46  DC46        0.2106
    918  N1        -7.1760    1.0030   21.7540 N.ar   46  DC46       -0.2556
    919  C2        -7.4590    1.0230   20.3830 C.ar   46  DC46        0.3531
    920  O2        -8.6420    0.9160   20.0160 O.2    46  DC46       -0.2443
    921  N3        -6.4400    1.1560   19.5010 N.ar   46  DC46       -0.1739
    922  C4        -5.1860    1.2660   19.9410 C.ar   46  DC46        0.1759
    923  N4        -4.2150    1.3950   19.0350 N.pl3  46  DC46       -0.1070
    924  C5        -4.8780    1.2480   21.3260 C.ar   46  DC46        0.0566
    925  C6        -5.8870    1.1170   22.1940 C.ar   46  DC46        0.0849
    926  P         -9.4950   -3.4790   23.5150 P.3    47  DA47        0.2141
    927  OP1       -9.5730   -4.7180   24.3510 O.3    47  DA47       -0.4373
    928  OP2       -8.5900   -3.4570   22.3390 O.2    47  DA47       -0.5172
    929  O5'      -10.9500   -3.1340   22.9790 O.3    47  DA47       -0.3114
    930  C5'      -11.3730   -3.6200   21.7140 C.3    47  DA47        0.1811
    931  C4'      -11.6630   -2.4770   20.7900 C.3    47  DA47        0.1746
    932  O4'      -10.5850   -1.5100   20.8220 O.3    47  DA47       -0.3327
    933  C3'      -11.7310   -2.9000   19.3470 C.3    47  DA47        0.1558
    934  O3'      -12.9510   -3.5370   19.0600 O.3    47  DA47       -0.3138
    935  C2'      -11.4210   -1.6120   18.6090 C.3    47  DA47        0.0865
    936  C1'      -10.3570   -1.0100   19.5170 C.3    47  DA47        0.2094
    937  N9        -8.9620   -1.5710   19.1530 N.ar   47  DA47       -0.2714
    938  C8        -8.1450   -2.2280   20.0360 C.ar   47  DA47        0.1815
    939  N7        -6.9690   -2.5330   19.5420 N.ar   47  DA47       -0.2193
    940  C5        -7.0160   -2.0440   18.2460 C.ar   47  DA47        0.1518
    941  C6        -6.0780   -2.0490   17.1980 C.ar   47  DA47        0.1919
    942  N6        -4.8600   -2.5860   17.2990 N.pl3  47  DA47       -0.1054
    943  N1        -6.4410   -1.4780   16.0300 N.ar   47  DA47       -0.2040
    944  C2        -7.6620   -0.9400   15.9300 C.ar   47  DA47        0.2016
    945  N3        -8.6280   -0.8730   16.8430 N.ar   47  DA47       -0.2048
    946  C4        -8.2370   -1.4500   17.9920 C.ar   47  DA47        0.1691
    947  P        -12.8650   -4.7430   18.6010 P.3    48  DA48        0.2141
    948  OP1      -14.1790   -5.4070   18.5360 O.2    48  DA48       -0.5172
    949  OP2      -11.7610   -5.3780   19.3410 O.3    48  DA48       -0.4373
    950  O5'      -12.2920   -4.5620   17.1210 O.3    48  DA48       -0.3114
    951  C5'      -13.1920   -4.4220   16.0350 C.3    48  DA48        0.1811
    952  C4'      -12.4960   -3.8500   14.8280 C.3    48  DA48        0.1746
    953  O4'      -11.4090   -3.0030   15.2710 O.3    48  DA48       -0.3327
    954  C3'      -11.7860   -4.8370   13.9200 C.3    48  DA48        0.1558
    955  O3'      -12.6460   -5.5620   13.0680 O.3    48  DA48       -0.3138
    956  C2'      -10.7990   -3.9400   13.1870 C.3    48  DA48        0.0865
    957  C1'      -10.3380   -3.0850   14.3550 C.3    48  DA48        0.2094
    958  N9        -9.1750   -3.8120   15.0040 N.ar   48  DA48       -0.2714
    959  C8        -9.2140   -4.2120   16.3150 C.ar   48  DA48        0.1815
    960  N7        -8.0400   -4.5310   16.8060 N.ar   48  DA48       -0.2193
    961  C5        -7.1710   -4.3280   15.7450 C.ar   48  DA48        0.1518
    962  C6        -5.7800   -4.4870   15.6190 C.ar   48  DA48        0.1919
    963  N6        -4.9900   -4.9040   16.6110 N.pl3  48  DA48       -0.1054
    964  N1        -5.2220   -4.1990   14.4230 N.ar   48  DA48       -0.2040
    965  C2        -6.0150   -3.7800   13.4300 C.ar   48  DA48        0.2016
    966  N3        -7.3320   -3.5910   13.4280 N.ar   48  DA48       -0.2048
    967  C4        -7.8560   -3.8870   14.6290 C.ar   48  DA48        0.1691
    968  P        -12.4840   -7.2070   13.0100 P.3    49  DT49        0.2141
    969  OP1      -13.8310   -7.7440   12.6930 O.2    49  DT49       -0.5172
    970  OP2      -11.9780   -7.2780   14.4040 O.3    49  DT49       -0.4373
    971  O5'      -11.4320   -7.9270   12.0480 O.3    49  DT49       -0.3114
    972  C5'      -11.6220   -7.9150   10.6270 C.3    49  DT49        0.1811
    973  C4'      -10.3080   -7.7060    9.9060 C.3    49  DT49        0.1746
    974  O4'       -9.4190   -6.8750   10.7030 O.3    49  DT49       -0.3327
    975  C3'       -9.4670   -8.9310    9.6000 C.3    49  DT49        0.1558
    976  O3'       -9.9250   -9.6150    8.4440 O.3    49  DT49       -0.3138
    977  C2'       -8.0870   -8.3230    9.3760 C.3    49  DT49        0.0866
    978  C1'       -8.0680   -7.2030   10.4100 C.3    49  DT49        0.2106
    979  N1        -7.3890   -7.6720   11.6700 N.ar   49  DT49       -0.2559
    980  C2        -6.0140   -7.7820   11.7540 C.ar   49  DT49        0.3545
    981  O2        -5.2800   -7.7010   10.7840 O.2    49  DT49       -0.2443
    982  N3        -5.5240   -7.9940   13.0200 N.ar   49  DT49       -0.1533
    983  C4        -6.2540   -8.1030   14.1850 C.ar   49  DT49        0.2804
    984  O4        -5.6710   -8.2930   15.2490 O.2    49  DT49       -0.2654
    985  C5        -7.6750   -7.9780   14.0150 C.ar   49  DT49        0.0534
    986  C6        -8.1780   -7.7720   12.7950 C.ar   49  DT49        0.0824
    987  C7        -8.5570   -8.0830   15.2240 C.3    49  DT49        0.0377
    988  P         -9.4720  -10.9480    8.2770 P.3    50  DT50        0.2141
    989  OP1      -10.1930  -11.1770    7.0120 O.2    50  DT50       -0.5172
    990  OP2       -9.6180  -11.8960    9.4050 O.3    50  DT50       -0.4373
    991  O5'       -7.9020  -10.8160    7.9940 O.3    50  DT50       -0.3114
    992  C5'       -7.4770  -10.5790    6.6690 C.3    50  DT50        0.1811
    993  C4'       -5.9820  -10.3010    6.5440 C.3    50  DT50        0.1746
    994  O4'       -5.4830   -9.4960    7.6500 O.3    50  DT50       -0.3327
    995  C3'       -5.1100  -11.5490    6.5810 C.3    50  DT50        0.1558
    996  O3'       -5.1400  -12.2430    5.3460 O.3    50  DT50       -0.3138
    997  C2'       -3.7600  -10.9260    6.8830 C.3    50  DT50        0.0866
    998  C1'       -4.1490   -9.8930    7.9370 C.3    50  DT50        0.2106
    999  N1        -4.1010  -10.4740    9.3400 N.ar   50  DT50       -0.2559
   1000  C2        -2.8690  -10.6180    9.9490 C.ar   50  DT50        0.3545
   1001  O2        -1.8170  -10.3800    9.3830 O.2    50  DT50       -0.2443
   1002  N3        -2.9120  -11.0530   11.2520 N.ar   50  DT50       -0.1533
   1003  C4        -4.0390  -11.3520   11.9890 C.ar   50  DT50        0.2804
   1004  O4        -3.9180  -11.7310   13.1520 O.2    50  DT50       -0.2654
   1005  C5        -5.2790  -11.1790   11.2870 C.ar   50  DT50        0.0534
   1006  C6        -5.2660  -10.7570   10.0190 C.ar   50  DT50        0.0824
   1007  C7        -6.5620  -11.4800   12.0040 C.3    50  DT50        0.0377
   1008  P         -4.9130  -13.4480    5.4710 P.3    51  DA51        0.2141
   1009  OP1       -5.1830  -13.7670    4.0490 O.2    51  DA51       -0.5172
   1010  OP2       -5.1890  -14.4510    6.5300 O.3    51  DA51       -0.4373
   1011  O5'       -3.3860  -12.9890    5.6310 O.3    51  DA51       -0.3114
   1012  C5'       -2.3520  -13.7290    4.9900 C.3    51  DA51        0.1811
   1013  C4'       -0.9810  -13.3910    5.5430 C.3    51  DA51        0.1746
   1014  O4'       -1.1100  -12.5500    6.7160 O.3    51  DA51       -0.3327
   1015  C3'       -0.1920  -14.5950    6.0310 C.3    51  DA51        0.1558
   1016  O3'        0.5090  -15.2020    4.9620 O.3    51  DA51       -0.3138
   1017  C2'        0.7370  -13.9660    7.0650 C.3    51  DA51        0.0865
   1018  C1'       -0.2220  -12.9850    7.7340 C.3    51  DA51        0.2094
   1019  N9        -1.0580  -13.6030    8.9220 N.ar   51  DA51       -0.2714
   1020  C8        -2.4140  -13.8000    8.9620 C.ar   51  DA51        0.1815
   1021  N7        -2.8700  -14.0990   10.1560 N.ar   51  DA51       -0.2193
   1022  C5        -1.7370  -14.1000   10.9530 C.ar   51  DA51        0.1518
   1023  C6        -1.5460  -14.3440   12.3250 C.ar   51  DA51        0.1919
   1024  N6        -2.5360  -14.6470   13.1670 N.pl3  51  DA51       -0.1054
   1025  N1        -0.2860  -14.2660   12.8050 N.ar   51  DA51       -0.2040
   1026  C2         0.7060  -13.9610   11.9600 C.ar   51  DA51        0.2016
   1027  N3         0.6500  -13.7100   10.6540 N.ar   51  DA51       -0.2048
   1028  C4        -0.6140  -13.7970   10.2080 C.ar   51  DA51        0.1691
   1029  P          0.5480  -16.8200    4.8590 P.3    52  DC52        0.2141
   1030  OP1        0.9760  -17.3330    3.5380 O.2    52  DC52       -0.5172
   1031  OP2       -0.6510  -17.3570    5.5390 O.3    52  DC52       -0.4373
   1032  O5'        1.7020  -17.0580    5.9350 O.3    52  DC52       -0.3114
   1033  C5'        2.9850  -16.4950    5.7190 C.3    52  DC52        0.1811
   1034  C4'        3.8540  -16.7000    6.9280 C.3    52  DC52        0.1746
   1035  O4'        3.3420  -15.9180    8.0390 O.3    52  DC52       -0.3327
   1036  C3'        3.8720  -18.1160    7.4760 C.3    52  DC52        0.1558
   1037  O3'        4.6990  -18.9940    6.7300 O.3    52  DC52       -0.3138
   1038  C2'        4.3480  -17.8790    8.9000 C.3    52  DC52        0.0866
   1039  C1'        3.5760  -16.6070    9.2490 C.3    52  DC52        0.2106
   1040  N1         2.3170  -16.8430    9.9530 N.ar   52  DC52       -0.2556
   1041  C2         2.3180  -16.8510   11.3530 C.ar   52  DC52        0.3531
   1042  O2         3.3990  -16.7180   11.9500 O.2    52  DC52       -0.2443
   1043  N3         1.1450  -17.0060   12.0120 N.ar   52  DC52       -0.1739
   1044  C4         0.0090  -17.1470   11.3280 C.ar   52  DC52        0.1759
   1045  N4        -1.1230  -17.2960   12.0210 N.pl3  52  DC52       -0.1070
   1046  C5        -0.0130  -17.1410    9.9100 C.ar   52  DC52        0.0566
   1047  C6         1.1470  -16.9890    9.2630 C.ar   52  DC52        0.0849
   1048  P          4.1530  -20.4330    6.2270 P.3    53  DG53        0.2141
   1049  OP1        4.3870  -21.2790    5.0340 O.2    53  DG53       -0.5172
   1050  OP2        2.8140  -20.4230    6.8580 O.3    53  DG53       -0.4373
   1051  O5'        5.1320  -20.8760    7.4150 O.3    53  DG53       -0.3114
   1052  C5'        4.7920  -22.0410    8.1500 C.3    53  DG53        0.1811
   1053  C4'        5.2910  -22.0190    9.5770 C.3    53  DG53        0.1746
   1054  O4'        4.9570  -20.7640   10.2270 O.3    53  DG53       -0.3327
   1055  C3'        4.6610  -23.0630   10.4850 C.3    53  DG53        0.1558
   1056  O3'        5.1940  -24.3640   10.3120 O.3    53  DG53       -0.3138
   1057  C2'        4.8700  -22.4780   11.8770 C.3    53  DG53        0.0865
   1058  C1'        4.6610  -20.9900   11.5930 C.3    53  DG53        0.2094
   1059  N9         3.2970  -20.5700   11.8670 N.ar   53  DG53       -0.2713
   1060  C8         2.3950  -20.1390   10.9240 C.ar   53  DG53        0.1816
   1061  N7         1.2330  -19.8230   11.4290 N.ar   53  DG53       -0.2173
   1062  C5         1.3740  -20.0550   12.7850 C.ar   53  DG53        0.1748
   1063  C6         0.4490  -19.8960   13.8490 C.ar   53  DG53        0.3023
   1064  O6        -0.7220  -19.5010   13.7940 O.2    53  DG53       -0.2633
   1065  N1         1.0030  -20.2490   15.0760 N.ar   53  DG53       -0.1709
   1066  C2         2.2890  -20.6990   15.2560 C.ar   53  DG53        0.2606
   1067  N2         2.6430  -20.9890   16.5160 N.pl3  53  DG53       -0.0859
   1068  N3         3.1590  -20.8530   14.2780 N.ar   53  DG53       -0.1918
   1069  C4         2.6430  -20.5170   13.0760 C.ar   53  DG53        0.1722
   1070  P          4.1980  -25.4800    9.7950 P.3    54  DT54        0.2141
   1071  OP1        4.8540  -26.7480    9.3870 O.3    54  DT54       -0.4373
   1072  OP2        2.9420  -25.0530    9.1260 O.2    54  DT54       -0.5172
   1073  O5'        3.9420  -25.5540   11.3640 O.3    54  DT54       -0.3114
   1074  C5'        5.0470  -25.6970   12.2730 C.3    54  DT54        0.1811
   1075  C4'        4.5820  -25.5850   13.7060 C.3    54  DT54        0.1746
   1076  O4'        3.9920  -24.2810   13.9530 O.3    54  DT54       -0.3327
   1077  C3'        3.5130  -26.5740   14.1330 C.3    54  DT54        0.1558
   1078  O3'        4.0730  -27.8330   14.4790 O.3    54  DT54       -0.3138
   1079  C2'        2.8760  -25.8760   15.3260 C.3    54  DT54        0.0866
   1080  C1'        2.9380  -24.4090   14.8960 C.3    54  DT54        0.2106
   1081  N1         1.6700  -23.9590   14.2280 N.ar   54  DT54       -0.2559
   1082  C2         0.6820  -23.4550   15.0530 C.ar   54  DT54        0.3545
   1083  O2         0.7990  -23.3830   16.2630 O.2    54  DT54       -0.2443
   1084  N3        -0.4560  -23.0350   14.4070 N.ar   54  DT54       -0.1533
   1085  C4        -0.7000  -23.0680   13.0500 C.ar   54  DT54        0.2804
   1086  O4        -1.7720  -22.6540   12.6170 O.2    54  DT54       -0.2654
   1087  C5         0.3730  -23.6060   12.2610 C.ar   54  DT54        0.0534
   1088  C6         1.4910  -24.0210   12.8640 C.ar   54  DT54        0.0824
   1089  C7         0.2040  -23.6850   10.7730 C.3    54  DT54        0.0377
   1090  P          3.0930  -29.3130   14.3200 P.3    55  DC55        0.2141
   1091  OP1        3.6850  -30.6470   14.6070 O.3    55  DC55       -0.4373
   1092  OP2        1.9070  -29.2100   13.4260 O.2    55  DC55       -0.5172
   1093  O5'        2.7690  -28.6370   15.7280 O.3    55  DC55       -0.3114
   1094  C5'        3.6310  -28.8220   16.8470 C.3    55  DC55        0.1811
   1095  C4'        3.0430  -28.1730   18.0830 C.3    55  DC55        0.1746
   1096  O4'        2.9050  -26.7420   17.8750 O.3    55  DC55       -0.3327
   1097  C3'        1.6620  -28.6260   18.5420 C.3    55  DC55        0.1558
   1098  O3'        1.7420  -29.7880   19.3540 O.3    55  DC55       -0.3138
   1099  C2'        1.1950  -27.4450   19.3830 C.3    55  DC55        0.0866
   1100  C1'        1.8410  -26.2550   18.6710 C.3    55  DC55        0.2106
   1101  N1         0.9640  -25.6240   17.8650 N.ar   55  DC55       -0.2556
   1102  C2         0.0830  -24.7190   18.4670 C.ar   55  DC55        0.3531
   1103  O2         0.3270  -24.3230   19.6200 O.2    55  DC55       -0.2443
   1104  N3        -1.0080  -24.3050   17.7800 N.ar   55  DC55       -0.1739
   1105  C4        -1.2310  -24.7580   16.5460 C.ar   55  DC55        0.1759
   1106  N4        -2.3190  -24.3210   15.9070 N.pl3  55  DC55       -0.1070
   1107  C5        -0.3500  -25.6750   15.9180 C.ar   55  DC55        0.0566
   1108  C6         0.7260  -26.0820   16.6000 C.ar   55  DC55        0.0849
   1109  P          0.7350  -31.2080   19.0650 P.3    56  DT56        0.2141
   1110  OP1        1.2760  -32.6000   19.2450 O.3    56  DT56       -0.4373
   1111  OP2        0.4950  -30.7660   17.6410 O.2    56  DT56       -0.5172
   1112  O5'       -0.6510  -30.9080   19.8520 O.3    56  DT56       -0.3114
   1113  C5'       -0.3600  -30.8470   21.2920 C.3    56  DT56        0.1811
   1114  C4'       -1.3210  -29.8180   21.8520 C.3    56  DT56        0.1746
   1115  O4'       -1.1210  -28.5510   21.2570 O.3    56  DT56       -0.3327
   1116  C3'       -2.7860  -30.1300   21.5820 C.3    56  DT56        0.1558
   1117  O3'       -3.2700  -31.1780   22.4040 O.3    56  DT56       -0.3138
   1118  C2'       -3.4190  -28.7740   21.8280 C.3    56  DT56        0.0866
   1119  C1'       -2.3550  -27.8490   21.2450 C.3    56  DT56        0.2106
   1120  N1        -2.9400  -27.5030   19.9740 N.ar   56  DT56       -0.2559
   1121  C2        -3.9410  -26.5550   19.8750 C.ar   56  DT56        0.3545
   1122  O2        -4.4850  -26.0600   20.8460 O.2    56  DT56       -0.2443
   1123  N3        -4.2840  -26.2040   18.5920 N.ar   56  DT56       -0.1533
   1124  C4        -3.7400  -26.6950   17.4230 C.ar   56  DT56        0.2804
   1125  O4        -4.1530  -26.2810   16.3430 O.2    56  DT56       -0.2654
   1126  C5        -2.7080  -27.6760   17.6090 C.ar   56  DT56        0.0534
   1127  C6        -2.3540  -28.0360   18.8460 C.ar   56  DT56        0.0824
   1128  C7        -2.0540  -28.2710   16.3980 C.3    56  DT56        0.0377
   1129  P         -4.6100  -32.1080   21.9600 P.3    57  DG57        0.2141
   1130  OP1       -4.4090  -33.1050   23.0340 O.3    57  DG57       -0.4373
   1131  OP2       -4.5760  -32.5470   20.5460 O.2    57  DG57       -0.5172
   1132  O5'       -6.0060  -31.3570   22.1740 O.3    57  DG57       -0.3114
   1133  C5'       -6.4670  -30.9870   23.4970 C.3    57  DG57        0.1811
   1134  C4'       -7.7500  -30.1850   23.4170 C.3    57  DG57        0.1746
   1135  O4'       -7.5150  -28.9540   22.6850 O.3    57  DG57       -0.3327
   1136  C3'       -8.9290  -30.8190   22.6980 C.3    57  DG57        0.1558
   1137  O3'       -9.6600  -31.7060   23.5220 O.3    57  DG57       -0.3138
   1138  C2'       -9.7720  -29.6090   22.3290 C.3    57  DG57        0.0865
   1139  C1'       -8.7020  -28.5650   22.0070 C.3    57  DG57        0.2094
   1140  N9        -8.4160  -28.4420   20.5300 N.ar   57  DG57       -0.2713
   1141  C8        -7.4070  -29.0170   19.7950 C.ar   57  DG57        0.1816
   1142  N7        -7.4380  -28.6880   18.5320 N.ar   57  DG57       -0.2173
   1143  C5        -8.5290  -27.8450   18.4240 C.ar   57  DG57        0.1748
   1144  C6        -9.0670  -27.1720   17.2970 C.ar   57  DG57        0.3023
   1145  O6        -8.6630  -27.1920   16.1280 O.2    57  DG57       -0.2633
   1146  N1       -10.1870  -26.4150   17.6290 N.ar   57  DG57       -0.1709
   1147  C2       -10.7230  -26.3180   18.8910 C.ar   57  DG57        0.2606
   1148  N2       -11.8050  -25.5380   19.0160 N.pl3  57  DG57       -0.0859
   1149  N3       -10.2350  -26.9380   19.9470 N.ar   57  DG57       -0.1918
   1150  C4        -9.1470  -27.6800   19.6480 C.ar   57  DG57        0.1722
   1151  P        -10.7120  -32.8160   22.8290 P.3    58  DC58        0.2141
   1152  OP1      -11.0950  -33.7880   23.8800 O.3    58  DC58       -0.4373
   1153  OP2       -9.7500  -33.1900   21.7680 O.2    58  DC58       -0.5172
   1154  O5'      -12.0240  -32.3600   22.0300 O.3    58  DC58       -0.3114
   1155  C5'      -13.1160  -31.8090   22.7510 C.3    58  DC58        0.1811
   1156  C4'      -13.8500  -30.7680   21.9440 C.3    58  DC58        0.1746
   1157  O4'      -12.9260  -29.7580   21.4690 O.3    58  DC58       -0.3327
   1158  C3'      -14.5280  -31.2620   20.6780 C.3    58  DC58        0.1558
   1159  O3'      -15.7800  -31.8630   20.9340 O.3    58  DC58       -0.3138
   1160  C2'      -14.6340  -30.0070   19.8320 C.3    58  DC58        0.0866
   1161  C1'      -13.3310  -29.3030   20.1990 C.3    58  DC58        0.2106
   1162  N1       -12.3920  -29.5390   19.0000 N.ar   58  DC58       -0.2556
   1163  C2       -12.5400  -28.9400   17.7440 C.ar   58  DC58        0.3531
   1164  O2       -13.5490  -28.2470   17.5270 O.2    58  DC58       -0.2443
   1165  N3       -11.5840  -29.1330   16.8040 N.ar   58  DC58       -0.1739
   1166  C4       -10.5180  -29.8860   17.0820 C.ar   58  DC58        0.1759
   1167  N4        -9.6020  -30.0480   16.1240 N.pl3  58  DC58       -0.1070
   1168  C5       -10.3500  -30.5010   18.3480 C.ar   58  DC58        0.0566
   1169  C6       -11.2960  -30.3080   19.2740 C.ar   58  DC58        0.0849
   1170  P        -15.6840  -33.2670   20.9870 P.3    59  DA59        0.2141
   1171  OP1      -16.1040  -34.2620   22.0010 O.3    59  DA59       -0.4373
   1172  OP2      -14.8850  -33.6770   19.8090 O.2    59  DA59       -0.5172
   1173  O5'      -16.9630  -32.5330   20.3700 O.3    59  DA59       -0.3114
   1174  C5'      -17.6870  -33.1690   19.3330 C.3    59  DA59        0.1811
   1175  C4'      -17.8090  -32.2850   18.1190 C.3    59  DA59        0.1746
   1176  O4'      -16.6330  -31.4460   17.9740 O.3    59  DA59       -0.3327
   1177  C3'      -17.8790  -33.0220   16.7970 C.3    59  DA59        0.1558
   1178  O3'      -19.1490  -33.5860   16.5460 O.3    59  DA59       -0.3138
   1179  C2'      -17.4530  -31.9460   15.8110 C.3    59  DA59        0.0865
   1180  C1'      -16.3310  -31.2830   16.6050 C.3    59  DA59        0.2094
   1181  N9       -15.0570  -31.9230   16.3250 N.ar   59  DA59       -0.2714
   1182  C8       -14.2870  -32.3210   17.3870 C.ar   59  DA59        0.1815
   1183  N7       -13.0530  -32.6250   17.0620 N.ar   59  DA59       -0.2193
   1184  C5       -13.0090  -32.4140   15.6930 C.ar   59  DA59        0.1518
   1185  C6       -11.9790  -32.5570   14.7460 C.ar   59  DA59        0.1919
   1186  N6       -10.7450  -32.9620   15.0520 N.pl3  59  DA59       -0.1054
   1187  N1       -12.2660  -32.2640   13.4600 N.ar   59  DA59       -0.2040
   1188  C2       -13.5030  -31.8570   13.1540 C.ar   59  DA59        0.2016
   1189  N3       -14.5530  -31.6840   13.9540 N.ar   59  DA59       -0.2048
   1190  C4       -14.2360  -31.9830   15.2250 C.ar   59  DA59        0.1691
   1191  P        -19.2750  -35.2950   16.2920 P.3    60  DC60        0.2141
   1192  OP1      -20.7360  -35.5190   16.2190 O.2    60  DC60       -0.5172
   1193  OP2      -18.4210  -36.1640   17.1340 O.3    60  DC60       -0.4373
   1194  O5'      -18.6310  -35.4340   14.8270 O.3    60  DC60       -0.3114
   1195  C5'      -19.3270  -34.9930   13.6680 C.3    60  DC60        0.1812
   1196  C4'      -18.4000  -34.5660   12.5500 C.3    60  DC60        0.1775
   1197  O4'      -17.2480  -33.8600   13.0890 O.3    60  DC60       -0.3326
   1198  C3'      -17.7590  -35.6650   11.7120 C.3    60  DC60        0.1865
   1199  O3'      -18.6230  -36.2770   10.7680 O.3    60  DC60       -0.2133
   1200  C2'      -16.6020  -34.9050   11.0770 C.3    60  DC60        0.0872
   1201  C1'      -16.1150  -34.1080   12.2830 C.3    60  DC60        0.2108
   1202  N1       -15.1180  -34.8130   13.0060 N.ar   60  DC60       -0.2556
   1203  C2       -13.7940  -34.9200   12.5650 C.ar   60  DC60        0.3531
   1204  O2       -13.5020  -34.4870   11.4370 O.2    60  DC60       -0.2443
   1205  N3       -12.8720  -35.4920   13.3770 N.ar   60  DC60       -0.1739
   1206  C4       -13.2310  -35.9430   14.5800 C.ar   60  DC60        0.1759
   1207  N4       -12.2890  -36.4990   15.3450 N.pl3  60  DC60       -0.1070
   1208  C5       -14.5680  -35.8440   15.0450 C.ar   60  DC60        0.0566
   1209  C6       -15.4740  -35.2790   14.2400 C.ar   60  DC60        0.0849
   1210  P        -18.5470  -37.8420   10.6920 P.3    61  DA61        0.3939
   1211  OP1      -19.6000  -36.8370   10.9510 O.3    61  DA61       -0.1496
   1212  OP2      -18.9290  -39.2170   10.3060 O.3    61  DA61       -0.1425
   1213  O5'      -17.6880  -37.3260    9.4410 O.3    61  DA61       -0.2926
   1214  C5'      -17.3560  -38.2630    8.4230 C.3    61  DA61        0.1828
   1215  C4'      -17.0680  -37.6280    7.0820 C.3    61  DA61        0.1747
   1216  O4'      -18.3000  -37.0920    6.5220 O.3    61  DA61       -0.3327
   1217  C3'      -16.0530  -36.4860    7.0980 C.3    61  DA61        0.1558
   1218  O3'      -14.8380  -36.7960    6.4230 O.3    61  DA61       -0.3138
   1219  C2'      -16.7210  -35.3230    6.3710 C.3    61  DA61        0.0865
   1220  C1'      -18.0860  -35.8280    5.9270 C.3    61  DA61        0.2094
   1221  N9       -19.0290  -34.8110    6.9060 N.ar   61  DA61       -0.2714
   1222  C8       -19.5620  -34.9190    8.1640 C.ar   61  DA61        0.1815
   1223  N7       -20.1650  -33.8290    8.5780 N.ar   61  DA61       -0.2193
   1224  C5       -20.0170  -32.9460    7.5200 C.ar   61  DA61        0.1518
   1225  C6       -20.4360  -31.6180    7.3310 C.ar   61  DA61        0.1919
   1226  N6       -21.1190  -30.9210    8.2430 N.pl3  61  DA61       -0.1054
   1227  N1       -20.1250  -31.0230    6.1590 N.ar   61  DA61       -0.2040
   1228  C2       -19.4420  -31.7220    5.2460 C.ar   61  DA61        0.2016
   1229  N3       -18.9940  -32.9740    5.3080 N.ar   61  DA61       -0.2048
   1230  C4       -19.3180  -33.5360    6.4840 C.ar   61  DA61        0.1691
   1231  P        -13.9020  -36.1850    6.9820 P.3    62  DT62        0.2141
   1232  OP1      -12.5350  -36.6650    6.6810 O.2    62  DT62       -0.5172
   1233  OP2      -14.4060  -36.1440    8.3740 O.3    62  DT62       -0.4373
   1234  O5'      -14.0570  -34.6740    6.4710 O.3    62  DT62       -0.3114
   1235  C5'      -13.4510  -34.2670    5.2540 C.3    62  DT62        0.1811
   1236  C4'      -14.1110  -33.0430    4.6650 C.3    62  DT62        0.1746
   1237  O4'      -15.5440  -33.1010    4.8750 O.3    62  DT62       -0.3327
   1238  C3'      -13.7140  -31.6980    5.2480 C.3    62  DT62        0.1558
   1239  O3'      -12.4870  -31.2250    4.7210 O.3    62  DT62       -0.3138
   1240  C2'      -14.8960  -30.8300    4.8480 C.3    62  DT62        0.0866
   1241  C1'      -16.0600  -31.8010    4.9960 C.3    62  DT62        0.2106
   1242  N1       -16.6970  -31.7530    6.3780 N.ar   62  DT62       -0.2559
   1243  C2       -17.4340  -30.6270    6.6930 C.ar   62  DT62        0.3545
   1244  O2       -17.5730  -29.6890    5.9290 O.2    62  DT62       -0.2443
   1245  N3       -18.0050  -30.6370    7.9430 N.ar   62  DT62       -0.1533
   1246  C4       -17.9150  -31.6380    8.8880 C.ar   62  DT62        0.2804
   1247  O4       -18.4860  -31.5030    9.9670 O.2    62  DT62       -0.2654
   1248  C5       -17.1320  -32.7730    8.4860 C.ar   62  DT62        0.0533
   1249  C6       -16.5660  -32.7890    7.2770 C.ar   62  DT62        0.0824
   1250  C7       -16.9730  -33.9150    9.4450 C.3    62  DT62        0.0399
   1251  P        -11.5340  -29.7750    5.5020 P.3    63  DA63        0.2141
   1252  OP1      -11.2200  -30.0420    4.0730 O.2    63  DA63       -0.5172
   1253  OP2      -10.4920  -29.1770    6.3810 O.3    63  DA63       -0.4373
   1254  O5'      -12.8300  -28.8390    5.5500 O.3    63  DA63       -0.3114
   1255  C5'      -13.1240  -27.9630    4.4550 C.3    63  DA63        0.1811
   1256  C4'      -14.3920  -27.1790    4.7100 C.3    63  DA63        0.1746
   1257  O4'      -15.3580  -28.0870    5.2990 O.3    63  DA63       -0.3327
   1258  C3'      -14.2960  -26.0250    5.7030 C.3    63  DA63        0.1558
   1259  O3'      -13.8810  -24.7920    5.1250 O.3    63  DA63       -0.3138
   1260  C2'      -15.7130  -25.9360    6.2400 C.3    63  DA63        0.0865
   1261  C1'      -16.1070  -27.4110    6.2980 C.3    63  DA63        0.2094
   1262  N9       -15.7440  -27.9360    7.6920 N.ar   63  DA63       -0.2714
   1263  C8       -14.8290  -28.9120    7.9890 C.ar   63  DA63        0.1815
   1264  N7       -14.7860  -29.2270    9.2620 N.ar   63  DA63       -0.2193
   1265  C5       -15.7360  -28.4000    9.8400 C.ar   63  DA63        0.1518
   1266  C6       -16.1740  -28.2460   11.1670 C.ar   63  DA63        0.1919
   1267  N6       -15.6900  -28.9510   12.1920 N.pl3  63  DA63       -0.1054
   1268  N1       -17.1390  -27.3320   11.4070 N.ar   63  DA63       -0.2040
   1269  C2       -17.6240  -26.6270   10.3790 C.ar   63  DA63        0.2016
   1270  N3       -17.2940  -26.6820    9.0900 N.ar   63  DA63       -0.2048
   1271  C4       -16.3340  -27.5990    8.8860 C.ar   63  DA63        0.1691
   1272  P        -12.8080  -23.9220    5.8480 P.3    64  DC64        0.2141
   1273  OP1      -12.9230  -23.4120    4.4670 O.2    64  DC64       -0.5172
   1274  OP2      -11.4960  -24.4300    6.3200 O.3    64  DC64       -0.4373
   1275  O5'      -13.2710  -22.7510    6.8150 O.3    64  DC64       -0.3114
   1276  C5'      -14.6580  -22.4100    6.8750 C.3    64  DC64        0.1811
   1277  C4'      -15.1850  -22.4460    8.2980 C.3    64  DC64        0.1746
   1278  O4'      -15.4440  -23.7910    8.7780 O.3    64  DC64       -0.3327
   1279  C3'      -14.3120  -21.8730    9.3910 C.3    64  DC64        0.1558
   1280  O3'      -14.2950  -20.4640    9.3360 O.3    64  DC64       -0.3138
   1281  C2'      -15.0390  -22.3640   10.6350 C.3    64  DC64        0.0866
   1282  C1'      -15.4470  -23.7710   10.2030 C.3    64  DC64        0.2106
   1283  N1       -14.5350  -24.7530   10.6910 N.ar   64  DC64       -0.2556
   1284  C2       -14.6470  -25.2520   11.9940 C.ar   64  DC64        0.3531
   1285  O2       -15.5160  -24.7750   12.7440 O.2    64  DC64       -0.2443
   1286  N3       -13.8080  -26.2350   12.3980 N.ar   64  DC64       -0.1739
   1287  C4       -12.8900  -26.7150   11.5580 C.ar   64  DC64        0.1759
   1288  N4       -12.0850  -27.6840   12.0010 N.pl3  64  DC64       -0.1070
   1289  C5       -12.7600  -26.2230   10.2340 C.ar   64  DC64        0.0566
   1290  C6       -13.5910  -25.2520    9.8390 C.ar   64  DC64        0.0849
   1291  P        -13.0650  -19.7850    9.8700 P.3    65  DC65        0.2141
   1292  OP1      -13.2570  -18.4620    9.2770 O.2    65  DC65       -0.5172
   1293  OP2      -11.8560  -20.5920    9.6280 O.3    65  DC65       -0.4373
   1294  O5'      -13.2080  -19.7080   11.4730 O.3    65  DC65       -0.3114
   1295  C5'      -14.4180  -19.2890   12.1650 C.3    65  DC65        0.1811
   1296  C4'      -14.4370  -19.7230   13.6270 C.3    65  DC65        0.1746
   1297  O4'      -14.5640  -21.1550   13.7250 O.3    65  DC65       -0.3327
   1298  C3'      -13.1500  -19.4450   14.3890 C.3    65  DC65        0.1558
   1299  O3'      -13.1190  -18.0550   14.8020 O.3    65  DC65       -0.3138
   1300  C2'      -13.2310  -20.4830   15.5130 C.3    65  DC65        0.0866
   1301  C1'      -13.8150  -21.6910   14.7990 C.3    65  DC65        0.2106
   1302  N1       -12.7490  -22.6670   14.4790 N.ar   65  DC65       -0.2556
   1303  C2       -12.2700  -23.5440   15.4590 C.ar   65  DC65        0.3531
   1304  O2       -12.7630  -23.4930   16.5990 O.2    65  DC65       -0.2443
   1305  N3       -11.2880  -24.4190   15.1380 N.ar   65  DC65       -0.1739
   1306  C4       -10.7880  -24.4370   13.9010 C.ar   65  DC65        0.1759
   1307  N4        -9.8200  -25.3160   13.6310 N.pl3  65  DC65       -0.1070
   1308  C5       -11.2590  -23.5560   12.8940 C.ar   65  DC65        0.0566
   1309  C6       -12.2300  -22.6940   13.2150 C.ar   65  DC65        0.0849
   1310  P        -11.5790  -17.1670   15.3660 P.3    66  DA66        0.2141
   1311  OP1      -12.2180  -15.9130   15.8670 O.3    66  DA66       -0.4373
   1312  OP2      -10.2760  -17.1220   14.6360 O.2    66  DA66       -0.5172
   1313  O5'      -11.3760  -18.1620   16.5950 O.3    66  DA66       -0.3114
   1314  C5'      -12.1490  -18.0380   17.7830 C.3    66  DA66        0.1811
   1315  C4'      -11.5400  -18.8820   18.8870 C.3    66  DA66        0.1746
   1316  O4'      -11.6000  -20.2890   18.5170 O.3    66  DA66       -0.3327
   1317  C3'      -10.0740  -18.6100   19.1950 C.3    66  DA66        0.1558
   1318  O3'       -9.9470  -17.5210   20.1200 O.3    66  DA66       -0.3138
   1319  C2'       -9.5990  -19.9440   19.7750 C.3    66  DA66        0.0865
   1320  C1'      -10.4570  -20.9620   19.0140 C.3    66  DA66        0.2094
   1321  N9        -9.7320  -21.6120   17.9030 N.ar   66  DA66       -0.2714
   1322  C8        -9.6860  -21.2410   16.5840 C.ar   66  DA66        0.1815
   1323  N7        -8.7920  -21.8970   15.8820 N.ar   66  DA66       -0.2193
   1324  C5        -8.2120  -22.7560   16.8020 C.ar   66  DA66        0.1518
   1325  C6        -7.1950  -23.7190   16.6860 C.ar   66  DA66        0.1919
   1326  N6        -6.5580  -23.9880   15.5440 N.pl3  66  DA66       -0.1054
   1327  N1        -6.8510  -24.4050   17.7980 N.ar   66  DA66       -0.2040
   1328  C2        -7.4910  -24.1350   18.9410 C.ar   66  DA66        0.2016
   1329  N3        -8.4630  -23.2560   19.1740 N.ar   66  DA66       -0.2048
   1330  C4        -8.7800  -22.5910   18.0510 C.ar   66  DA66        0.1691
   1331  P         -8.5580  -16.6810   20.2660 P.3    67  DG67        0.2141
   1332  OP1       -8.6880  -15.4340   21.0660 O.3    67  DG67       -0.4373
   1333  OP2       -8.1430  -16.5900   18.8460 O.2    67  DG67       -0.5172
   1334  O5'       -7.5630  -17.6710   21.0160 O.3    67  DG67       -0.3114
   1335  C5'       -7.8000  -18.0640   22.3780 C.3    67  DG67        0.1811
   1336  C4'       -6.8180  -19.1360   22.7770 C.3    67  DG67        0.1746
   1337  O4'       -6.9610  -20.2530   21.8710 O.3    67  DG67       -0.3327
   1338  C3'       -5.3560  -18.7330   22.6730 C.3    67  DG67        0.1558
   1339  O3'       -4.9610  -18.1410   23.9090 O.3    67  DG67       -0.3138
   1340  C2'       -4.6520  -20.0710   22.4600 C.3    67  DG67        0.0865
   1341  C1'       -5.6970  -20.8530   21.6620 C.3    67  DG67        0.2094
   1342  N9        -5.4780  -20.9490   20.2380 N.ar   67  DG67       -0.2713
   1343  C8        -6.0340  -20.2720   19.1800 C.ar   67  DG67        0.1816
   1344  N7        -5.4130  -20.4810   18.0510 N.ar   67  DG67       -0.2173
   1345  C5        -4.3880  -21.3480   18.3790 C.ar   67  DG67        0.1748
   1346  C6        -3.3770  -21.9300   17.5720 C.ar   67  DG67        0.3023
   1347  O6        -3.1880  -21.7840   16.3570 O.2    67  DG67       -0.2633
   1348  N1        -2.5310  -22.7540   18.3090 N.ar   67  DG67       -0.1709
   1349  C2        -2.6450  -22.9890   19.6580 C.ar   67  DG67        0.2606
   1350  N2        -1.7360  -23.8150   20.1930 N.pl3  67  DG67       -0.0859
   1351  N3        -3.5780  -22.4550   20.4220 N.ar   67  DG67       -0.1918
   1352  C4        -4.4100  -21.6500   19.7270 C.ar   67  DG67        0.1722
   1353  P         -4.0750  -16.9410   23.9090 P.3    68  DC68        0.2141
   1354  OP1       -4.1380  -15.9300   24.9970 O.3    68  DC68       -0.4373
   1355  OP2       -4.5500  -16.5970   22.5400 O.2    68  DC68       -0.5172
   1356  O5'       -2.5880  -17.5210   23.7230 O.3    68  DC68       -0.3114
   1357  C5'       -2.0810  -18.5800   24.5390 C.3    68  DC68        0.1811
   1358  C4'       -0.9960  -19.3560   23.8150 C.3    68  DC68        0.1746
   1359  O4'       -1.5590  -20.1500   22.7440 O.3    68  DC68       -0.3327
   1360  C3'        0.0240  -18.5220   23.0600 C.3    68  DC68        0.1558
   1361  O3'        0.9260  -17.8820   23.9300 O.3    68  DC68       -0.3138
   1362  C2'        0.6860  -19.5740   22.1810 C.3    68  DC68        0.0866
   1363  C1'       -0.5580  -20.3510   21.7500 C.3    68  DC68        0.2106
   1364  N1        -1.0220  -19.8710   20.4650 N.ar   68  DC68       -0.2556
   1365  C2        -0.2850  -20.0500   19.2890 C.ar   68  DC68        0.3531
   1366  O2         0.8390  -20.5750   19.3610 O.2    68  DC68       -0.2443
   1367  N3        -0.8170  -19.6450   18.1100 N.ar   68  DC68       -0.1739
   1368  C4        -2.0260  -19.0850   18.0820 C.ar   68  DC68        0.1759
   1369  N4        -2.5090  -18.7010   16.8970 N.pl3  68  DC68       -0.1070
   1370  C5        -2.7880  -18.8950   19.2630 C.ar   68  DC68        0.0566
   1371  C6        -2.2600  -19.2960   20.4240 C.ar   68  DC68        0.0849
   1372  P          1.0590  -16.4510   23.6440 P.3    69  DT69        0.2141
   1373  OP1        1.5990  -16.0490   24.9630 O.3    69  DT69       -0.4373
   1374  OP2       -0.3100  -16.0630   23.2330 O.2    69  DT69       -0.5172
   1375  O5'        1.9980  -15.8770   22.4830 O.3    69  DT69       -0.3114
   1376  C5'        3.3690  -16.2420   22.4360 C.3    69  DT69        0.1811
   1377  C4'        3.9940  -15.8940   21.1080 C.3    69  DT69        0.1746
   1378  O4'        3.4710  -16.7570   20.0650 O.3    69  DT69       -0.3327
   1379  C3'        3.7090  -14.4960   20.5870 C.3    69  DT69        0.1558
   1380  O3'        4.5010  -13.4950   21.2010 O.3    69  DT69       -0.3138
   1381  C2'        3.9670  -14.6450   19.0950 C.3    69  DT69        0.0866
   1382  C1'        3.4280  -16.0520   18.8410 C.3    69  DT69        0.2106
   1383  N1         2.0400  -16.0480   18.3120 N.ar   69  DT69       -0.2559
   1384  C2         1.8360  -15.6770   16.9960 C.ar   69  DT69        0.3545
   1385  O2         2.7340  -15.2930   16.2680 O.2    69  DT69       -0.2443
   1386  N3         0.5360  -15.7700   16.5610 N.ar   69  DT69       -0.1533
   1387  C4        -0.5560  -16.1880   17.2920 C.ar   69  DT69        0.2804
   1388  O4        -1.6630  -16.2190   16.7610 O.2    69  DT69       -0.2654
   1389  C5        -0.2630  -16.5550   18.6490 C.ar   69  DT69        0.0534
   1390  C6         0.9920  -16.4740   19.0990 C.ar   69  DT69        0.0824
   1391  C7        -1.3860  -17.0230   19.5270 C.3    69  DT69        0.0377
   1392  P          3.8150  -12.3850   21.4970 P.3    70  DT70        0.2141
   1393  OP1        4.1720  -12.1690   22.9140 O.3    70  DT70       -0.4373
   1394  OP2        2.4030  -12.2970   21.0610 O.2    70  DT70       -0.5172
   1395  O5'        4.7350  -11.3220   20.7390 O.3    70  DT70       -0.3114
   1396  C5'        4.2810  -10.5620   19.6270 C.3    70  DT70        0.1811
   1397  C4'        5.0850  -10.9510   18.4130 C.3    70  DT70        0.1746
   1398  O4'        4.6810  -12.2860   18.0330 O.3    70  DT70       -0.3327
   1399  C3'        4.8800  -10.0950   17.1700 C.3    70  DT70        0.1558
   1400  O3'        5.8140   -9.0280   17.1250 O.3    70  DT70       -0.3138
   1401  C2'        5.1590  -11.0970   16.0590 C.3    70  DT70        0.0866
   1402  C1'        4.4930  -12.3510   16.6230 C.3    70  DT70        0.2106
   1403  N1         3.1490  -12.8170   16.6110 N.ar   70  DT70       -0.2559
   1404  C2         2.5300  -12.8650   15.3760 C.ar   70  DT70        0.3545
   1405  O2         3.1150  -12.6430   14.3310 O.2    70  DT70       -0.2443
   1406  N3         1.1940  -13.1840   15.4080 N.ar   70  DT70       -0.1533
   1407  C4         0.4310  -13.4530   16.5250 C.ar   70  DT70        0.2804
   1408  O4        -0.7600  -13.7250   16.3940 O.2    70  DT70       -0.2654
   1409  C5         1.1450  -13.3820   17.7690 C.ar   70  DT70        0.0534
   1410  C6         2.4450  -13.0740   17.7670 C.ar   70  DT70        0.0824
   1411  C7         0.4020  -13.6580   19.0420 C.3    70  DT70        0.0377
   1412  P          5.4100   -7.3780   16.6700 P.3    71  DA71        0.2141
   1413  OP1        6.5620   -6.4510   16.7260 O.2    71  DA71       -0.5172
   1414  OP2        4.2190   -7.1330   17.5340 O.3    71  DA71       -0.4373
   1415  O5'        4.9060   -7.4610   15.1550 O.3    71  DA71       -0.3114
   1416  C5'        5.7990   -7.7760   14.0870 C.3    71  DA71        0.1811
   1417  C4'        5.0240   -7.9570   12.7920 C.3    71  DA71        0.1746
   1418  O4'        4.0450   -9.0020   12.9640 O.3    71  DA71       -0.3327
   1419  C3'        4.2260   -6.7610   12.3050 C.3    71  DA71        0.1558
   1420  O3'        5.0620   -5.9760   11.4780 O.3    71  DA71       -0.3138
   1421  C2'        3.1330   -7.4060   11.4690 C.3    71  DA71        0.0865
   1422  C1'        2.8940   -8.7060   12.2210 C.3    71  DA71        0.2094
   1423  N9         1.8390   -8.7840   13.1400 N.ar   71  DA71       -0.2714
   1424  C8         1.9620   -9.0270   14.4830 C.ar   71  DA71        0.1815
   1425  N7         0.8190   -9.0270   15.1270 N.ar   71  DA71       -0.2193
   1426  C5        -0.1180   -8.7660   14.1400 C.ar   71  DA71        0.1518
   1427  C6        -1.5180   -8.6360   14.1750 C.ar   71  DA71        0.1919
   1428  N6        -2.2440   -8.7600   15.2880 N.pl3  71  DA71       -0.1054
   1429  N1        -2.1520   -8.3720   13.0130 N.ar   71  DA71       -0.2040
   1430  C2        -1.4230   -8.2500   11.8970 C.ar   71  DA71        0.2016
   1431  N3        -0.1050   -8.3510   11.7380 N.ar   71  DA71       -0.2048
   1432  C4         0.4950   -8.6120   12.9110 C.ar   71  DA71        0.1691
   1433  P          5.2640   -4.1470   11.6670 P.3    72  DT72        0.2141
   1434  OP1        6.3650   -3.6060   10.8400 O.2    72  DT72       -0.5172
   1435  OP2        5.2390   -3.9050   13.1260 O.3    72  DT72       -0.4373
   1436  O5'        3.8670   -3.5680   11.1390 O.3    72  DT72       -0.3114
   1437  C5'        3.6120   -3.5910    9.7430 C.3    72  DT72        0.1811
   1438  C4'        2.1390   -3.5730    9.3980 C.3    72  DT72        0.1746
   1439  O4'        1.4250   -4.6310   10.0910 O.3    72  DT72       -0.3327
   1440  C3'        1.3670   -2.3100    9.7500 C.3    72  DT72        0.1558
   1441  O3'        1.6070   -1.2580    8.8260 O.3    72  DT72       -0.3138
   1442  C2'       -0.0730   -2.8090    9.7670 C.3    72  DT72        0.0866
   1443  C1'        0.0870   -4.2310   10.3130 C.3    72  DT72        0.2106
   1444  N1        -0.2580   -4.4310   11.6700 N.ar   72  DT72       -0.2559
   1445  C2        -1.5990   -4.4610   12.0040 C.ar   72  DT72        0.3545
   1446  O2        -2.4910   -4.3220   11.1850 O.2    72  DT72       -0.2443
   1447  N3        -1.8610   -4.6580   13.3380 N.ar   72  DT72       -0.1533
   1448  C4        -0.9380   -4.8250   14.3490 C.ar   72  DT72        0.2804
   1449  O4        -1.3270   -4.9940   15.5020 O.2    72  DT72       -0.2654
   1450  C5         0.4330   -4.7810   13.9230 C.ar   72  DT72        0.0534
   1451  C6         0.7160   -4.5900   12.6310 C.ar   72  DT72        0.0824
   1452  C7         1.5130   -4.9520   14.9500 C.3    72  DT72        0.0377
   1453  P          0.7730    0.1620    8.9060 P.3    73  DT73        0.2141
   1454  OP1        0.8040    0.9340    7.6420 O.2    73  DT73       -0.5172
   1455  OP2        1.1190    0.8230   10.1820 O.3    73  DT73       -0.4373
   1456  O5'       -0.7000   -0.4110    9.1620 O.3    73  DT73       -0.3114
   1457  C5'       -1.5650   -0.7150    8.0750 C.3    73  DT73        0.1811
   1458  C4'       -3.0160   -0.6400    8.4830 C.3    73  DT73        0.1746
   1459  O4'       -3.3440   -1.7510    9.3600 O.3    73  DT73       -0.3327
   1460  C3'       -3.4170    0.5910    9.2830 C.3    73  DT73        0.1558
   1461  O3'       -3.6550    1.7250    8.4680 O.3    73  DT73       -0.3138
   1462  C2'       -4.6520    0.1130   10.0400 C.3    73  DT73        0.0866
   1463  C1'       -4.2750   -1.3380   10.3370 C.3    73  DT73        0.2106
   1464  N1        -3.6370   -1.4620   11.6930 N.ar   73  DT73       -0.2559
   1465  C2        -4.5190   -1.5420   12.7540 C.ar   73  DT73        0.3545
   1466  O2        -5.7280   -1.4780   12.6190 O.2    73  DT73       -0.2443
   1467  N3        -3.9330   -1.7010   13.9870 N.ar   73  DT73       -0.1533
   1468  C4        -2.5840   -1.7850   14.2590 C.ar   73  DT73        0.2804
   1469  O4        -2.2080   -1.9280   15.4200 O.2    73  DT73       -0.2654
   1470  C5        -1.7330   -1.6920   13.1060 C.ar   73  DT73        0.0534
   1471  C6        -2.2760   -1.5380   11.8950 C.ar   73  DT73        0.0824
   1472  C7        -0.2480   -1.7720   13.2990 C.3    73  DT73        0.0377
   1473  P         -3.2950    3.5130    9.0340 P.3    74  DC74        0.2141
   1474  OP1       -3.6820    4.4030    7.9180 O.2    74  DC74       -0.5172
   1475  OP2       -2.2020    3.8920    9.9550 O.3    74  DC74       -0.4373
   1476  O5'       -4.5500    3.2880    9.9970 O.3    74  DC74       -0.3114
   1477  C5'       -5.7820    2.9710    9.3740 C.3    74  DC74        0.1811
   1478  C4'       -6.8310    2.5040   10.3510 C.3    74  DC74        0.1746
   1479  O4'       -6.2650    1.5810   11.3170 O.3    74  DC74       -0.3327
   1480  C3'       -7.4950    3.5630   11.2210 C.3    74  DC74        0.1558
   1481  O3'       -8.4530    4.3320   10.5140 O.3    74  DC74       -0.3138
   1482  C2'       -8.1170    2.7100   12.3160 C.3    74  DC74        0.0866
   1483  C1'       -7.0990    1.5770   12.4570 C.3    74  DC74        0.2106
   1484  N1        -6.3080    1.7610   13.6790 N.ar   74  DC74       -0.2556
   1485  C2        -6.8090    1.4060   14.9370 C.ar   74  DC74        0.3531
   1486  O2        -8.0090    1.1000   15.0380 O.2    74  DC74       -0.2443
   1487  N3        -5.9740    1.4080   16.0040 N.ar   74  DC74       -0.1739
   1488  C4        -4.6930    1.7450   15.8490 C.ar   74  DC74        0.1759
   1489  N4        -3.9090    1.7320   16.9290 N.pl3  74  DC74       -0.1070
   1490  C5        -4.1660    2.1080   14.5830 C.ar   74  DC74        0.0566
   1491  C6        -4.9940    2.1050   13.5320 C.ar   74  DC74        0.0849
   1492  P         -9.0460    5.5900   10.9620 P.3    75  DA75        0.2141
   1493  OP1      -10.0370    5.8860    9.8730 O.2    75  DA75       -0.5172
   1494  OP2       -7.8040    6.4170   11.0740 O.3    75  DA75       -0.4373
   1495  O5'       -9.8300    5.7780   12.3310 O.3    75  DA75       -0.3114
   1496  C5'      -11.0830    5.1580   12.5220 C.3    75  DA75        0.1811
   1497  C4'      -11.2780    4.8200   13.9700 C.3    75  DA75        0.1746
   1498  O4'      -10.2110    3.9270   14.4090 O.3    75  DA75       -0.3327
   1499  C3'      -11.1780    5.9600   14.9600 C.3    75  DA75        0.1558
   1500  O3'      -12.2930    6.8350   14.9220 O.3    75  DA75       -0.3138
   1501  C2'      -10.9370    5.2040   16.2600 C.3    75  DA75        0.0865
   1502  C1'       -9.9450    4.1450   15.7910 C.3    75  DA75        0.2094
   1503  N9        -8.5830    4.6610   15.9630 N.ar   75  DA75       -0.2714
   1504  C8        -7.7320    4.7940   14.8970 C.ar   75  DA75        0.1815
   1505  N7        -6.4770    4.9610   15.2390 N.ar   75  DA75       -0.2193
   1506  C5        -6.5050    4.9370   16.6250 C.ar   75  DA75        0.1518
   1507  C6        -5.4940    5.0610   17.5940 C.ar   75  DA75        0.1919
   1508  N6        -4.2050    5.2400   17.2980 N.pl3  75  DA75       -0.1054
   1509  N1        -5.8590    4.9930   18.8920 N.ar   75  DA75       -0.2040
   1510  C2        -7.1510    4.8120   19.1870 C.ar   75  DA75        0.2016
   1511  N3        -8.1910    4.6820   18.3670 N.ar   75  DA75       -0.2048
   1512  C4        -7.7950    4.7540   17.0850 C.ar   75  DA75        0.1691
   1513  P        -12.0650    8.4390   14.5920 P.3    76  DA76        0.2141
   1514  OP1      -13.3390    9.0580   14.1810 O.3    76  DA76       -0.4373
   1515  OP2      -10.9410    8.3860   13.6310 O.2    76  DA76       -0.5172
   1516  O5'      -11.4990    9.0770   15.9540 O.3    76  DA76       -0.3114
   1517  C5'      -12.3250    9.1360   17.1140 C.3    76  DA76        0.1811
   1518  C4'      -11.5530    9.0580   18.4290 C.3    76  DA76        0.1746
   1519  O4'      -10.4900    8.0710   18.4270 O.3    76  DA76       -0.3327
   1520  C3'      -10.7980   10.2860   18.9090 C.3    76  DA76        0.1558
   1521  O3'      -11.6610   11.3700   19.2260 O.3    76  DA76       -0.3138
   1522  C2'      -10.1860    9.6550   20.1560 C.3    76  DA76        0.0865
   1523  C1'       -9.7100    8.3170   19.5950 C.3    76  DA76        0.2094
   1524  N9        -8.6410    8.4560   19.2220 N.ar   76  DA76       -0.2714
   1525  C8        -8.4820    8.4640   17.8610 C.ar   76  DA76        0.1815
   1526  N7        -7.2310    8.3880   17.4740 N.ar   76  DA76       -0.2193
   1527  C5        -6.5190    8.3280   18.6610 C.ar   76  DA76        0.1518
   1528  C6        -5.1430    8.2360   18.9360 C.ar   76  DA76        0.1919
   1529  N6        -4.2020    8.1860   17.9900 N.pl3  76  DA76       -0.1054
   1530  N1        -4.7640    8.1970   20.2310 N.ar   76  DA76       -0.2040
   1531  C2        -5.7080    8.2460   21.1780 C.ar   76  DA76        0.2016
   1532  N3        -7.0300    8.3320   21.0450 N.ar   76  DA76       -0.2048
   1533  C4        -7.3740    8.3700   19.7460 C.ar   76  DA76        0.1691
   1534  P        -11.1610   12.8650   19.2990 P.3    77  DT77        0.2141
   1535  OP1      -12.3640   13.4670   19.9170 O.3    77  DT77       -0.4373
   1536  OP2      -10.6980   13.3120   17.9660 O.2    77  DT77       -0.5172
   1537  O5'       -9.8920   13.0900   20.2520 O.3    77  DT77       -0.3115
   1538  C5'      -10.0690   13.2980   21.6460 C.3    77  DT77        0.1785
   1539  C4'       -8.8090   13.0300   22.4370 C.3    77  DT77        0.1473
   1540  O4'       -8.1990   11.7910   21.9870 O.3    77  DT77       -0.3353
   1541  C3'       -7.6820   14.0470   22.3090 C.3    77  DT77        0.0368
   1542  O3'       -7.8680   15.2140   23.0880 O.3    77  DT77       -0.1145
   1543  C2'       -6.4680   13.2340   22.7350 C.3    77  DT77        0.0566
   1544  C1'       -6.7960   11.8830   22.1080 C.3    77  DT77        0.2081
   1545  N1        -6.1850   11.7560   20.7820 N.ar   77  DT77       -0.2559
   1546  C2        -4.8480   11.4170   20.6870 C.ar   77  DT77        0.3545
   1547  O2        -4.1310   11.2640   21.6600 O.2    77  DT77       -0.2443
   1548  N3        -4.3780   11.2650   19.4050 N.ar   77  DT77       -0.1533
   1549  C4        -5.0930   11.4130   18.2360 C.ar   77  DT77        0.2804
   1550  O4        -4.5310   11.2420   17.1570 O.2    77  DT77       -0.2654
   1551  C5        -6.4730   11.7660   18.4180 C.ar   77  DT77        0.0534
   1552  C6        -6.9570   11.9210   19.6530 C.ar   77  DT77        0.0824
   1553  C7        -7.3360   11.9510   17.2050 C.3    77  DT77        0.0377
   1554  P         -7.7830   16.1790   23.7690 P.3    78  DT78        0.5327
   1555  OP1       -8.0360   14.7460   24.0770 O.3    78  DT78       -0.1145
   1556  OP2       -8.4390   17.2360   24.5880 O.2    78  DT78       -0.2224
   1557  O5'       -6.2130   16.4570   23.7890 O.3    78  DT78       -0.2675
   1558  C5'       -5.4470   16.1310   24.9380 C.3    78  DT78        0.1857
   1559  C4'       -3.9760   16.0660   24.6050 C.3    78  DT78        0.1755
   1560  O4'       -3.4240   17.4130   24.5550 O.3    78  DT78       -0.3510
   1561  C3'       -3.1760   15.3720   25.6950 C.3    78  DT78        0.1839
   1562  O3'       -3.1930   13.9630   25.5240 O.3    78  DT78       -0.2204
   1563  C2'       -1.8000   16.0090   25.5700 C.3    78  DT78        0.0676
   1564  C1'       -2.1730   17.4520   25.2280 C.3    78  DT78        0.1450
   1565  N1        -2.4090   14.2730   22.0000 N.2    78  DT78       -0.1608
   1566  C2        -1.5910   13.2450   21.5730 C.1    78  DT78        0.2395
   1567  O2        -0.7590   12.7160   22.2890 O.2    78  DT78       -0.2041
   1568  N3        -1.7800   12.8550   20.2690 N.am   78  DT78       -0.0881
   1569  C4        -2.6860   13.3780   19.3700 C.2    78  DT78        0.2768
   1570  O4        -2.7400   12.9220   18.2310 O.2    78  DT78       -0.2676
   1571  C5        -3.4980   14.4420   19.8880 C.2    78  DT78        0.0541
   1572  C6        -3.3350   14.8410   21.1520 C.2    78  DT78        0.1126
   1573  C7        -4.5140   15.0780   18.9860 C.3    78  DT78        0.0376
@<TRIPOS>BOND
     1   481   480    1
     2   480   482   ar
     3   480   479   ar
     4   482   483   ar
     5   479   477   ar
     6   483   476   ar
     7   477   476   ar
     8   477   478    2
     9   476   475    1
    10   467   465    2
    11   444   443    2
    12   466   465    1
    13   475   471    1
    14   475   474    1
    15   465   451    1
    16   465   468    1
    17   471   470    1
    18   445   443    1
    19   443   446    1
    20   443   432    1
    21   446   447    1
    22   450   451    1
    23   450   452    1
    24   450   448    1
    25   474   472    1
    26   468   469    1
    27   447   448    1
    28   452   453    1
    29   470   469    1
    30   470   472    1
    31   472   473    1
    32   432   431    1
    33   448   449    1
    34   456   455   ar
    35   456   457   ar
    36   455   454   ar
    37   459   458    2
    38   457   458   ar
    39   457   464   ar
    40   458   460   ar
    41   454   453    1
    42   454   464   ar
    43   453   449    1
    44   464   463   ar
    45   431   433    1
    46   431   429    1
    47   460   461   ar
    48   473   484    1
    49   463   461   ar
    50   461   462    1
    51   488   489    1
    52   488   487    1
    53   433   434    1
    54   490   489    1
    55   490   494    1
    56   484   485    2
    57   484   487    1
    58   484   486    1
    59   489   491    1
    60   429   428    1
    61   429   430    1
    62   428   427    1
    63   494   493    1
    64   494   495    1
    65   427   424    1
    66   434   430    1
    67   434   435    1
    68   425   424    2
    69   491   493    1
    70   491   492    1
    71   437   436    2
    72   495   496   ar
    73   495   504   ar
    74   435   436   ar
    75   435   442   ar
    76   436   438   ar
    77   496   497   ar
    78   492   505    1
    79   442   441   ar
    80   438   439   ar
    81   424   426    1
    82   424   412    1
    83   441   439   ar
    84   439   440    1
    85   504   503   ar
    86   504   498   ar
    87   506   505    2
    88   503   502   ar
    89   497   498   ar
    90   498   499   ar
    91   505   508    1
    92   505   507    1
    93   509   508    1
    94   509   510    1
    95   502   501   ar
    96   412   411    1
    97   511   510    1
    98   511   515    1
    99   499   501   ar
   100   499   500    1
   101   510   512    1
   102   411   413    1
   103   411   409    1
   104   413   414    1
   105   417   416    2
   106   515   516    1
   107   515   514    1
   108   524   522    1
   109   523   516   ar
   110   523   522   ar
   111   418   416   ar
   112   418   419   ar
   113   416   415   ar
   114   512   513    1
   115   512   514    1
   116   516   517   ar
   117   522   520   ar
   118   420   419    2
   119   513   525    1
   120   419   421   ar
   121   409   408    1
   122   409   410    1
   123   414   415    1
   124   414   410    1
   125   415   422   ar
   126   517   518    2
   127   517   519   ar
   128   520   519   ar
   129   520   521    2
   130   408   407    1
   131   421   422   ar
   132   421   423    1
   133   407   404    1
   134   527   525    2
   135   525   526    1
   136   525   528    1
   137   405   404    2
   138   406   404    1
   139   404   391    1
   140   400   401   ar
   141   400   398   ar
   142   544   542    1
   143   399   398    1
   144   401   402   ar
   145   528   529    1
   146   398   397   ar
   147   302   301    2
   148   529   530    1
   149   542   543   ar
   150   542   540   ar
   151   402   403   ar
   152   531   530    1
   153   531   535    1
   154   543   536   ar
   155   397   403   ar
   156   397   396   ar
   157   403   394   ar
   158   392   390    1
   159   392   393    1
   160   391   390    1
   161   396   395   ar
   162   530   532    1
   163   541   540    2
   164   540   539   ar
   165   390   388    1
   166   536   535    1
   167   536   537   ar
   168   394   395   ar
   169   394   393    1
   170   301   303    1
   171   301   304    1
   172   301   288    1
   173   324   322    2
   174   281   280    2
   175   535   534    1
   176   323   322    1
   177   393   389    1
   178   539   537   ar
   179   378   377    1
   180   305   304    1
   181   305   306    1
   182   537   538    2
   183   322   309    1
   184   322   325    1
   185   288   287    1
   186   309   308    1
   187   532   534    1
   188   532   533    1
   189   341   339    1
   190   377   379   ar
   191   377   376   ar
   192   388   389    1
   193   388   387    1
   194   379   380   ar
   195   280   282    1
   196   280   283    1
   197   280   269    1
   198   284   283    1
   199   284   285    1
   200   306   308    1
   201   306   307    1
   202   308   310    1
   203   385   383    2
   204   386   387    1
   205   386   383    1
   206   533   545    1
   207   287   285    1
   208   287   289    1
   209   344   342    2
   210   376   375   ar
   211   376   382   ar
   212   285   286    1
   213   269   268    1
   214   380   381   ar
   215   325   326    1
   216   375   374   ar
   217   361   359    1
   218   358   357    2
   219   383   384    1
   220   383   370    1
   221   338   337    2
   222   339   337   ar
   223   339   340   ar
   224   307   311    1
   225   561   560    1
   226   364   362    2
   227   382   381   ar
   228   382   373   ar
   229   343   342    1
   230   310   311    1
   231   289   290    1
   232   326   327    1
   233   337   336   ar
   234   342   345    1
   235   342   330    1
   236   558   559   ar
   237   558   557   ar
   238   545   547    2
   239   545   546    1
   240   545   548    1
   241   374   373   ar
   242   357   359   ar
   243   357   356   ar
   244   340   333   ar
   245   560   559   ar
   246   560   562   ar
   247   359   360   ar
   248   559   565   ar
   249   268   266    1
   250   268   270    1
   251   286   290    1
   252   313   312   ar
   253   313   314   ar
   254   557   556   ar
   255   262   261    2
   256   373   372    1
   257   311   312    1
   258   562   563   ar
   259   265   266    1
   260   265   264    1
   261   548   549    1
   262   370   369    1
   263   266   267    1
   264   345   346    1
   265   565   556   ar
   266   565   564   ar
   267   556   555    1
   268   312   321   ar
   269   369   371    1
   270   369   367    1
   271   290   291    1
   272   270   271    1
   273   371   372    1
   274   329   330    1
   275   329   327    1
   276   329   331    1
   277   314   315   ar
   278   362   365    1
   279   362   363    1
   280   362   350    1
   281   360   353   ar
   282   356   354   ar
   283   327   328    1
   284   563   564   ar
   285   551   555    1
   286   551   550    1
   287   292   291   ar
   288   292   293   ar
   289   336   334   ar
   290   365   366    1
   291   333   334   ar
   292   333   332    1
   293   261   264    1
   294   261   263    1
   295   261   249    1
   296   291   300   ar
   297   555   554    1
   298   372   368    1
   299   328   332    1
   300   293   294   ar
   301   549   550    1
   302   321   315   ar
   303   321   320    1
   304   331   332    1
   305   315   316    1
   306   334   335    2
   307   346   347    1
   308   267   271    1
   309   353   354   ar
   310   353   352    1
   311   354   355    1
   312   367   366    1
   313   367   368    1
   314   349   350    1
   315   349   347    1
   316   349   351    1
   317   271   272    1
   318   550   552    1
   319   582   581    1
   320   300   294   ar
   321   300   299   ar
   322   294   295   ar
   323   249   248    1
   324   581   580    1
   325   581   583    2
   326   580   578    2
   327   347   348    1
   328   299   298   ar
   329   320   319    2
   330   355   579    1
   331   554   552    1
   332   348   352    1
   333   351   352    1
   334   583   584    1
   335   316   317    1
   336   316   318    1
   337   578   579    1
   338   578   577    1
   339   272   279   ar
   340   272   273   ar
   341   552   553    1
   342   295   296    1
   343   295   297   ar
   344   584   577    1
   345   577   576    1
   346   274   273    2
   347   279   278   ar
   348   298   297   ar
   349   273   275   ar
   350   576   572    1
   351   576   575    1
   352   319   318    2
   353   319   617    1
   354   572   571    1
   355   248   250    1
   356   248   246    1
   357   601   600    1
   358   250   251    1
   359   278   276   ar
   360   553   566    1
   361   275   276   ar
   362   599   600   ar
   363   599   597   ar
   364   600   602   ar
   365   568   566    2
   366   276   277    1
   367   246   245    1
   368   246   247    1
   369   575   573    1
   370   242   241    2
   371   571   570    1
   372   571   573    1
   373   245   244    1
   374   569   566    1
   375   569   570    1
   376   566   567    1
   377   597   598    2
   378   597   596   ar
   379   602   603   ar
   380   617   616    1
   381   244   241    1
   382   251   247    1
   383   251   252    1
   384   573   574    1
   385   618   616   ar
   386   618   619   ar
   387   596   603   ar
   388   596   595    1
   389   241   243    1
   390   241   229    1
   391   616   615   ar
   392   254   253    2
   393   252   253   ar
   394   252   259   ar
   395   620   619    2
   396   253   255   ar
   397   259   258   ar
   398   595   591    1
   399   595   594    1
   400   619   621   ar
   401   637   636    2
   402   255   256   ar
   403   591   590    1
   404   258   256   ar
   405   258   260    1
   406   615   614    1
   407   615   622   ar
   408   574   585    1
   409   229   228    1
   410   256   257    2
   411   614   610    1
   412   614   613    1
   413   636   638   ar
   414   636   635   ar
   415   621   622   ar
   416   621   623    1
   417   587   585    2
   418   594   592    1
   419   650   654    1
   420   650   649    1
   421   634   635    1
   422   634   633    1
   423   634   630    1
   424   638   639   ar
   425   654   653    1
   426   654   655    1
   427   610   609    1
   428   635   642   ar
   429   663   662   ar
   430   663   664   ar
   431   633   631    1
   432   588   585    1
   433   588   589    1
   434   613   611    1
   435   649   648    1
   436   649   651    1
   437   230   228    1
   438   230   231    1
   439   585   586    1
   440   228   226    1
   441   653   651    1
   442   590   592    1
   443   590   589    1
   444   662   661   ar
   445   630   629    1
   446   639   640    2
   447   639   641   ar
   448   655   664   ar
   449   655   656   ar
   450   664   658   ar
   451   592   593    1
   452   648   647    1
   453   642   641   ar
   454   669   670    1
   455   669   668    1
   456   671   670    1
   457   671   675    1
   458   651   652    1
   459   609   611    1
   460   609   608    1
   461   670   672    1
   462   234   233    2
   463   641   643    1
   464   629   631    1
   465   629   628    1
   466   652   665    1
   467   661   659   ar
   468   631   632    1
   469   668   665    1
   470   611   612    1
   471   226   225    1
   472   226   227    1
   473   656   657   ar
   474   231   232    1
   475   231   227    1
   476   233   232   ar
   477   233   235   ar
   478   675   676    1
   479   675   674    1
   480   658   659   ar
   481   658   657   ar
   482   632   644    1
   483   232   239   ar
   484   235   236   ar
   485   647   644    1
   486   659   660    1
   487   593   604    1
   488   608   607    1
   489   225   224    1
   490   665   666    2
   491   665   667    1
   492   239   238   ar
   493   607   604    1
   494   236   237    2
   495   236   238   ar
   496   612   624    1
   497   676   683   ar
   498   676   677   ar
   499   628   627    1
   500   674   672    1
   501   224   221    1
   502   672   673    1
   503   238   240    1
   504   644   645    2
   505   644   646    1
   506   678   677    2
   507   606   604    2
   508   683   682   ar
   509   627   624    1
   510   673   685    1
   511   677   679   ar
   512   604   605    1
   513   626   624    2
   514   222   221    2
   515   624   625    1
   516   223   221    1
   517   221   208    1
   518   682   684    1
   519   682   680   ar
   520   689   690    1
   521   689   688    1
   522   679   680   ar
   523   691   690    1
   524   691   695    1
   525   680   681    2
   526   690   692    1
   527   685   688    1
   528   685   686    2
   529   685   687    1
   530   218   217   ar
   531   218   219   ar
   532   208   207    1
   533   217   215   ar
   534   219   220   ar
   535   695   696    1
   536   695   694    1
   537   209   207    1
   538   209   210    1
   539   207   205    1
   540   215   216    1
   541   215   214   ar
   542   220   214   ar
   543   220   211   ar
   544   692   693    1
   545   692   694    1
   546   693   706    1
   547   696   697   ar
   548   696   705   ar
   549   697   698   ar
   550   214   213   ar
   551   211   210    1
   552   211   212   ar
   553   705   704   ar
   554   705   699   ar
   555   210   206    1
   556   698   699   ar
   557   213   212   ar
   558   704   703   ar
   559   706   707    2
   560   706   708    1
   561   706   709    1
   562   205   204    1
   563   205   206    1
   564   699   700   ar
   565   204   203    1
   566   709   710    1
   567   703   702   ar
   568   710   711    1
   569   700   702   ar
   570   700   701    1
   571   202   200    2
   572   712   711    1
   573   712   716    1
   574   723   724   ar
   575   723   721   ar
   576   203   200    1
   577   724   717   ar
   578   711   713    1
   579   200   201    1
   580   200   188    1
   581   196   195    2
   582   722   721    1
   583   721   720   ar
   584   717   716    1
   585   717   718   ar
   586   716   715    1
   587   194   195   ar
   588   194   192   ar
   589   195   197   ar
   590   188   187    1
   591   193   192    2
   592   192   191   ar
   593   720   718   ar
   594   713   715    1
   595   713   714    1
   596   718   719    2
   597   197   199    1
   598   197   198   ar
   599   189   187    1
   600   189   190    1
   601   187   185    1
   602   191   198   ar
   603   191   190    1
   604   182   180    2
   605   714   725    1
   606   190   186    1
   607   727   725    2
   608   183   180    1
   609   183   184    1
   610   181   180    1
   611   180   168    1
   612   185   184    1
   613   185   186    1
   614   725   726    1
   615   725   728    1
   616   161   160    2
   617   142   141    2
   618   162   160    1
   619   741   740    1
   620   742   740   ar
   621   742   743   ar
   622   728   729    1
   623   143   141    1
   624   168   167    1
   625   160   163    1
   626   160   149    1
   627   740   739   ar
   628   743   736   ar
   629   179   177    1
   630   729   730    1
   631   141   144    1
   632   141   127    1
   633   731   730    1
   634   731   735    1
   635   120   119    2
   636   167   169    1
   637   167   165    1
   638   163   164    1
   639   739   737   ar
   640   736   737   ar
   641   736   735    1
   642   177   178   ar
   643   177   175   ar
   644   730   732    1
   645   164   165    1
   646   149   148    1
   647   737   738    2
   648   176   175    2
   649   735   734    1
   650   178   171   ar
   651   169   170    1
   652   144   145    1
   653   127   126    1
   654   175   174   ar
   655   123   122    1
   656   123   124    1
   657   165   166    1
   658   119   122    1
   659   119   121    1
   660   119   106    1
   661   145   146    1
   662   148   146    1
   663   148   150    1
   664   760   759    1
   665   171   170    1
   666   171   172   ar
   667   732   734    1
   668   732   733    1
   669   174   172   ar
   670   126   124    1
   671   126   128    1
   672   170   166    1
   673    99    98    2
   674   124   125    1
   675   172   173    2
   676   146   147    1
   677   759   761   ar
   678   759   758   ar
   679   106   105    1
   680   158   159   ar
   681   158   156   ar
   682   150   151    1
   683   159   152   ar
   684   733   744    1
   685   761   762   ar
   686   746   744    2
   687   757   758   ar
   688   757   756   ar
   689   758   764   ar
   690   101    98    1
   691   101   102    1
   692    98   100    1
   693    98    87    1
   694   128   129    1
   695   102   103    1
   696   157   156    1
   697   147   151    1
   698   156   155   ar
   699   125   129    1
   700   152   151    1
   701   152   153   ar
   702   762   763   ar
   703   756   755   ar
   704   105   103    1
   705   105   107    1
   706   744   747    1
   707   744   745    1
   708   764   763   ar
   709   764   755   ar
   710    80    79    2
   711   103   104    1
   712    87    86    1
   713   129   130    1
   714   155   153   ar
   715   153   154    2
   716   131   130   ar
   717   131   132   ar
   718   755   754    1
   719   130   140   ar
   720   781   780    2
   721   747   748    1
   722   132   133   ar
   723   107   108    1
   724   782   780   ar
   725   782   783   ar
   726   750   754    1
   727   750   749    1
   728   780   779   ar
   729    79    81    1
   730    79    82    1
   731    79    68    1
   732   754   753    1
   733    86    84    1
   734    86    88    1
   735   140   133   ar
   736   140   139   ar
   737   784   783    1
   738   104   108    1
   739   133   134   ar
   740    82    83    1
   741   783   785   ar
   742    83    84    1
   743   779   778   ar
   744   779   786   ar
   745   139   137   ar
   746   748   749    1
   747   108   109    1
   748   778   777   ar
   749    84    85    1
   750   785   786   ar
   751   134   135    2
   752   134   136   ar
   753    88    89    1
   754   749   751    1
   755   110   109   ar
   756   110   111   ar
   757   786   776   ar
   758   109   118   ar
   759   137   136   ar
   760   137   138    1
   761    68    67    1
   762   753   751    1
   763   777   776   ar
   764   111   112   ar
   765   776   775    1
   766   751   752    1
   767   118   112   ar
   768   118   117   ar
   769  1030  1029    2
   770   112   113   ar
   771   775   771    1
   772   775   774    1
   773    85    89    1
   774    89    90    1
   775   771   770    1
   776   117   116   ar
   777  1009  1008    2
   778  1252  1251    2
   779    67    69    1
   780    67    65    1
   781    97    90   ar
   782    97    96   ar
   783   803   802    1
   784   113   114    1
   785   113   115   ar
   786    90    91   ar
   787   801   802   ar
   788   801   799   ar
   789  1255  1256    1
   790  1255  1254    1
   791  1273  1272    2
   792   800   799    2
   793   767   765    2
   794   752   765    1
   795   116   115   ar
   796  1236  1237    1
   797  1236  1238    1
   798  1236  1235    1
   799  1256  1257    1
   800  1256  1258    1
   801  1239  1238    1
   802  1239  1251    1
   803   802   804   ar
   804   799   798   ar
   805    96    94   ar
   806  1240  1241    1
   807  1240  1238    1
   808  1029  1016    1
   809  1029  1031    1
   810  1029  1032    1
   811  1237  1241    1
   812    64    65    1
   813    64    63    1
   814  1016  1015    1
   815  1012  1013    1
   816  1012  1011    1
   817  1241  1242    1
   818  1049  1048    2
   819    69    70    1
   820   774   772    1
   821    65    66    1
   822    91    92    2
   823    91    93   ar
   824  1259  1258    1
   825  1259  1272    1
   826  1228  1229   ar
   827  1228  1227   ar
   828  1235  1234    1
   829  1257  1261    1
   830  1229  1230   ar
   831   996  1008    1
   832   996   995    1
   833   765   768    1
   834   765   766    1
   835   770   769    1
   836   770   772    1
   837   768   769    1
   838  1008  1011    1
   839  1008  1010    1
   840   804   805   ar
   841    94    93   ar
   842    94    95    1
   843  1251  1254    1
   844  1251  1253    1
   845   798   805   ar
   846   798   797    1
   847  1013  1015    1
   848  1013  1014    1
   849    61    60    2
   850  1258  1260    1
   851  1033  1032    1
   852  1033  1034    1
   853  1272  1274    1
   854  1272  1275    1
   855   797   793    1
   856   797   796    1
   857  1220  1219    1
   858  1220  1216    1
   859  1220  1221    1
   860  1244  1243    2
   861    63    60    1
   862   772   773    1
   863  1015  1017    1
   864  1227  1225   ar
   865  1048  1037    1
   866  1048  1050    1
   867  1048  1051    1
   868  1260  1261    1
   869   793   792    1
   870  1261  1262    1
   871  1219  1217    1
   872  1242  1243   ar
   873  1242  1249   ar
   874  1218  1231    1
   875  1218  1217    1
   876    66    70    1
   877  1234  1231    1
   878  1230  1221   ar
   879  1230  1224   ar
   880    70    71    1
   881    60    62    1
   882    60    47    1
   883  1216  1215    1
   884   993   995    1
   885   993   992    1
   886   993   994    1
   887   995   997    1
   888   819   818    2
   889   992   991    1
   890  1232  1231    2
   891  1243  1245   ar
   892  1014  1018    1
   893  1037  1036    1
   894   820   818   ar
   895   820   821   ar
   896  1275  1276    1
   897   822   821    2
   898  1276  1277    1
   899   997   998    1
   900  1221  1222   ar
   901  1034  1036    1
   902  1034  1035    1
   903   818   817   ar
   904  1231  1233    1
   905   989   988    2
   906  1017  1018    1
   907  1215  1217    1
   908  1215  1214    1
   909   821   823   ar
   910   796   794    1
   911    71    72   ar
   912    71    78   ar
   913    73    72    2
   914  1249  1248   ar
   915  1225  1224   ar
   916  1225  1226    1
   917   773   787    1
   918  1051  1052    1
   919    72    74   ar
   920    78    77   ar
   921  1036  1038    1
   922  1224  1223   ar
   923   817   816    1
   924   817   824   ar
   925   792   791    1
   926   792   794    1
   927  1454  1453    2
   928   994   998    1
   929  1262  1263   ar
   930  1262  1271   ar
   931  1018  1019    1
   932   823   824   ar
   933   823   825    1
   934    47    46    1
   935   816   812    1
   936   816   815    1
   937   812   811    1
   938  1474  1473    2
   939   998   999    1
   940  1245  1246   ar
   941  1263  1264   ar
   942   991   988    1
   943    74    75   ar
   944    77    75   ar
   945  1035  1039    1
   946  1457  1458    1
   947  1457  1456    1
   948  1052  1053    1
   949   790   791    1
   950   790   787    1
   951  1222  1223   ar
   952   794   795    1
   953   789   787    2
   954   988   976    1
   955   988   990    1
   956   787   788    1
   957  1277  1278    1
   958  1277  1279    1
   959    75    76    1
   960   811   810    1
   961   811   813    1
   962  1214  1213    1
   963   976   975    1
   964  1461  1473    1
   965  1461  1460    1
   966  1458  1460    1
   967  1458  1459    1
   968  1248  1246   ar
   969  1248  1250    1
   970   815   813    1
   971  1278  1282    1
   972  1441  1453    1
   973  1441  1440    1
   974  1271  1270   ar
   975  1271  1265   ar
   976  1246  1247    2
   977  1038  1039    1
   978  1453  1456    1
   979  1453  1455    1
   980  1019  1020   ar
   981  1019  1028   ar
   982  1020  1021   ar
   983    46    48    1
   984    46    44    1
   985  1473  1475    1
   986  1473  1476    1
   987   810   809    1
   988    48    49    1
   989  1270  1269   ar
   990  1072  1070    2
   991  1039  1040    1
   992  1264  1265   ar
   993  1047  1046   ar
   994  1047  1040   ar
   995  1292  1291    2
   996  1460  1462    1
   997   813   814    1
   998  1280  1279    1
   999  1280  1291    1
  1000   999  1000   ar
  1001   999  1006   ar
  1002  1459  1463    1
  1003  1477  1476    1
  1004  1477  1478    1
  1005   977   975    1
  1006   977   978    1
  1007  1001  1000    2
  1008  1071  1070    1
  1009  1279  1281    1
  1010  1438  1437    1
  1011  1438  1440    1
  1012  1438  1439    1
  1013   795   806    1
  1014  1213  1210    1
  1015  1250  1200    1
  1016   814   826    1
  1017  1053  1054    1
  1018  1053  1055    1
  1019   975   973    1
  1020  1293  1291    1
  1021  1437  1436    1
  1022  1440  1442    1
  1023  1442  1443    1
  1024  1070  1056    1
  1025  1070  1073    1
  1026  1290  1289   ar
  1027  1290  1283   ar
  1028  1265  1266   ar
  1029  1291  1294    1
  1030  1493  1492    2
  1031   973   972    1
  1032   973   974    1
  1033  1046  1044   ar
  1034  1000  1002   ar
  1035  1040  1041   ar
  1036  1006  1005   ar
  1037  1462  1463    1
  1038  1439  1443    1
  1039   809   806    1
  1040  1021  1022   ar
  1041  1282  1281    1
  1042  1282  1283    1
  1043  1028  1027   ar
  1044  1028  1022   ar
  1045  1054  1058    1
  1046  1289  1287   ar
  1047    44    43    1
  1048    44    45    1
  1049  1212  1210    1
  1050  1056  1055    1
  1051  1443  1444    1
  1052  1463  1464    1
  1053  1478  1480    1
  1054  1478  1479    1
  1055  1269  1268   ar
  1056   978   974    1
  1057   978   979    1
  1058    49    45    1
  1059    49    50    1
  1060  1055  1057    1
  1061   806   808    2
  1062   806   807    1
  1063  1481  1492    1
  1064  1481  1480    1
  1065   972   971    1
  1066  1027  1026   ar
  1067   828   826    2
  1068    40    39    2
  1069  1283  1284   ar
  1070  1210  1211    1
  1071    42    43    1
  1072    42    39    1
  1073  1199  1211    1
  1074  1199  1198    1
  1075  1089  1087    1
  1076   981   980    2
  1077    58    57   ar
  1078    58    59   ar
  1079  1434  1433    2
  1080  1060  1061   ar
  1081  1060  1059   ar
  1082  1022  1023   ar
  1083  1492  1494    1
  1084  1492  1495    1
  1085    57    56   ar
  1086   827   826    1
  1087   826   829    1
  1088  1200  1198    1
  1089  1200  1201    1
  1090  1436  1433    1
  1091  1266  1268   ar
  1092  1266  1267    1
  1093  1446  1445    2
  1094  1480  1482    1
  1095  1002  1003   ar
  1096    50    59   ar
  1097    50    51   ar
  1098    59    53   ar
  1099  1005  1003   ar
  1100  1005  1007    1
  1101   845   843    1
  1102  1479  1483    1
  1103  1044  1043   ar
  1104  1044  1045    1
  1105  1041  1042    2
  1106  1041  1043   ar
  1107  1073  1074    1
  1108  1061  1062   ar
  1109  1204  1203    2
  1110    39    41    1
  1111    39    27    1
  1112  1421  1422    1
  1113  1421  1419    1
  1114  1294  1295    1
  1115  1420  1433    1
  1116  1420  1419    1
  1117    56    54   ar
  1118  1287  1288    1
  1119  1287  1286   ar
  1120  1058  1059    1
  1121  1058  1057    1
  1122  1433  1435    1
  1123  1444  1445   ar
  1124  1444  1451   ar
  1125   979   980   ar
  1126   979   986   ar
  1127  1464  1471   ar
  1128  1464  1465   ar
  1129  1198  1196    1
  1130  1431  1430   ar
  1131  1431  1432   ar
  1132   980   982   ar
  1133    51    52   ar
  1134    53    54   ar
  1135    53    52   ar
  1136  1059  1069   ar
  1137  1471  1470   ar
  1138  1430  1429   ar
  1139  1026  1025   ar
  1140    54    55    1
  1141  1003  1004    2
  1142  1284  1286   ar
  1143  1284  1285    2
  1144  1445  1447   ar
  1145   971   968    1
  1146  1295  1296    1
  1147  1422  1418    1
  1148  1422  1423    1
  1149  1087  1088   ar
  1150  1087  1085   ar
  1151  1074  1075    1
  1152  1201  1202    1
  1153  1201  1197    1
  1154  1419  1417    1
  1155  1482  1483    1
  1156  1023  1025   ar
  1157  1023  1024    1
  1158  1495  1496    1
  1159  1483  1484    1
  1160  1496  1497    1
  1161    27    26    1
  1162  1196  1197    1
  1163  1196  1195    1
  1164   829   830    1
  1165   843   844   ar
  1166   843   841   ar
  1167  1203  1202   ar
  1168  1203  1205   ar
  1169  1086  1085    2
  1170  1466  1465    2
  1171  1451  1450   ar
  1172   969   968    2
  1173   842   841    2
  1174  1465  1467   ar
  1175  1062  1069   ar
  1176  1062  1063   ar
  1177  1417  1418    1
  1178  1417  1416    1
  1179   986   985   ar
  1180  1088  1081   ar
  1181  1308  1309   ar
  1182  1308  1306   ar
  1183  1432  1423   ar
  1184  1432  1426   ar
  1185  1202  1209   ar
  1186   968   955    1
  1187   968   970    1
  1188  1429  1427   ar
  1189   982   983   ar
  1190  1085  1084   ar
  1191   955   954    1
  1192  1069  1068   ar
  1193  1470  1472    1
  1194  1470  1468   ar
  1195   844   837   ar
  1196  1423  1424   ar
  1197  1188  1187   ar
  1198  1188  1189   ar
  1199   841   840   ar
  1200   956   954    1
  1201   956   957    1
  1202  1309  1302   ar
  1203   830   831    1
  1204  1447  1448   ar
  1205  1205  1206   ar
  1206  1092  1090    2
  1207   966   965   ar
  1208   966   967   ar
  1209   965   964   ar
  1210    28    26    1
  1211    28    29    1
  1212  1187  1185   ar
  1213  1491  1484   ar
  1214  1491  1490   ar
  1215    26    24    1
  1216  1296  1297    1
  1217  1296  1298    1
  1218  1307  1306    1
  1219  1515  1513    2
  1220  1195  1194    1
  1221  1484  1485   ar
  1222  1075  1076    1
  1223  1075  1077    1
  1224  1297  1301    1
  1225  1064  1063    2
  1226  1063  1065   ar
  1227  1306  1305   ar
  1228   954   952    1
  1229  1450  1448   ar
  1230  1450  1452    1
  1231  1076  1080    1
  1232  1189  1190   ar
  1233  1497  1498    1
  1234  1497  1499    1
  1235   832   831    1
  1236   832   836    1
  1237  1467  1468   ar
  1238   985   983   ar
  1239   985   987    1
  1240  1416  1415    1
  1241  1077  1078    1
  1242  1077  1079    1
  1243  1426  1427   ar
  1244  1426  1425   ar
  1245    32    31    2
  1246  1427  1428    1
  1247  1514  1513    1
  1248   983   984    2
  1249  1081  1080    1
  1250  1081  1082   ar
  1251  1209  1208   ar
  1252  1468  1469    2
  1253   837   838   ar
  1254   837   836    1
  1255  1068  1066   ar
  1256   840   838   ar
  1257  1090  1078    1
  1258  1090  1091    1
  1259  1090  1093    1
  1260  1405  1404    2
  1261  1448  1449    2
  1262   957   958    1
  1263   957   953    1
  1264  1298  1299    1
  1265  1298  1300    1
  1266  1084  1082   ar
  1267  1498  1502    1
  1268   831   833    1
  1269   964   962   ar
  1270  1302  1301    1
  1271  1302  1303   ar
  1272  1424  1425   ar
  1273  1206  1208   ar
  1274  1206  1207    1
  1275  1490  1488   ar
  1276  1513  1500    1
  1277  1513  1516    1
  1278   967   958   ar
  1279   967   961   ar
  1280  1312  1310    2
  1281  1185  1186    1
  1282  1185  1184   ar
  1283  1301  1300    1
  1284  1299  1310    1
  1285  1194  1191    1
  1286   952   953    1
  1287   952   951    1
  1288    31    33   ar
  1289    31    30   ar
  1290    29    30    1
  1291    29    25    1
  1292  1080  1079    1
  1293  1504  1505   ar
  1294  1504  1503   ar
  1295    24    23    1
  1296    24    25    1
  1297   838   839    1
  1298  1500  1499    1
  1299   836   835    1
  1300  1485  1486    2
  1301  1485  1487   ar
  1302  1499  1501    1
  1303   958   959   ar
  1304  1082  1083    2
  1305  1065  1066   ar
  1306  1305  1303   ar
  1307  1415  1412    1
  1308  1190  1184   ar
  1309  1190  1181   ar
  1310  1505  1506   ar
  1311  1066  1067    1
  1312    33    34   ar
  1313    30    37   ar
  1314  1310  1311    1
  1315  1310  1313    1
  1316  1404  1406   ar
  1317  1404  1403   ar
  1318  1406  1407   ar
  1319   833   835    1
  1320   833   834    1
  1321  1303  1304    2
  1322  1326  1325    1
  1323   962   961   ar
  1324   962   963    1
  1325    23    22    1
  1326  1184  1183   ar
  1327  1093  1094    1
  1328   961   960   ar
  1329  1502  1503    1
  1330  1502  1501    1
  1331  1179  1180    1
  1332  1179  1177    1
  1333  1488  1487   ar
  1334  1488  1489    1
  1335  1323  1322   ar
  1336  1323  1324   ar
  1337    22    19    1
  1338  1106  1105    1
  1339  1107  1105   ar
  1340  1107  1108   ar
  1341   944   943   ar
  1342   944   945   ar
  1343   839   859    1
  1344  1516  1517    1
  1345  1503  1512   ar
  1346   943   941   ar
  1347   951   950    1
  1348  1401  1402    1
  1349  1401  1399    1
  1350    20    19    2
  1351    34    35    2
  1352    34    36   ar
  1353    37    36   ar
  1354  1167  1166    1
  1355  1145  1144    2
  1356  1192  1191    2
  1357  1385  1384    2
  1358  1191  1178    1
  1359  1191  1193    1
  1360   959   960   ar
  1361  1181  1180    1
  1362  1181  1182   ar
  1363  1125  1124    2
  1364  1347  1346    2
  1365   834   846    1
  1366  1408  1407    2
  1367  1128  1126    1
  1368    36    38    1
  1369  1407  1409   ar
  1370  1105  1104   ar
  1371  1178  1177    1
  1372  1386  1384   ar
  1373  1386  1387   ar
  1374   848   846    2
  1375  1322  1321   ar
  1376  1313  1314    1
  1377  1108  1101   ar
  1378  1180  1176    1
  1379  1403  1402    1
  1380  1403  1410   ar
  1381  1402  1398    1
  1382  1506  1512   ar
  1383  1506  1507   ar
  1384  1412  1413    2
  1385  1412  1400    1
  1386  1412  1414    1
  1387  1325  1324   ar
  1388  1325  1327   ar
  1389    19    21    2
  1390  1388  1387    2
  1391  1177  1175    1
  1392  1324  1330   ar
  1393  1165  1166   ar
  1394  1165  1163   ar
  1395   945   946   ar
  1396  1094  1095    1
  1397  1369  1368    1
  1398  1384  1383   ar
  1399  1183  1182   ar
  1400  1166  1168   ar
  1401  1512  1511   ar
  1402  1517  1518    1
  1403   950   947    1
  1404  1400  1399    1
  1405  1550  1549    2
  1406  1399  1397    1
  1407   862   861    1
  1408   941   942    1
  1409   941   940   ar
  1410  1553  1551    1
  1411  1387  1389   ar
  1412  1144  1146   ar
  1413  1144  1143   ar
  1414  1508  1507    1
  1415   846   847    1
  1416   846   849    1
  1417  1124  1126   ar
  1418  1124  1123   ar
  1419  1526  1525   ar
  1420  1526  1527   ar
  1421  1164  1163    2
  1422    16    15   ar
  1423    16    17   ar
  1424  1346  1348   ar
  1425  1346  1345   ar
  1426   859   858    1
  1427   859   860    1
  1428  1507  1509   ar
  1429  1126  1127   ar
  1430  1146  1147   ar
  1431  1111  1109    2
  1432    15    13   ar
  1433  1163  1162   ar
  1434  1410  1409   ar
  1435  1409  1411    1
  1436  1104  1102   ar
  1437  1314  1315    1
  1438  1327  1328   ar
  1439  1525  1524   ar
  1440  1101  1102   ar
  1441  1101  1100    1
  1442  1096  1095    1
  1443  1096  1100    1
  1444  1321  1330   ar
  1445  1321  1320    1
  1446  1536  1534    2
  1447  1176  1175    1
  1448  1529  1528    1
  1449    17    18   ar
  1450   946   940   ar
  1451   946   937   ar
  1452  1398  1397    1
  1453  1330  1329   ar
  1454  1344  1345   ar
  1455  1344  1343   ar
  1456  1368  1367   ar
  1457  1368  1370   ar
  1458  1095  1097    1
  1459  1367  1365   ar
  1460  1175  1174    1
  1461     7     5    1
  1462     7     8    1
  1463  1570  1569    2
  1464  1549  1551   ar
  1465  1549  1548   ar
  1466   940   939   ar
  1467   858   857    1
  1468  1348  1349   ar
  1469    13    14    1
  1470    13    12   ar
  1471  1383  1382    1
  1472  1383  1390   ar
  1473   861   860   ar
  1474   861   863   ar
  1475  1168  1169   ar
  1476     6     5    1
  1477  1511  1510   ar
  1478  1345  1352   ar
  1479  1397  1396    1
  1480  1551  1552   ar
  1481  1143  1142   ar
  1482  1143  1150   ar
  1483  1519  1518    1
  1484  1519  1523    1
  1485  1518  1520    1
  1486   860   866   ar
  1487  1102  1103    2
  1488   849   850    1
  1489  1316  1315    1
  1490  1316  1320    1
  1491  1142  1141   ar
  1492   948   947    2
  1493  1097  1098    1
  1494  1097  1099    1
  1495  1123  1121   ar
  1496   947   934    1
  1497   947   949    1
  1498   935   933    1
  1499   935   936    1
  1500    18    12   ar
  1501    18     9   ar
  1502  1389  1390   ar
  1503  1389  1391    1
  1504  1527  1528   ar
  1505  1527  1533   ar
  1506  1100  1099    1
  1507    12    11   ar
  1508  1382  1381    1
  1509  1382  1378    1
  1510  1333  1331    2
  1511  1127  1120   ar
  1512  1315  1317    1
  1513  1147  1148    1
  1514  1147  1149   ar
  1515  1509  1510   ar
  1516  1520  1521    1
  1517  1520  1522    1
  1518  1528  1530   ar
  1519  1328  1329   ar
  1520     5     3    1
  1521  1573  1571    1
  1522   883   882    2
  1523  1162  1169   ar
  1524  1162  1161    1
  1525   903   902    2
  1526  1320  1319    1
  1527   923   922    1
  1528   934   933    1
  1529  1109  1110    1
  1530  1109  1098    1
  1531  1109  1112    1
  1532  1381  1379    1
  1533   937   936    1
  1534   937   938   ar
  1535  1343  1342   ar
  1536  1317  1319    1
  1537  1317  1318    1
  1538     9     8    1
  1539     9    10   ar
  1540  1524  1523    1
  1541  1524  1533   ar
  1542  1521  1534    1
  1543  1370  1371   ar
  1544     8     4    1
  1545  1365  1366    2
  1546  1365  1364   ar
  1547  1534  1535    1
  1548  1534  1537    1
  1549  1174  1173    1
  1550   933   931    1
  1551  1569  1571    1
  1552  1569  1568   am
  1553   863   864   ar
  1554  1548  1546   ar
  1555   921   922   ar
  1556   921   919   ar
  1557   936   932    1
  1558    11    10   ar
  1559   939   938   ar
  1560   886   884    1
  1561   857   866    1
  1562   857   856    1
  1563  1523  1522    1
  1564  1396  1395    1
  1565  1150  1149   ar
  1566  1150  1140   ar
  1567  1552  1545   ar
  1568  1349  1350    1
  1569  1349  1351   ar
  1570   866   865   ar
  1571   850   851    1
  1572  1352  1342   ar
  1573  1352  1351   ar
  1574  1533  1532   ar
  1575  1141  1140   ar
  1576  1172  1170    2
  1577  1160  1161    1
  1578  1160  1158    1
  1579  1112  1113    1
  1580  1121  1120   ar
  1581  1121  1122    2
  1582  1571  1572    2
  1583   852   856    1
  1584   852   851    1
  1585   922   924   ar
  1586  1120  1119    1
  1587   920   919    2
  1588  1378  1377    1
  1589  1318  1331    1
  1590   882   884   ar
  1591   882   881   ar
  1592   902   901   ar
  1593   902   904   ar
  1594  1161  1157    1
  1595  1530  1531   ar
  1596  1342  1341    1
  1597  1537  1538    1
  1598  1331  1334    1
  1599  1331  1332    1
  1600  1568  1566   am
  1601     3     4    1
  1602     3     2    1
  1603  1173  1170    1
  1604   919   918   ar
  1605  1371  1364   ar
  1606  1364  1363    1
  1607  1140  1139    1
  1608   901   899   ar
  1609   864   865   ar
  1610  1131  1129    2
  1611   856   855    1
  1612   884   885   ar
  1613  1379  1377    1
  1614  1379  1380    1
  1615   851   853    1
  1616  1158  1159    1
  1617  1158  1156    1
  1618  1546  1545   ar
  1619  1546  1547    2
  1620  1395  1392    1
  1621  1545  1544    1
  1622   931   932    1
  1623   931   930    1
  1624  1159  1170    1
  1625  1170  1171    1
  1626  1334  1335    1
  1627  1532  1531   ar
  1628   906   904    1
  1629  1394  1392    2
  1630   869   867    2
  1631  1377  1376    1
  1632  1572  1565    1
  1633   881   879   ar
  1634  1380  1392    1
  1635  1119  1115    1
  1636  1119  1118    1
  1637  1115  1114    1
  1638  1113  1114    1
  1639   853   855    1
  1640   853   854    1
  1641   904   905   ar
  1642   924   925   ar
  1643  1157  1156    1
  1644     1     2    1
  1645  1392  1393    1
  1646  1566  1565    2
  1647  1566  1567    2
  1648  1116  1118    1
  1649  1116  1114    1
  1650  1116  1117    1
  1651  1538  1539    1
  1652  1341  1337    1
  1653  1341  1340    1
  1654   930   929    1
  1655  1363  1362    1
  1656  1363  1359    1
  1657   918   925   ar
  1658   918   917    1
  1659  1153  1151    2
  1660   899   900    2
  1661   899   898   ar
  1662   885   878   ar
  1663  1337  1336    1
  1664  1156  1155    1
  1665  1129  1132    1
  1666  1129  1117    1
  1667  1129  1130    1
  1668  1540  1544    1
  1669  1540  1539    1
  1670  1139  1138    1
  1671  1139  1135    1
  1672  1154  1155    1
  1673  1154  1151    1
  1674  1544  1543    1
  1675  1132  1133    1
  1676  1362  1360    1
  1677  1541  1539    1
  1678  1541  1543    1
  1679  1138  1136    1
  1680   928   926    2
  1681  1335  1336    1
  1682   854   867    1
  1683  1376  1375    1
  1684  1340  1338    1
  1685   867   870    1
  1686   867   868    1
  1687  1375  1372    1
  1688   879   878   ar
  1689   879   880    2
  1690  1355  1353    2
  1691   905   898   ar
  1692  1338  1336    1
  1693  1338  1339    1
  1694  1135  1134    1
  1695  1136  1134    1
  1696  1136  1137    1
  1697   916   917    1
  1698   916   914    1
  1699  1359  1358    1
  1700   917   913    1
  1701   878   877    1
  1702   898   897    1
  1703  1151  1137    1
  1704  1151  1152    1
  1705   929   926    1
  1706  1360  1358    1
  1707  1360  1361    1
  1708  1542  1554    1
  1709  1542  1555    1
  1710  1374  1372    2
  1711   870   871    1
  1712  1134  1133    1
  1713   926   915    1
  1714   926   927    1
  1715  1372  1361    1
  1716  1372  1373    1
  1717  1356  1353    1
  1718  1356  1357    1
  1719  1554  1557    1
  1720  1554  1555    1
  1721  1554  1556    2
  1722  1557  1558    1
  1723  1358  1357    1
  1724   914   915    1
  1725   914   912    1
  1726  1339  1353    1
  1727  1353  1354    1
  1728   913   912    1
  1729   873   877    1
  1730   873   872    1
  1731   877   876    1
  1732   897   896    1
  1733   897   893    1
  1734  1560  1559    1
  1735  1560  1564    1
  1736  1559  1558    1
  1737  1559  1561    1
  1738   871   872    1
  1739   889   887    2
  1740   896   894    1
  1741   912   911    1
  1742   909   907    2
  1743   872   874    1
  1744   893   892    1
  1745   874   876    1
  1746   874   875    1
  1747  1564  1563    1
  1748  1562  1561    1
  1749  1563  1561    1
  1750   894   892    1
  1751   894   895    1
  1752   890   887    1
  1753   890   891    1
  1754   911   910    1
  1755   887   875    1
  1756   887   888    1
  1757   892   891    1
  1758   907   910    1
  1759   907   895    1
  1760   907   908    1
