FB1.pdb
  RxDock  10062022193D
librxdock.so/0.1.0
 59 58  0  0  0  0  0  0  0  0999 V2000
   -7.8449   -5.7883    0.5657 C   0  0  0  0  0  0
   -8.5511   -5.6963   -0.7849 C   0  0  0  0  0  0
   -7.5736   -5.9027   -1.9538 C   0  0  0  0  0  0
   -7.1549   -4.5831   -2.6489 C   0  0  0  0  0  0
   -8.1880   -4.0271   -3.6901 C   0  0  0  0  0  0
   -9.0055   -2.9043   -3.0107 C   0  0  0  0  0  0
   -7.5181   -3.5089   -5.0320 C   0  0  0  0  0  0
   -8.0259   -4.1712   -6.3993 C   0  0  0  0  0  0
   -9.0098   -3.4810   -7.4403 C   0  0  0  0  0  0
   -9.8736   -4.5231   -8.3833 C   0  0  0  0  0  0
  -11.0172   -5.0978   -7.5491 C   0  0  0  0  0  0
  -10.4523   -3.9249   -9.7442 C   0  0  0  0  0  0
   -9.5371   -3.4872  -11.0049 C   0  0  0  0  0  0
   -9.5847   -2.0453  -11.6172 C   0  0  0  0  0  0
  -10.8762   -1.1479  -11.3418 C   0  0  0  0  0  0
  -12.3622   -1.6435  -11.5433 C   0  0  0  0  0  0
  -13.5243   -0.8719  -10.8640 C   0  0  0  0  0  0
  -13.1317    0.4208  -10.0492 C   0  0  0  0  0  0
  -13.2170    1.7525  -10.8054 C   0  0  0  0  0  0
  -12.1362    2.0607  -11.8801 C   0  0  0  0  0  0
  -12.0677    3.4630  -12.5541 C   0  0  0  0  0  0
  -13.2597    3.8606  -13.4134 C   0  0  0  0  0  0
  -11.7617    4.5094  -11.5602 N   0  0  0  0  0  0
  -10.8727    1.9174  -11.1824 O   0  0  0  0  0  0
  -13.9833    0.4946   -8.9007 O   0  0  0  0  0  0
   -8.1824   -3.6594  -10.5556 O   0  0  0  0  0  0
   -6.8328   -4.4684   -7.1744 O   0  0  0  0  0  0
   -6.3251   -3.4638   -7.9349 C   0  0  0  0  0  0
   -6.9064   -2.4481   -8.2661 O   0  0  0  0  0  0
   -4.8799   -3.7663   -8.2199 C   0  0  0  0  0  0
   -4.5840   -5.2745   -8.2332 C   0  0  0  0  0  0
   -5.5578   -6.0576   -9.1231 C   0  0  0  0  0  0
   -5.4922   -5.5797  -10.5551 C   0  0  0  0  0  0
   -5.5392   -4.3978  -10.8786 O   0  0  0  0  0  0
   -5.3752   -6.5755  -11.4459 O   0  0  0  0  0  0
   -3.1523   -5.4188   -8.7675 C   0  0  0  0  0  0
   -2.8654   -6.1204   -9.7255 O   0  0  0  0  0  0
   -2.2294   -4.7481   -8.0643 O   0  0  0  0  0  0
   -7.5267   -2.0271   -5.0971 O   0  0  0  0  0  0
   -7.9373   -1.4215   -6.2730 C   0  0  0  0  0  0
   -7.3231   -0.5340   -6.8505 O   0  0  0  0  0  0
   -9.2667   -1.9885   -6.7884 C   0  0  0  0  0  0
  -10.5553   -1.3576   -6.1752 C   0  0  0  0  0  0
  -11.6628   -2.3078   -5.6844 C   0  0  0  0  0  0
  -12.9219   -1.5891   -5.2941 C   0  0  0  0  0  0
  -13.5476   -1.7580   -4.2565 O   0  0  0  0  0  0
  -13.3076   -0.6926   -6.2150 O   0  0  0  0  0  0
  -10.2973   -0.3447   -5.0528 C   0  0  0  0  0  0
  -10.5217   -0.5843   -3.8828 O   0  0  0  0  0  0
   -9.6998    0.8036   -5.4347 O   0  0  0  0  0  0
  -11.1929    5.2317  -11.9999 H   0  0  0  0  0  0
  -11.1626    4.1068  -10.8360 H   0  0  0  0  0  0
  -10.4191    1.1798  -11.6425 H   0  0  0  0  0  0
  -13.6571   -0.1425   -8.2387 H   0  0  0  0  0  0
   -7.5939   -3.5291  -11.3179 H   0  0  0  0  0  0
   -4.6669   -6.4610  -12.1082 H   0  0  0  0  0  0
   -2.5732   -4.3167   -7.2431 H   0  0  0  0  0  0
  -14.1611   -0.3217   -5.9064 H   0  0  0  0  0  0
   -9.5935    1.4769   -4.7265 H   0  0  0  0  0  0
  1  2  1  0  0  0
  2  3  1  0  0  0
  3  4  1  0  0  0
  4  5  1  0  0  0
  5  6  1  0  0  0
  5  7  1  0  0  0
  7  8  1  0  0  0
  7 39  1  0  0  0
  8  9  1  0  0  0
  8 27  1  0  0  0
  9 10  1  0  0  0
 10 11  1  0  0  0
 10 12  1  0  0  0
 12 13  1  0  0  0
 13 14  1  0  0  0
 13 26  1  0  0  0
 14 15  1  0  0  0
 15 16  1  0  0  0
 16 17  1  0  0  0
 17 18  1  0  0  0
 18 19  1  0  0  0
 18 25  1  0  0  0
 19 20  1  0  0  0
 20 21  1  0  0  0
 20 24  1  0  0  0
 21 22  1  0  0  0
 21 23  1  0  0  0
 23 51  1  0  0  0
 23 52  1  0  0  0
 24 53  1  0  0  0
 25 54  1  0  0  0
 26 55  1  0  0  0
 27 28  1  0  0  0
 28 29  2  0  0  0
 28 30  1  0  0  0
 30 31  1  0  0  0
 31 32  1  0  0  0
 31 36  1  0  0  0
 32 33  1  0  0  0
 33 34  2  0  0  0
 33 35  1  0  0  0
 35 56  1  0  0  0
 36 37  2  0  0  0
 36 38  1  0  0  0
 38 57  1  0  0  0
 39 40  1  0  0  0
 40 41  2  0  0  0
 40 42  1  0  0  0
 42 43  1  0  0  0
 43 44  1  0  0  0
 43 48  1  0  0  0
 44 45  1  0  0  0
 45 46  2  0  0  0
 45 47  1  0  0  0
 47 58  1  0  0  0
 48 49  2  0  0  0
 48 50  1  0  0  0
 50 59  1  0  0  0
M  END
>  <AUTHOR>
    GENERATED BY OPEN BABEL 2.4.1

>  <CHROM.1>
-101.89172382,-81.01926380,99.76708815,123.23050487,103.76947595,-133.43191420
-154.96280758,-85.08061677,77.06654422,68.78386953,-123.78640217,-20.93685021
172.14296545,-49.03213448,161.87019951,2.53111112,94.25627462,-72.93970735
77.35953540,-172.47536568,-64.79055344,117.54091713,146.09802799,-17.16715021
28.40130668,50.28380769,59.88293812,-125.30634382,-48.56520455,-130.73739747
5.52887886,-130.67460296,84.68239841,-132.79268735,-172.02808526,-107.15996433
-131.51742424,176.23549927,175.83060083,-9.05740069,-2.36861533,-7.78692590
0.66927350,-0.65172001,1.83546338

>  <COMPND>
    UNNAMED

>  <MASTER>
        0    0    0    0    0    0    0    0  109    0  109    0

>  <Name>
FB1.pdb

>  <RI>
0

>  <Rbt.Current_Directory>
/home/fc/tossine/FB1_39/p3/0_clust04

>  <Rbt.Executable>
rbdock/0.1.0

>  <Rbt.Library>
librxdock.so/0.1.0

>  <Rbt.Parameter_File>
/cluster/rxdock/data/scripts/dock.prm

>  <Rbt.Receptor>
rx_3.prm

>  <SCORE>
133.034

>  <SCORE.INTER>
54.5375

>  <SCORE.INTER.CONST>
1

>  <SCORE.INTER.POLAR>
-1.58215

>  <SCORE.INTER.REPUL>
1.45626

>  <SCORE.INTER.ROT>
32

>  <SCORE.INTER.VDW>
15.2355

>  <SCORE.INTER.norm>
1.09075

>  <SCORE.INTRA>
69.3373

>  <SCORE.INTRA.DIHEDRAL>
64.2708

>  <SCORE.INTRA.DIHEDRAL.0>
47.3121

>  <SCORE.INTRA.POLAR>
0.336552

>  <SCORE.INTRA.POLAR.0>
-1.47808

>  <SCORE.INTRA.REPUL>
0

>  <SCORE.INTRA.REPUL.0>
0

>  <SCORE.INTRA.VDW>
36.0576

>  <SCORE.INTRA.VDW.0>
-2.78316

>  <SCORE.INTRA.norm>
1.38675

>  <SCORE.RESTR>
9.15925

>  <SCORE.RESTR.CAVITY>
9.15925

>  <SCORE.RESTR.norm>
0.183185

>  <SCORE.SYSTEM>
0

>  <SCORE.SYSTEM.CONST>
0

>  <SCORE.SYSTEM.DIHEDRAL>
0

>  <SCORE.SYSTEM.norm>
0

>  <SCORE.heavy>
50

>  <SCORE.norm>
2.66068

$$$$
