FB1.pdb
  RxDock  10062022573D
librxdock.so/0.1.0
 59 58  0  0  0  0  0  0  0  0999 V2000
   -2.4262   -3.5151   -8.4860 C   0  0  0  0  0  0
   -3.3190   -2.3516   -8.9109 C   0  0  0  0  0  0
   -3.6887   -1.4529   -7.7193 C   0  0  0  0  0  0
   -4.4476   -2.2002   -6.5944 C   0  0  0  0  0  0
   -5.4493   -1.3165   -5.7721 C   0  0  0  0  0  0
   -6.1664   -0.3574   -6.7501 C   0  0  0  0  0  0
   -6.4988   -2.1618   -4.9343 C   0  0  0  0  0  0
   -7.1140   -3.4609   -5.6413 C   0  0  0  0  0  0
   -6.3871   -4.3235   -6.7619 C   0  0  0  0  0  0
   -6.9553   -4.1006   -8.2945 C   0  0  0  0  0  0
   -7.6931   -5.3665   -8.7272 C   0  0  0  0  0  0
   -7.8947   -2.8310   -8.5184 C   0  0  0  0  0  0
   -9.4599   -2.7769   -8.1110 C   0  0  0  0  0  0
  -10.5813   -3.4197   -8.9972 C   0  0  0  0  0  0
  -11.2827   -2.5117  -10.1076 C   0  0  0  0  0  0
  -10.5211   -1.8399  -11.3171 C   0  0  0  0  0  0
   -9.0314   -2.1907  -11.5724 C   0  0  0  0  0  0
   -8.6163   -3.6988  -11.3659 C   0  0  0  0  0  0
   -9.0504   -4.6792  -12.4627 C   0  0  0  0  0  0
   -8.8005   -6.1972  -12.2359 C   0  0  0  0  0  0
   -7.3749   -6.7219  -11.8927 C   0  0  0  0  0  0
   -7.1614   -8.2251  -12.0035 C   0  0  0  0  0  0
   -6.3469   -5.9858  -12.6527 N   0  0  0  0  0  0
   -9.6127   -6.5352  -11.0827 O   0  0  0  0  0  0
   -7.1906   -3.7522  -11.2464 O   0  0  0  0  0  0
   -9.5377   -3.4640   -6.8507 O   0  0  0  0  0  0
   -7.3879   -4.4117   -4.5766 O   0  0  0  0  0  0
   -8.2082   -3.9979   -3.5760 C   0  0  0  0  0  0
   -8.0451   -4.1900   -2.3861 O   0  0  0  0  0  0
   -9.3095   -3.1680   -4.1759 C   0  0  0  0  0  0
   -9.6037   -1.8989   -3.3602 C   0  0  0  0  0  0
  -10.8346   -1.1411   -3.8739 C   0  0  0  0  0  0
  -10.5380   -0.4413   -5.1799 C   0  0  0  0  0  0
  -10.6412   -0.9799   -6.2767 O   0  0  0  0  0  0
  -10.1502    0.8335   -5.0270 O   0  0  0  0  0  0
   -9.8405   -2.3696   -1.9185 C   0  0  0  0  0  0
  -10.3518   -3.4444   -1.6434 O   0  0  0  0  0  0
   -9.4844   -1.4807   -0.9810 O   0  0  0  0  0  0
   -5.9830   -2.4615   -3.5764 O   0  0  0  0  0  0
   -5.1530   -3.5582   -3.4139 C   0  0  0  0  0  0
   -4.6142   -4.1656   -4.3300 O   0  0  0  0  0  0
   -4.9736   -3.9412   -1.9390 C   0  0  0  0  0  0
   -5.0518   -2.7631   -0.9189 C   0  0  0  0  0  0
   -4.1964   -1.5124   -1.1914 C   0  0  0  0  0  0
   -2.8319   -1.8399   -1.7258 C   0  0  0  0  0  0
   -1.8238   -2.0081   -1.0535 O   0  0  0  0  0  0
   -2.8184   -1.9554   -3.0625 O   0  0  0  0  0  0
   -6.4744   -2.2804   -0.6101 C   0  0  0  0  0  0
   -7.0254   -2.4865    0.4532 O   0  0  0  0  0  0
   -7.0450   -1.5123   -1.5619 O   0  0  0  0  0  0
   -6.6167   -5.9536  -13.6349 H   0  0  0  0  0  0
   -5.4788   -6.5258  -12.6356 H   0  0  0  0  0  0
  -10.5339   -6.3624  -11.3706 H   0  0  0  0  0  0
   -6.9269   -4.6874  -11.1662 H   0  0  0  0  0  0
  -10.4674   -3.4689   -6.5677 H   0  0  0  0  0  0
   -9.8921    1.2920   -5.8496 H   0  0  0  0  0  0
   -9.8041   -1.6956   -0.0697 H   0  0  0  0  0  0
   -1.8815   -2.0763   -3.3249 H   0  0  0  0  0  0
   -6.5443   -1.4481   -2.4053 H   0  0  0  0  0  0
  1  2  1  0  0  0
  2  3  1  0  0  0
  3  4  1  0  0  0
  4  5  1  0  0  0
  5  6  1  0  0  0
  5  7  1  0  0  0
  7  8  1  0  0  0
  7 39  1  0  0  0
  8  9  1  0  0  0
  8 27  1  0  0  0
  9 10  1  0  0  0
 10 11  1  0  0  0
 10 12  1  0  0  0
 12 13  1  0  0  0
 13 14  1  0  0  0
 13 26  1  0  0  0
 14 15  1  0  0  0
 15 16  1  0  0  0
 16 17  1  0  0  0
 17 18  1  0  0  0
 18 19  1  0  0  0
 18 25  1  0  0  0
 19 20  1  0  0  0
 20 21  1  0  0  0
 20 24  1  0  0  0
 21 22  1  0  0  0
 21 23  1  0  0  0
 23 51  1  0  0  0
 23 52  1  0  0  0
 24 53  1  0  0  0
 25 54  1  0  0  0
 26 55  1  0  0  0
 27 28  1  0  0  0
 28 29  2  0  0  0
 28 30  1  0  0  0
 30 31  1  0  0  0
 31 32  1  0  0  0
 31 36  1  0  0  0
 32 33  1  0  0  0
 33 34  2  0  0  0
 33 35  1  0  0  0
 35 56  1  0  0  0
 36 37  2  0  0  0
 36 38  1  0  0  0
 38 57  1  0  0  0
 39 40  1  0  0  0
 40 41  2  0  0  0
 40 42  1  0  0  0
 42 43  1  0  0  0
 43 44  1  0  0  0
 43 48  1  0  0  0
 44 45  1  0  0  0
 45 46  2  0  0  0
 45 47  1  0  0  0
 47 58  1  0  0  0
 48 49  2  0  0  0
 48 50  1  0  0  0
 50 59  1  0  0  0
M  END
>  <AUTHOR>
    GENERATED BY OPEN BABEL 2.4.1

>  <CHROM.1>
-59.61878763,-150.11212775,39.54462286,-40.26108285,27.59209685,-84.09113672
-104.76012467,56.89500694,-109.99792236,-78.87229256,-79.58486684,-91.12145554
-179.24320183,60.95138104,7.47978069,39.52638814,74.99519355,-173.58624086
-177.03929802,-54.32616184,-166.40604616,62.68659418,-48.73740227,-137.08231296
-136.60894684,-173.10009420,-72.96345362,-32.84225909,86.34961949,175.92541146
167.89904080,13.76239669,-30.69072706,-49.92931303,-39.56455335,108.38643776
-91.61470931,174.31987884,8.38576402,-7.30075125,-3.05829572,-6.09414559
-1.79252146,-0.14849867,1.28309171

>  <COMPND>
    UNNAMED

>  <MASTER>
        0    0    0    0    0    0    0    0  109    0  109    0

>  <Name>
FB1.pdb

>  <RI>
0

>  <Rbt.Current_Directory>
/home/fc/tossine/FB1_39/p3/0_clust04

>  <Rbt.Executable>
rbdock/0.1.0

>  <Rbt.Library>
librxdock.so/0.1.0

>  <Rbt.Parameter_File>
/cluster/rxdock/data/scripts/dock.prm

>  <Rbt.Receptor>
rx_4.prm

>  <SCORE>
46.6997

>  <SCORE.INTER>
21.9628

>  <SCORE.INTER.CONST>
1

>  <SCORE.INTER.POLAR>
-0.777162

>  <SCORE.INTER.REPUL>
0.84474

>  <SCORE.INTER.ROT>
32

>  <SCORE.INTER.VDW>
-17.0185

>  <SCORE.INTER.norm>
0.439256

>  <SCORE.INTRA>
17.0698

>  <SCORE.INTRA.DIHEDRAL>
19.2925

>  <SCORE.INTRA.DIHEDRAL.0>
47.3121

>  <SCORE.INTRA.POLAR>
0.153997

>  <SCORE.INTRA.POLAR.0>
-1.47808

>  <SCORE.INTRA.REPUL>
0

>  <SCORE.INTRA.REPUL.0>
0

>  <SCORE.INTRA.VDW>
6.89999

>  <SCORE.INTRA.VDW.0>
-2.78316

>  <SCORE.INTRA.norm>
0.341396

>  <SCORE.RESTR>
7.66704

>  <SCORE.RESTR.CAVITY>
7.66704

>  <SCORE.RESTR.norm>
0.153341

>  <SCORE.SYSTEM>
0

>  <SCORE.SYSTEM.CONST>
0

>  <SCORE.SYSTEM.DIHEDRAL>
0

>  <SCORE.SYSTEM.norm>
0

>  <SCORE.heavy>
50

>  <SCORE.norm>
0.933994

$$$$
