FB1.pdb
  RxDock  10062019563D
librxdock.so/0.1.0
 59 58  0  0  0  0  0  0  0  0999 V2000
  -10.7560    0.6120   -4.0555 C   0  0  0  0  0  0
  -11.6614    1.3006   -5.0740 C   0  0  0  0  0  0
  -12.7634    0.3580   -5.5853 C   0  0  0  0  0  0
  -12.3559   -0.4402   -6.8489 C   0  0  0  0  0  0
  -11.1784   -1.4550   -6.6392 C   0  0  0  0  0  0
  -11.7121   -2.6567   -5.8257 C   0  0  0  0  0  0
  -10.5108   -1.9392   -7.9948 C   0  0  0  0  0  0
  -10.0083   -3.4592   -8.0539 C   0  0  0  0  0  0
   -9.1157   -4.0834   -9.2123 C   0  0  0  0  0  0
   -9.9130   -5.0980  -10.2400 C   0  0  0  0  0  0
  -11.1186   -4.3565  -10.8153 C   0  0  0  0  0  0
   -9.0480   -5.7163  -11.4293 C   0  0  0  0  0  0
   -7.8688   -6.8051  -11.2229 C   0  0  0  0  0  0
   -6.8122   -7.1205  -12.3366 C   0  0  0  0  0  0
   -7.3371   -7.4358  -13.8111 C   0  0  0  0  0  0
   -8.1556   -8.7277  -14.2057 C   0  0  0  0  0  0
   -7.4513   -9.8715  -14.9823 C   0  0  0  0  0  0
   -7.0759   -9.5765  -16.4860 C   0  0  0  0  0  0
   -8.2367   -9.1971  -17.4141 C   0  0  0  0  0  0
   -7.9626   -9.1171  -18.9427 C   0  0  0  0  0  0
   -7.9512  -10.4083  -19.8134 C   0  0  0  0  0  0
   -7.3893  -10.2710  -21.2215 C   0  0  0  0  0  0
   -7.3041  -11.5217  -19.0936 N   0  0  0  0  0  0
   -9.0522   -8.3182  -19.4702 O   0  0  0  0  0  0
   -6.1156   -8.5148  -16.5015 O   0  0  0  0  0  0
   -7.1043   -6.3152  -10.1084 O   0  0  0  0  0  0
   -9.2326   -3.6780   -6.8444 O   0  0  0  0  0  0
   -7.8842   -3.5468   -6.9441 C   0  0  0  0  0  0
   -7.2891   -2.7143   -7.6014 O   0  0  0  0  0  0
   -7.2395   -4.5438   -6.0212 C   0  0  0  0  0  0
   -6.0713   -3.9413   -5.2246 C   0  0  0  0  0  0
   -4.8112   -3.7531   -6.0790 C   0  0  0  0  0  0
   -4.2680   -5.0824   -6.5495 C   0  0  0  0  0  0
   -3.8700   -5.9594   -5.7904 O   0  0  0  0  0  0
   -4.2631   -5.2155   -7.8840 O   0  0  0  0  0  0
   -6.5666   -2.5818   -4.7125 C   0  0  0  0  0  0
   -6.0814   -1.5183   -5.0675 O   0  0  0  0  0  0
   -7.5471   -2.6575   -3.8021 O   0  0  0  0  0  0
  -11.3553   -1.5889   -9.1627 O   0  0  0  0  0  0
  -10.7342   -1.3502  -10.3773 C   0  0  0  0  0  0
   -9.5250   -1.3961  -10.5620 O   0  0  0  0  0  0
  -11.7367   -1.0165  -11.4900 C   0  0  0  0  0  0
  -12.1421    0.4855  -11.6084 C   0  0  0  0  0  0
  -12.6783    0.9855  -12.9622 C   0  0  0  0  0  0
  -13.2928   -0.1067  -13.7892 C   0  0  0  0  0  0
  -14.3709   -0.6435  -13.5746 O   0  0  0  0  0  0
  -12.5311   -0.4444  -14.8409 O   0  0  0  0  0  0
  -13.1172    0.9698  -10.5282 C   0  0  0  0  0  0
  -13.8843    0.2258   -9.9497 O   0  0  0  0  0  0
  -12.9972    2.2679  -10.1792 O   0  0  0  0  0  0
   -6.3060  -11.3322  -19.0131 H   0  0  0  0  0  0
   -7.3667  -12.3637  -19.6703 H   0  0  0  0  0  0
   -9.8587   -8.8395  -19.2722 H   0  0  0  0  0  0
   -6.5734   -7.6943  -16.7620 H   0  0  0  0  0  0
   -6.5846   -7.0550   -9.7518 H   0  0  0  0  0  0
   -4.5547   -4.4280   -8.3823 H   0  0  0  0  0  0
   -7.8939   -1.7819   -3.4992 H   0  0  0  0  0  0
  -11.7191    0.1025  -14.7873 H   0  0  0  0  0  0
  -13.4872    2.5317   -9.3689 H   0  0  0  0  0  0
  1  2  1  0  0  0
  2  3  1  0  0  0
  3  4  1  0  0  0
  4  5  1  0  0  0
  5  6  1  0  0  0
  5  7  1  0  0  0
  7  8  1  0  0  0
  7 39  1  0  0  0
  8  9  1  0  0  0
  8 27  1  0  0  0
  9 10  1  0  0  0
 10 11  1  0  0  0
 10 12  1  0  0  0
 12 13  1  0  0  0
 13 14  1  0  0  0
 13 26  1  0  0  0
 14 15  1  0  0  0
 15 16  1  0  0  0
 16 17  1  0  0  0
 17 18  1  0  0  0
 18 19  1  0  0  0
 18 25  1  0  0  0
 19 20  1  0  0  0
 20 21  1  0  0  0
 20 24  1  0  0  0
 21 22  1  0  0  0
 21 23  1  0  0  0
 23 51  1  0  0  0
 23 52  1  0  0  0
 24 53  1  0  0  0
 25 54  1  0  0  0
 26 55  1  0  0  0
 27 28  1  0  0  0
 28 29  2  0  0  0
 28 30  1  0  0  0
 30 31  1  0  0  0
 31 32  1  0  0  0
 31 36  1  0  0  0
 32 33  1  0  0  0
 33 34  2  0  0  0
 33 35  1  0  0  0
 35 56  1  0  0  0
 36 37  2  0  0  0
 36 38  1  0  0  0
 38 57  1  0  0  0
 39 40  1  0  0  0
 40 41  2  0  0  0
 40 42  1  0  0  0
 42 43  1  0  0  0
 43 44  1  0  0  0
 43 48  1  0  0  0
 44 45  1  0  0  0
 45 46  2  0  0  0
 45 47  1  0  0  0
 47 58  1  0  0  0
 48 49  2  0  0  0
 48 50  1  0  0  0
 50 59  1  0  0  0
M  END
>  <AUTHOR>
    GENERATED BY OPEN BABEL 2.4.1

>  <CHROM.1>
-90.54809364,64.80838827,72.97864134,-144.27667678,-169.84851006,150.45925058
-106.54125418,-96.41034536,54.89817017,69.10457919,-164.25148390,-49.89058451
161.03916828,-67.87551131,-104.59761687,-70.60503961,-58.32357580,-170.46294022
-103.05197771,81.40851736,-167.44189557,-62.34020584,-69.58402188,38.75214785
-136.25082609,-75.15953560,-64.45485726,-115.15893460,-61.93880799,3.59168796
-177.54340430,-0.62396368,86.60899752,156.97625681,25.13222611,-25.79955536
73.07846863,2.09051660,-168.03408849,-9.17572973,-3.94357268,-10.60800640
-1.80574100,0.74611277,-2.05201649

>  <COMPND>
    UNNAMED

>  <MASTER>
        0    0    0    0    0    0    0    0  109    0  109    0

>  <Name>
FB1.pdb

>  <RI>
0

>  <Rbt.Current_Directory>
/home/fc/tossine/FB1_39/p3/0_clust04

>  <Rbt.Executable>
rbdock/0.1.0

>  <Rbt.Library>
librxdock.so/0.1.0

>  <Rbt.Parameter_File>
/cluster/rxdock/data/scripts/dock.prm

>  <Rbt.Receptor>
rx_0.prm

>  <SCORE>
24.5381

>  <SCORE.INTER>
2.32429

>  <SCORE.INTER.CONST>
1

>  <SCORE.INTER.POLAR>
-2.73431

>  <SCORE.INTER.REPUL>
0.287534

>  <SCORE.INTER.ROT>
32

>  <SCORE.INTER.VDW>
-27.2167

>  <SCORE.INTER.norm>
0.0464857

>  <SCORE.INTRA>
20.7706

>  <SCORE.INTRA.DIHEDRAL>
18.9496

>  <SCORE.INTRA.DIHEDRAL.0>
47.3121

>  <SCORE.INTRA.POLAR>
1.47808

>  <SCORE.INTRA.POLAR.0>
-1.47808

>  <SCORE.INTRA.REPUL>
0

>  <SCORE.INTRA.REPUL.0>
0

>  <SCORE.INTRA.VDW>
6.27038

>  <SCORE.INTRA.VDW.0>
-2.78316

>  <SCORE.INTRA.norm>
0.415412

>  <SCORE.RESTR>
1.44324

>  <SCORE.RESTR.CAVITY>
1.44324

>  <SCORE.RESTR.norm>
0.0288647

>  <SCORE.SYSTEM>
0

>  <SCORE.SYSTEM.CONST>
0

>  <SCORE.SYSTEM.DIHEDRAL>
0

>  <SCORE.SYSTEM.norm>
0

>  <SCORE.heavy>
50

>  <SCORE.norm>
0.490763

$$$$
