FB1.pdb
  RxDock  10062021073D
librxdock.so/0.1.0
 59 58  0  0  0  0  0  0  0  0999 V2000
  -10.7087    0.6906   -4.9796 C   0  0  0  0  0  0
  -12.0254   -0.0704   -5.1148 C   0  0  0  0  0  0
  -11.8759   -1.3128   -6.0083 C   0  0  0  0  0  0
  -11.4832   -0.9793   -7.4692 C   0  0  0  0  0  0
  -11.3112   -2.2236   -8.4086 C   0  0  0  0  0  0
  -10.8197   -1.7266   -9.7877 C   0  0  0  0  0  0
  -10.3351   -3.3291   -7.8229 C   0  0  0  0  0  0
  -10.2053   -4.6946   -8.6503 C   0  0  0  0  0  0
  -11.2703   -5.2322   -9.7016 C   0  0  0  0  0  0
  -10.7321   -5.3228  -11.2584 C   0  0  0  0  0  0
  -11.3813   -6.5338  -11.9263 C   0  0  0  0  0  0
  -10.9642   -4.0268  -12.1591 C   0  0  0  0  0  0
  -10.2777   -3.7920  -13.6056 C   0  0  0  0  0  0
  -10.5574   -4.7290  -14.8303 C   0  0  0  0  0  0
  -10.1214   -6.2614  -14.7266 C   0  0  0  0  0  0
  -10.4823   -7.3626  -15.7998 C   0  0  0  0  0  0
   -9.9811   -8.8175  -15.6008 C   0  0  0  0  0  0
  -10.2480   -9.8240  -16.7861 C   0  0  0  0  0  0
   -9.9589   -9.3018  -18.1989 C   0  0  0  0  0  0
   -8.6245   -8.5423  -18.4456 C   0  0  0  0  0  0
   -7.3303   -9.3199  -18.8275 C   0  0  0  0  0  0
   -6.0421   -8.8615  -18.1582 C   0  0  0  0  0  0
   -7.5222  -10.7732  -18.6620 N   0  0  0  0  0  0
   -8.8953   -7.6829  -19.5822 O   0  0  0  0  0  0
   -9.4517  -10.9923  -16.5612 O   0  0  0  0  0  0
  -10.7244   -2.4899  -14.0196 O   0  0  0  0  0  0
   -8.9698   -4.5942   -9.4091 O   0  0  0  0  0  0
   -7.8192   -4.9078   -8.7587 C   0  0  0  0  0  0
   -7.7108   -5.1761   -7.5773 O   0  0  0  0  0  0
   -6.7045   -4.9694   -9.7662 C   0  0  0  0  0  0
   -6.7129   -6.2752  -10.5769 C   0  0  0  0  0  0
   -7.8840   -6.3470  -11.5651 C   0  0  0  0  0  0
   -7.6016   -5.5310  -12.8052 C   0  0  0  0  0  0
   -7.7573   -4.3163  -12.8678 O   0  0  0  0  0  0
   -7.1600   -6.2639  -13.8380 O   0  0  0  0  0  0
   -5.3805   -6.3078  -11.3381 C   0  0  0  0  0  0
   -4.5493   -5.4154  -11.2662 O   0  0  0  0  0  0
   -5.2225   -7.3766  -12.1310 O   0  0  0  0  0  0
   -9.0088   -2.7522   -7.4939 O   0  0  0  0  0  0
   -8.6556   -2.6304   -6.1603 C   0  0  0  0  0  0
   -9.4401   -2.6982   -5.2231 O   0  0  0  0  0  0
   -7.1505   -2.3977   -5.9739 C   0  0  0  0  0  0
   -6.4883   -3.1646   -4.7874 C   0  0  0  0  0  0
   -6.8435   -4.6507   -4.5986 C   0  0  0  0  0  0
   -7.1916   -4.9949   -3.1791 C   0  0  0  0  0  0
   -8.2856   -5.3745   -2.7847 O   0  0  0  0  0  0
   -6.1469   -4.8616   -2.3478 O   0  0  0  0  0  0
   -4.9597   -3.0534   -4.7300 C   0  0  0  0  0  0
   -4.2186   -3.9358   -5.1157 O   0  0  0  0  0  0
   -4.4806   -1.8605   -4.3193 O   0  0  0  0  0  0
   -7.7479  -10.9716  -17.6882 H   0  0  0  0  0  0
   -6.6282  -11.2415  -18.8260 H   0  0  0  0  0  0
   -9.0861   -8.3011  -20.3190 H   0  0  0  0  0  0
   -9.8230  -11.7205  -17.0926 H   0  0  0  0  0  0
  -11.6954   -2.4783  -13.9798 H   0  0  0  0  0  0
   -7.0297   -5.7728  -14.6718 H   0  0  0  0  0  0
   -6.0314   -7.6329  -12.6397 H   0  0  0  0  0  0
   -6.4734   -5.0775   -1.4488 H   0  0  0  0  0  0
   -5.1543   -1.2347   -3.9719 H   0  0  0  0  0  0
  1  2  1  0  0  0
  2  3  1  0  0  0
  3  4  1  0  0  0
  4  5  1  0  0  0
  5  6  1  0  0  0
  5  7  1  0  0  0
  7  8  1  0  0  0
  7 39  1  0  0  0
  8  9  1  0  0  0
  8 27  1  0  0  0
  9 10  1  0  0  0
 10 11  1  0  0  0
 10 12  1  0  0  0
 12 13  1  0  0  0
 13 14  1  0  0  0
 13 26  1  0  0  0
 14 15  1  0  0  0
 15 16  1  0  0  0
 16 17  1  0  0  0
 17 18  1  0  0  0
 18 19  1  0  0  0
 18 25  1  0  0  0
 19 20  1  0  0  0
 20 21  1  0  0  0
 20 24  1  0  0  0
 21 22  1  0  0  0
 21 23  1  0  0  0
 23 51  1  0  0  0
 23 52  1  0  0  0
 24 53  1  0  0  0
 25 54  1  0  0  0
 26 55  1  0  0  0
 27 28  1  0  0  0
 28 29  2  0  0  0
 28 30  1  0  0  0
 30 31  1  0  0  0
 31 32  1  0  0  0
 31 36  1  0  0  0
 32 33  1  0  0  0
 33 34  2  0  0  0
 33 35  1  0  0  0
 35 56  1  0  0  0
 36 37  2  0  0  0
 36 38  1  0  0  0
 38 57  1  0  0  0
 39 40  1  0  0  0
 40 41  2  0  0  0
 40 42  1  0  0  0
 42 43  1  0  0  0
 43 44  1  0  0  0
 43 48  1  0  0  0
 44 45  1  0  0  0
 45 46  2  0  0  0
 45 47  1  0  0  0
 47 58  1  0  0  0
 48 49  2  0  0  0
 48 50  1  0  0  0
 50 59  1  0  0  0
M  END
>  <AUTHOR>
    GENERATED BY OPEN BABEL 2.4.1

>  <CHROM.1>
-62.75272425,179.57657067,-175.81394896,174.49365349,-20.87873275,109.90371045
115.31377983,82.68909152,145.41033935,167.93843859,62.82631022,-63.13656174
-54.14196562,172.60877145,178.98554964,-173.66492604,44.23546346,46.07301904
160.93281724,87.85662898,-138.45951969,-63.38641215,-60.26455851,-5.43590287
-77.96868366,70.84698049,78.92837665,-0.99160661,-81.40754346,175.84251785
41.55269552,-15.93880963,-139.35195445,45.06340451,-132.56413863,-101.21142611
115.12323221,178.22936055,8.81651063,-8.56196727,-5.08770492,-10.54349547
1.51733156,-0.53141945,1.10688960

>  <COMPND>
    UNNAMED

>  <MASTER>
        0    0    0    0    0    0    0    0  109    0  109    0

>  <Name>
FB1.pdb

>  <RI>
0

>  <Rbt.Current_Directory>
/home/fc/tossine/FB1_39/p3/0_clust04

>  <Rbt.Executable>
rbdock/0.1.0

>  <Rbt.Library>
librxdock.so/0.1.0

>  <Rbt.Parameter_File>
/cluster/rxdock/data/scripts/dock.prm

>  <Rbt.Receptor>
rx_1.prm

>  <SCORE>
10.9486

>  <SCORE.INTER>
3.12969

>  <SCORE.INTER.CONST>
1

>  <SCORE.INTER.POLAR>
-2.10028

>  <SCORE.INTER.REPUL>
0.833644

>  <SCORE.INTER.ROT>
32

>  <SCORE.INTER.VDW>
-31.2976

>  <SCORE.INTER.norm>
0.0625938

>  <SCORE.INTRA>
7.80867

>  <SCORE.INTRA.DIHEDRAL>
17.1385

>  <SCORE.INTRA.DIHEDRAL.0>
47.3121

>  <SCORE.INTRA.POLAR>
0.433667

>  <SCORE.INTRA.POLAR.0>
-1.47808

>  <SCORE.INTRA.REPUL>
0

>  <SCORE.INTRA.REPUL.0>
0

>  <SCORE.INTRA.VDW>
-2.23506

>  <SCORE.INTRA.VDW.0>
-2.78316

>  <SCORE.INTRA.norm>
0.156173

>  <SCORE.RESTR>
0.0102082

>  <SCORE.RESTR.CAVITY>
0.0102082

>  <SCORE.RESTR.norm>
0.000204163

>  <SCORE.SYSTEM>
0

>  <SCORE.SYSTEM.CONST>
0

>  <SCORE.SYSTEM.DIHEDRAL>
0

>  <SCORE.SYSTEM.norm>
0

>  <SCORE.heavy>
50

>  <SCORE.norm>
0.218971

$$$$
