FB1.pdb
  RxDock  10062022583D
librxdock.so/0.1.0
 59 58  0  0  0  0  0  0  0  0999 V2000
  -10.6718    1.5105   -4.4069 C   0  0  0  0  0  0
  -11.4822    1.0273   -5.6073 C   0  0  0  0  0  0
  -11.4971   -0.5073   -5.7038 C   0  0  0  0  0  0
  -10.0986   -1.1237   -5.9568 C   0  0  0  0  0  0
  -10.1114   -2.6111   -6.4547 C   0  0  0  0  0  0
  -10.6863   -2.6378   -7.8898 C   0  0  0  0  0  0
   -8.6875   -3.3093   -6.4006 C   0  0  0  0  0  0
   -8.3109   -4.0860   -5.0512 C   0  0  0  0  0  0
   -6.9533   -4.8738   -4.7973 C   0  0  0  0  0  0
   -5.8708   -4.1048   -3.8185 C   0  0  0  0  0  0
   -5.5662   -5.0105   -2.6264 C   0  0  0  0  0  0
   -4.5055   -3.6457   -4.5041 C   0  0  0  0  0  0
   -3.2532   -3.0127   -3.6981 C   0  0  0  0  0  0
   -1.7975   -3.0058   -4.2786 C   0  0  0  0  0  0
   -0.6242   -2.4104   -3.3741 C   0  0  0  0  0  0
    0.8674   -2.2281   -3.8603 C   0  0  0  0  0  0
    2.0000   -3.0347   -3.1718 C   0  0  0  0  0  0
    2.9606   -2.2270   -2.2157 C   0  0  0  0  0  0
    4.0166   -3.0463   -1.4634 C   0  0  0  0  0  0
    5.2323   -2.2958   -0.8493 C   0  0  0  0  0  0
    6.5967   -2.2527   -1.5989 C   0  0  0  0  0  0
    7.6107   -1.2317   -1.1021 C   0  0  0  0  0  0
    7.1971   -3.5981   -1.6751 N   0  0  0  0  0  0
    4.8060   -0.9119   -0.7657 O   0  0  0  0  0  0
    3.6295   -1.2326   -2.9990 O   0  0  0  0  0  0
   -3.5919   -1.6273   -3.5180 O   0  0  0  0  0  0
   -8.3576   -3.0974   -3.9868 O   0  0  0  0  0  0
   -8.6365   -3.5497   -2.7366 C   0  0  0  0  0  0
   -8.4636   -4.6814   -2.3258 O   0  0  0  0  0  0
   -9.1043   -2.3884   -1.9036 C   0  0  0  0  0  0
   -7.9410   -1.5313   -1.3796 C   0  0  0  0  0  0
   -8.3102   -0.7493   -0.1125 C   0  0  0  0  0  0
   -7.1157   -0.0034    0.4352 C   0  0  0  0  0  0
   -6.0029   -0.5032    0.5604 O   0  0  0  0  0  0
   -7.3871    1.2661    0.7725 O   0  0  0  0  0  0
   -6.7980   -2.5104   -1.0782 C   0  0  0  0  0  0
   -6.9310   -3.4906   -0.3613 O   0  0  0  0  0  0
   -5.6229   -2.1747   -1.6281 O   0  0  0  0  0  0
   -8.4546   -4.1442   -7.6042 O   0  0  0  0  0  0
   -7.1542   -4.5073   -7.9128 C   0  0  0  0  0  0
   -6.1589   -4.0891   -7.3358 O   0  0  0  0  0  0
   -7.0874   -5.5077   -9.0743 C   0  0  0  0  0  0
   -6.3631   -5.0041  -10.3612 C   0  0  0  0  0  0
   -4.8533   -5.2747  -10.4944 C   0  0  0  0  0  0
   -4.1049   -5.0689   -9.2091 C   0  0  0  0  0  0
   -3.4138   -4.0978   -8.9334 O   0  0  0  0  0  0
   -4.2831   -6.0790   -8.3440 O   0  0  0  0  0  0
   -7.0196   -5.4435  -11.6758 C   0  0  0  0  0  0
   -6.5703   -5.1543  -12.7672 O   0  0  0  0  0  0
   -8.0790   -6.2695  -11.5465 O   0  0  0  0  0  0
    7.3902   -3.9317   -0.7317 H   0  0  0  0  0  0
    8.1144   -3.5217   -2.1203 H   0  0  0  0  0  0
    4.2578   -0.8713    0.0462 H   0  0  0  0  0  0
    4.1982   -0.7091   -2.4048 H   0  0  0  0  0  0
   -4.4131   -1.5834   -3.0000 H   0  0  0  0  0  0
   -8.3150    1.5418    0.6448 H   0  0  0  0  0  0
   -4.8423   -2.2936   -1.0319 H   0  0  0  0  0  0
   -3.8626   -5.8054   -7.5016 H   0  0  0  0  0  0
   -8.5080   -6.5370  -12.3895 H   0  0  0  0  0  0
  1  2  1  0  0  0
  2  3  1  0  0  0
  3  4  1  0  0  0
  4  5  1  0  0  0
  5  6  1  0  0  0
  5  7  1  0  0  0
  7  8  1  0  0  0
  7 39  1  0  0  0
  8  9  1  0  0  0
  8 27  1  0  0  0
  9 10  1  0  0  0
 10 11  1  0  0  0
 10 12  1  0  0  0
 12 13  1  0  0  0
 13 14  1  0  0  0
 13 26  1  0  0  0
 14 15  1  0  0  0
 15 16  1  0  0  0
 16 17  1  0  0  0
 17 18  1  0  0  0
 18 19  1  0  0  0
 18 25  1  0  0  0
 19 20  1  0  0  0
 20 21  1  0  0  0
 20 24  1  0  0  0
 21 22  1  0  0  0
 21 23  1  0  0  0
 23 51  1  0  0  0
 23 52  1  0  0  0
 24 53  1  0  0  0
 25 54  1  0  0  0
 26 55  1  0  0  0
 27 28  1  0  0  0
 28 29  2  0  0  0
 28 30  1  0  0  0
 30 31  1  0  0  0
 31 32  1  0  0  0
 31 36  1  0  0  0
 32 33  1  0  0  0
 33 34  2  0  0  0
 33 35  1  0  0  0
 35 56  1  0  0  0
 36 37  2  0  0  0
 36 38  1  0  0  0
 38 57  1  0  0  0
 39 40  1  0  0  0
 40 41  2  0  0  0
 40 42  1  0  0  0
 42 43  1  0  0  0
 43 44  1  0  0  0
 43 48  1  0  0  0
 44 45  1  0  0  0
 45 46  2  0  0  0
 45 47  1  0  0  0
 47 58  1  0  0  0
 48 49  2  0  0  0
 48 50  1  0  0  0
 50 59  1  0  0  0
M  END
>  <AUTHOR>
    GENERATED BY OPEN BABEL 2.4.1

>  <CHROM.1>
-64.07324614,-163.72191158,68.92170390,90.68057559,178.79927874,161.66240698
104.39365569,152.89479007,121.90607731,-173.59701772,159.52834339,-177.48563503
60.65703094,-174.87742854,-116.11916766,-106.97271167,175.90891870,162.38135671
177.84159238,-98.45057685,165.62243148,80.54708538,-62.66115239,23.53495206
-80.21269869,-155.96168124,175.59774456,-53.44559291,-45.83183889,1.39875865
137.52395516,-7.12087110,116.35376781,91.35655969,-40.92991525,-178.82831499
-102.90720125,-172.60840319,178.96168525,-4.60396403,-2.89657697,-4.51428037
2.78132627,0.08908472,-1.99613071

>  <COMPND>
    UNNAMED

>  <MASTER>
        0    0    0    0    0    0    0    0  109    0  109    0

>  <Name>
FB1.pdb

>  <RI>
0

>  <Rbt.Current_Directory>
/home/fc/tossine/FB1_39/p3/0_clust04

>  <Rbt.Executable>
rbdock/0.1.0

>  <Rbt.Library>
librxdock.so/0.1.0

>  <Rbt.Parameter_File>
/cluster/rxdock/data/scripts/dock.prm

>  <Rbt.Receptor>
rx_4.prm

>  <SCORE>
36.2367

>  <SCORE.INTER>
11.0501

>  <SCORE.INTER.CONST>
1

>  <SCORE.INTER.POLAR>
-0.714943

>  <SCORE.INTER.REPUL>
0.470107

>  <SCORE.INTER.ROT>
32

>  <SCORE.INTER.VDW>
-26.2696

>  <SCORE.INTER.norm>
0.221002

>  <SCORE.INTRA>
17.6255

>  <SCORE.INTRA.DIHEDRAL>
31.2997

>  <SCORE.INTRA.DIHEDRAL.0>
47.3121

>  <SCORE.INTRA.POLAR>
-0.222075

>  <SCORE.INTRA.POLAR.0>
-1.47808

>  <SCORE.INTRA.REPUL>
0

>  <SCORE.INTRA.REPUL.0>
0

>  <SCORE.INTRA.VDW>
2.73064

>  <SCORE.INTRA.VDW.0>
-2.78316

>  <SCORE.INTRA.norm>
0.352509

>  <SCORE.RESTR>
7.56113

>  <SCORE.RESTR.CAVITY>
7.56113

>  <SCORE.RESTR.norm>
0.151223

>  <SCORE.SYSTEM>
0

>  <SCORE.SYSTEM.CONST>
0

>  <SCORE.SYSTEM.DIHEDRAL>
0

>  <SCORE.SYSTEM.norm>
0

>  <SCORE.heavy>
50

>  <SCORE.norm>
0.724734

$$$$
