FB1.pdb
  RxDock  10062021053D
librxdock.so/0.1.0
 59 58  0  0  0  0  0  0  0  0999 V2000
  -12.9956   -3.5006  -16.6269 C   0  0  0  0  0  0
  -12.0447   -4.6659  -16.3633 C   0  0  0  0  0  0
  -10.9519   -4.7639  -17.4405 C   0  0  0  0  0  0
   -9.6540   -5.4478  -16.9431 C   0  0  0  0  0  0
   -8.9856   -4.7707  -15.6959 C   0  0  0  0  0  0
   -9.3399   -3.2658  -15.7124 C   0  0  0  0  0  0
   -9.3999   -5.4361  -14.3162 C   0  0  0  0  0  0
   -8.2798   -6.2963  -13.5602 C   0  0  0  0  0  0
   -8.3058   -6.6776  -12.0168 C   0  0  0  0  0  0
   -7.3757   -5.7231  -11.0446 C   0  0  0  0  0  0
   -7.6635   -4.2610  -11.3818 C   0  0  0  0  0  0
   -7.5361   -5.9513   -9.4740 C   0  0  0  0  0  0
   -7.1265   -4.8598   -8.3517 C   0  0  0  0  0  0
   -7.6352   -3.3781   -8.3957 C   0  0  0  0  0  0
   -7.6306   -2.5352   -7.0398 C   0  0  0  0  0  0
   -8.8569   -2.4386   -6.0492 C   0  0  0  0  0  0
   -8.6388   -2.6973   -4.5349 C   0  0  0  0  0  0
   -8.1786   -4.1500   -4.1264 C   0  0  0  0  0  0
   -6.7240   -4.5168   -4.4457 C   0  0  0  0  0  0
   -5.6094   -4.0176   -3.4830 C   0  0  0  0  0  0
   -4.2519   -4.7745   -3.3838 C   0  0  0  0  0  0
   -3.9718   -5.4943   -2.0721 C   0  0  0  0  0  0
   -4.0713   -5.6823   -4.5326 N   0  0  0  0  0  0
   -5.2672   -2.6953   -3.9710 O   0  0  0  0  0  0
   -8.3867   -4.2995   -2.7178 O   0  0  0  0  0  0
   -7.6312   -5.3932   -7.1158 O   0  0  0  0  0  0
   -8.2187   -7.5763  -14.2461 O   0  0  0  0  0  0
   -7.0854   -8.3080  -14.0866 C   0  0  0  0  0  0
   -6.1331   -8.0165  -13.3883 O   0  0  0  0  0  0
   -7.2422   -9.5990  -14.8417 C   0  0  0  0  0  0
   -8.7112   -9.9253  -15.1545 C   0  0  0  0  0  0
   -8.8602  -11.1359  -16.0849 C   0  0  0  0  0  0
   -7.7253  -12.1147  -15.8917 C   0  0  0  0  0  0
   -6.9830  -12.4798  -16.7969 O   0  0  0  0  0  0
   -7.6033  -12.5489  -14.6285 O   0  0  0  0  0  0
   -9.3757  -10.2173  -13.8020 C   0  0  0  0  0  0
   -9.4996  -11.3453  -13.3495 O   0  0  0  0  0  0
   -9.8558   -9.1338  -13.1763 O   0  0  0  0  0  0
  -10.0408   -4.4470  -13.4158 O   0  0  0  0  0  0
  -10.7804   -4.9150  -12.3425 C   0  0  0  0  0  0
  -11.2830   -6.0291  -12.2761 O   0  0  0  0  0  0
  -10.9072   -3.8738  -11.2226 C   0  0  0  0  0  0
  -11.3079   -2.4358  -11.6768 C   0  0  0  0  0  0
  -11.0547   -1.2722  -10.7010 C   0  0  0  0  0  0
  -11.7081   -1.4746   -9.3644 C   0  0  0  0  0  0
  -11.1594   -1.9065   -8.3600 O   0  0  0  0  0  0
  -12.9985   -1.1069   -9.3631 O   0  0  0  0  0  0
  -10.7413   -2.0163  -13.0388 C   0  0  0  0  0  0
  -11.4447   -1.6877  -13.9737 O   0  0  0  0  0  0
   -9.3961   -1.9306  -13.1052 O   0  0  0  0  0  0
   -4.8397   -6.3514   -4.5536 H   0  0  0  0  0  0
   -3.2342   -6.2476   -4.3737 H   0  0  0  0  0  0
   -4.9340   -2.8466   -4.8806 H   0  0  0  0  0  0
   -7.9369   -3.5630   -2.2640 H   0  0  0  0  0  0
   -8.6013   -5.4127   -7.1706 H   0  0  0  0  0  0
   -6.9265  -13.2387  -14.4886 H   0  0  0  0  0  0
   -9.6444   -8.2759  -13.6214 H   0  0  0  0  0  0
  -13.3451   -1.2996   -8.4664 H   0  0  0  0  0  0
   -8.9258   -2.0408  -12.2492 H   0  0  0  0  0  0
  1  2  1  0  0  0
  2  3  1  0  0  0
  3  4  1  0  0  0
  4  5  1  0  0  0
  5  6  1  0  0  0
  5  7  1  0  0  0
  7  8  1  0  0  0
  7 39  1  0  0  0
  8  9  1  0  0  0
  8 27  1  0  0  0
  9 10  1  0  0  0
 10 11  1  0  0  0
 10 12  1  0  0  0
 12 13  1  0  0  0
 13 14  1  0  0  0
 13 26  1  0  0  0
 14 15  1  0  0  0
 15 16  1  0  0  0
 16 17  1  0  0  0
 17 18  1  0  0  0
 18 19  1  0  0  0
 18 25  1  0  0  0
 19 20  1  0  0  0
 20 21  1  0  0  0
 20 24  1  0  0  0
 21 22  1  0  0  0
 21 23  1  0  0  0
 23 51  1  0  0  0
 23 52  1  0  0  0
 24 53  1  0  0  0
 25 54  1  0  0  0
 26 55  1  0  0  0
 27 28  1  0  0  0
 28 29  2  0  0  0
 28 30  1  0  0  0
 30 31  1  0  0  0
 31 32  1  0  0  0
 31 36  1  0  0  0
 32 33  1  0  0  0
 33 34  2  0  0  0
 33 35  1  0  0  0
 35 56  1  0  0  0
 36 37  2  0  0  0
 36 38  1  0  0  0
 38 57  1  0  0  0
 39 40  1  0  0  0
 40 41  2  0  0  0
 40 42  1  0  0  0
 42 43  1  0  0  0
 43 44  1  0  0  0
 43 48  1  0  0  0
 44 45  1  0  0  0
 45 46  2  0  0  0
 45 47  1  0  0  0
 47 58  1  0  0  0
 48 49  2  0  0  0
 48 50  1  0  0  0
 50 59  1  0  0  0
M  END
>  <AUTHOR>
    GENERATED BY OPEN BABEL 2.4.1

>  <CHROM.1>
154.12219232,-57.25002037,-28.36004912,108.59189729,160.70403672,162.72011422
-99.13799487,159.46061166,47.94150031,-159.15386963,51.92905865,158.52151592
-65.24322993,-91.99353334,130.16567794,-64.03653205,73.47569326,80.06336985
-53.56800207,155.26097731,-111.87732827,-61.68716069,-58.87736107,2.65723975
-18.92122942,172.20987002,30.14781677,-94.80991004,-123.10413735,175.09421430
-5.64758433,-22.68589061,47.29143928,-162.37178959,-55.93644448,121.23169279
97.64766151,178.27149776,-6.98271400,-8.72781342,-5.46572262,-11.05505912
1.90262027,0.94649382,-2.23321070

>  <COMPND>
    UNNAMED

>  <MASTER>
        0    0    0    0    0    0    0    0  109    0  109    0

>  <Name>
FB1.pdb

>  <RI>
0

>  <Rbt.Current_Directory>
/home/fc/tossine/FB1_39/p3/0_clust04

>  <Rbt.Executable>
rbdock/0.1.0

>  <Rbt.Library>
librxdock.so/0.1.0

>  <Rbt.Parameter_File>
/cluster/rxdock/data/scripts/dock.prm

>  <Rbt.Receptor>
rx_1.prm

>  <SCORE>
38.5072

>  <SCORE.INTER>
20.0621

>  <SCORE.INTER.CONST>
1

>  <SCORE.INTER.POLAR>
-3.19782

>  <SCORE.INTER.REPUL>
1.29975

>  <SCORE.INTER.ROT>
32

>  <SCORE.INTER.VDW>
-12.964

>  <SCORE.INTER.norm>
0.401243

>  <SCORE.INTRA>
18.4165

>  <SCORE.INTRA.DIHEDRAL>
14.9551

>  <SCORE.INTRA.DIHEDRAL.0>
47.3121

>  <SCORE.INTRA.POLAR>
0.791655

>  <SCORE.INTRA.POLAR.0>
-1.47808

>  <SCORE.INTRA.REPUL>
0.0513123

>  <SCORE.INTRA.REPUL.0>
0

>  <SCORE.INTRA.VDW>
7.99076

>  <SCORE.INTRA.VDW.0>
-2.78316

>  <SCORE.INTRA.norm>
0.36833

>  <SCORE.RESTR>
0.0285444

>  <SCORE.RESTR.CAVITY>
0.0285444

>  <SCORE.RESTR.norm>
0.000570888

>  <SCORE.SYSTEM>
0

>  <SCORE.SYSTEM.CONST>
0

>  <SCORE.SYSTEM.DIHEDRAL>
0

>  <SCORE.SYSTEM.norm>
0

>  <SCORE.heavy>
50

>  <SCORE.norm>
0.770143

$$$$
