FB1.pdb
  RxDock  10062022263D
librxdock.so/0.1.0
 59 58  0  0  0  0  0  0  0  0999 V2000
  -10.1798   -1.9287   -3.9840 C   0  0  0  0  0  0
  -10.7070   -1.7090   -5.4000 C   0  0  0  0  0  0
  -10.0400   -2.6578   -6.4095 C   0  0  0  0  0  0
   -8.5555   -2.3159   -6.6906 C   0  0  0  0  0  0
   -7.8455   -3.2541   -7.7280 C   0  0  0  0  0  0
   -8.6993   -3.2869   -9.0166 C   0  0  0  0  0  0
   -6.3510   -2.8278   -8.0481 C   0  0  0  0  0  0
   -5.2857   -2.9692   -6.8601 C   0  0  0  0  0  0
   -3.8507   -2.2850   -6.8316 C   0  0  0  0  0  0
   -2.6052   -3.2516   -7.3172 C   0  0  0  0  0  0
   -2.6299   -3.3454   -8.8419 C   0  0  0  0  0  0
   -1.1486   -2.8187   -6.8315 C   0  0  0  0  0  0
   -0.3333   -1.5526   -7.4239 C   0  0  0  0  0  0
    0.6582   -1.6820   -8.6307 C   0  0  0  0  0  0
    2.2062   -1.9156   -8.3173 C   0  0  0  0  0  0
    3.1182   -0.8926   -7.5322 C   0  0  0  0  0  0
    2.9120    0.6311   -7.7401 C   0  0  0  0  0  0
    4.2164    1.5046   -7.8973 C   0  0  0  0  0  0
    5.0954    1.6441   -6.6481 C   0  0  0  0  0  0
    6.0356    2.8782   -6.5422 C   0  0  0  0  0  0
    7.4245    2.7576   -5.8481 C   0  0  0  0  0  0
    8.4797    1.9412   -6.5812 C   0  0  0  0  0  0
    7.9469    4.0882   -5.4831 N   0  0  0  0  0  0
    6.3324    3.2333   -7.9168 O   0  0  0  0  0  0
    5.0056    0.9349   -8.9473 O   0  0  0  0  0  0
   -1.3471   -0.6353   -7.8680 O   0  0  0  0  0  0
   -5.9442   -2.4740   -5.6627 O   0  0  0  0  0  0
   -5.5966   -3.0522   -4.4837 C   0  0  0  0  0  0
   -4.6542   -3.7986   -4.2986 O   0  0  0  0  0  0
   -6.5150   -2.5351   -3.4110 C   0  0  0  0  0  0
   -6.3550   -3.2907   -2.0821 C   0  0  0  0  0  0
   -6.8645   -2.4838   -0.8810 C   0  0  0  0  0  0
   -5.7457   -1.6967   -0.2391 C   0  0  0  0  0  0
   -5.6180   -0.4825   -0.3536 O   0  0  0  0  0  0
   -4.9000   -2.4549    0.4744 O   0  0  0  0  0  0
   -7.1703   -4.5827   -2.2308 C   0  0  0  0  0  0
   -6.6658   -5.6952   -2.2148 O   0  0  0  0  0  0
   -8.4814   -4.3895   -2.4300 O   0  0  0  0  0  0
   -5.8708   -3.4594   -9.3012 O   0  0  0  0  0  0
   -5.7215   -4.8360   -9.3303 C   0  0  0  0  0  0
   -5.8797   -5.5741   -8.3667 O   0  0  0  0  0  0
   -5.3304   -5.3516  -10.7216 C   0  0  0  0  0  0
   -6.4935   -5.4579  -11.7561 C   0  0  0  0  0  0
   -6.3261   -6.4341  -12.9349 C   0  0  0  0  0  0
   -7.4095   -6.3001  -13.9658 C   0  0  0  0  0  0
   -8.6088   -6.4292  -13.7615 O   0  0  0  0  0  0
   -6.9275   -5.9948  -15.1802 O   0  0  0  0  0  0
   -7.8726   -5.7240  -11.1400 C   0  0  0  0  0  0
   -8.8285   -4.9960  -11.3216 O   0  0  0  0  0  0
   -7.9903   -6.8854  -10.4629 O   0  0  0  0  0  0
    7.7948    4.7311   -6.2590 H   0  0  0  0  0  0
    8.9630    4.0255   -5.3882 H   0  0  0  0  0  0
    6.5987    2.3888   -8.3378 H   0  0  0  0  0  0
    5.2611    0.0327   -8.6805 H   0  0  0  0  0  0
   -0.9103    0.1933   -8.1272 H   0  0  0  0  0  0
   -5.1288   -3.4030    0.5212 H   0  0  0  0  0  0
   -8.7820   -3.4554   -2.3042 H   0  0  0  0  0  0
   -6.0210   -5.6470  -15.0437 H   0  0  0  0  0  0
   -7.1554   -7.3915  -10.3493 H   0  0  0  0  0  0
  1  2  1  0  0  0
  2  3  1  0  0  0
  3  4  1  0  0  0
  4  5  1  0  0  0
  5  6  1  0  0  0
  5  7  1  0  0  0
  7  8  1  0  0  0
  7 39  1  0  0  0
  8  9  1  0  0  0
  8 27  1  0  0  0
  9 10  1  0  0  0
 10 11  1  0  0  0
 10 12  1  0  0  0
 12 13  1  0  0  0
 13 14  1  0  0  0
 13 26  1  0  0  0
 14 15  1  0  0  0
 15 16  1  0  0  0
 16 17  1  0  0  0
 17 18  1  0  0  0
 18 19  1  0  0  0
 18 25  1  0  0  0
 19 20  1  0  0  0
 20 21  1  0  0  0
 20 24  1  0  0  0
 21 22  1  0  0  0
 21 23  1  0  0  0
 23 51  1  0  0  0
 23 52  1  0  0  0
 24 53  1  0  0  0
 25 54  1  0  0  0
 26 55  1  0  0  0
 27 28  1  0  0  0
 28 29  2  0  0  0
 28 30  1  0  0  0
 30 31  1  0  0  0
 31 32  1  0  0  0
 31 36  1  0  0  0
 32 33  1  0  0  0
 33 34  2  0  0  0
 33 35  1  0  0  0
 35 56  1  0  0  0
 36 37  2  0  0  0
 36 38  1  0  0  0
 38 57  1  0  0  0
 39 40  1  0  0  0
 40 41  2  0  0  0
 40 42  1  0  0  0
 42 43  1  0  0  0
 43 44  1  0  0  0
 43 48  1  0  0  0
 44 45  1  0  0  0
 45 46  2  0  0  0
 45 47  1  0  0  0
 47 58  1  0  0  0
 48 49  2  0  0  0
 48 50  1  0  0  0
 50 59  1  0  0  0
M  END
>  <AUTHOR>
    GENERATED BY OPEN BABEL 2.4.1

>  <CHROM.1>
-70.91729604,-179.38487015,53.25175025,67.14559092,-164.14064073,-66.04375191
-97.09501940,147.88040932,76.97407633,-72.98439508,-91.65303735,-93.69323363
172.73481278,-62.34680029,-36.79376082,-136.66214221,-68.49185483,-156.23470442
-62.36139708,-145.65276063,69.86555047,-49.14883413,-43.71746849,11.73602625
170.86327792,158.77621082,-93.31929509,115.90700457,105.95516163,-2.39349080
-9.85218376,-4.67585387,-78.65276246,-156.81294232,-171.42096449,123.26119045
-58.07666451,-18.20889741,6.54937015,-3.53227058,-2.47210474,-7.07462693
2.96335705,-0.39958307,-1.84336754

>  <COMPND>
    UNNAMED

>  <MASTER>
        0    0    0    0    0    0    0    0  109    0  109    0

>  <Name>
FB1.pdb

>  <RI>
0

>  <Rbt.Current_Directory>
/home/fc/tossine/FB1_39/p3/0_clust04

>  <Rbt.Executable>
rbdock/0.1.0

>  <Rbt.Library>
librxdock.so/0.1.0

>  <Rbt.Parameter_File>
/cluster/rxdock/data/scripts/dock.prm

>  <Rbt.Receptor>
rx_3.prm

>  <SCORE>
23.4047

>  <SCORE.INTER>
5.71831

>  <SCORE.INTER.CONST>
1

>  <SCORE.INTER.POLAR>
-2.74778

>  <SCORE.INTER.REPUL>
0.257695

>  <SCORE.INTER.ROT>
32

>  <SCORE.INTER.VDW>
-23.6277

>  <SCORE.INTER.norm>
0.114366

>  <SCORE.INTRA>
12.0111

>  <SCORE.INTRA.DIHEDRAL>
6.04468

>  <SCORE.INTRA.DIHEDRAL.0>
47.3121

>  <SCORE.INTRA.POLAR>
1.34331

>  <SCORE.INTRA.POLAR.0>
-1.47808

>  <SCORE.INTRA.REPUL>
0

>  <SCORE.INTRA.REPUL.0>
0

>  <SCORE.INTRA.VDW>
4.42151

>  <SCORE.INTRA.VDW.0>
-2.78316

>  <SCORE.INTRA.norm>
0.240222

>  <SCORE.RESTR>
5.67528

>  <SCORE.RESTR.CAVITY>
5.67528

>  <SCORE.RESTR.norm>
0.113506

>  <SCORE.SYSTEM>
0

>  <SCORE.SYSTEM.CONST>
0

>  <SCORE.SYSTEM.DIHEDRAL>
0

>  <SCORE.SYSTEM.norm>
0

>  <SCORE.heavy>
50

>  <SCORE.norm>
0.468094

$$$$
