FB1.pdb
  RxDock  10062019583D
librxdock.so/0.1.0
 59 58  0  0  0  0  0  0  0  0999 V2000
   -7.6207  -11.2681  -21.0380 C   0  0  0  0  0  0
   -7.0103   -9.8991  -20.7472 C   0  0  0  0  0  0
   -7.5635   -9.2937  -19.4465 C   0  0  0  0  0  0
   -8.9630   -8.6503  -19.6111 C   0  0  0  0  0  0
  -10.0183   -9.0768  -18.5319 C   0  0  0  0  0  0
  -10.5990  -10.4513  -18.9371 C   0  0  0  0  0  0
   -9.4339   -9.1200  -17.0572 C   0  0  0  0  0  0
  -10.4015   -8.6294  -15.8785 C   0  0  0  0  0  0
  -10.3441   -9.1421  -14.3745 C   0  0  0  0  0  0
  -10.6465   -7.9918  -13.2314 C   0  0  0  0  0  0
  -10.6212   -8.6563  -11.8559 C   0  0  0  0  0  0
   -9.6744   -6.7269  -13.2324 C   0  0  0  0  0  0
   -9.7119   -5.5526  -12.1197 C   0  0  0  0  0  0
   -8.7149   -4.3436  -12.1402 C   0  0  0  0  0  0
   -7.1688   -4.6415  -12.4052 C   0  0  0  0  0  0
   -6.2063   -5.3359  -11.3632 C   0  0  0  0  0  0
   -5.8854   -4.6208  -10.0241 C   0  0  0  0  0  0
   -5.6473   -5.5468   -8.7691 C   0  0  0  0  0  0
   -5.4453   -4.8330   -7.4266 C   0  0  0  0  0  0
   -4.4889   -3.6076   -7.3797 C   0  0  0  0  0  0
   -4.8303   -2.3068   -8.1650 C   0  0  0  0  0  0
   -6.1405   -1.6212   -7.8035 C   0  0  0  0  0  0
   -3.7055   -1.3534   -8.1168 N   0  0  0  0  0  0
   -4.4692   -3.2100   -5.9850 O   0  0  0  0  0  0
   -6.7695   -6.4280   -8.6512 O   0  0  0  0  0  0
  -11.0175   -4.9644  -12.2470 O   0  0  0  0  0  0
  -10.2195   -7.1911  -15.7756 O   0  0  0  0  0  0
  -11.0424   -6.4102  -16.5228 C   0  0  0  0  0  0
  -12.0705   -6.7638  -17.0680 O   0  0  0  0  0  0
  -10.5248   -4.9988  -16.4829 C   0  0  0  0  0  0
  -11.0389   -4.1482  -17.6554 C   0  0  0  0  0  0
  -11.1021   -2.6537  -17.3151 C   0  0  0  0  0  0
  -11.7286   -2.4295  -15.9585 C   0  0  0  0  0  0
  -11.0942   -2.4354  -14.9091 O   0  0  0  0  0  0
  -13.0524   -2.2203  -16.0092 O   0  0  0  0  0  0
  -10.0551   -4.3829  -18.8100 C   0  0  0  0  0  0
   -8.8477   -4.2348  -18.6979 O   0  0  0  0  0  0
  -10.6347   -4.7176  -19.9710 O   0  0  0  0  0  0
   -8.8247  -10.4395  -16.7612 O   0  0  0  0  0  0
   -9.6541  -11.4730  -16.3587 C   0  0  0  0  0  0
  -10.8567  -11.3631  -16.1585 O   0  0  0  0  0  0
   -8.8966  -12.7963  -16.1866 C   0  0  0  0  0  0
   -9.7831  -14.0588  -15.9529 C   0  0  0  0  0  0
  -11.2829  -13.8483  -15.6756 C   0  0  0  0  0  0
  -11.6771  -14.2138  -14.2736 C   0  0  0  0  0  0
  -12.1016  -15.3029  -13.9127 O   0  0  0  0  0  0
  -11.4977  -13.2027  -13.4100 O   0  0  0  0  0  0
   -9.6705  -15.1283  -17.0464 C   0  0  0  0  0  0
  -10.5201  -15.2924  -17.8995 O   0  0  0  0  0  0
   -8.5083  -15.8139  -17.0688 O   0  0  0  0  0  0
   -3.7760   -0.7963   -7.2663 H   0  0  0  0  0  0
   -3.8130   -0.6825   -8.8808 H   0  0  0  0  0  0
   -5.3901   -2.9324   -5.7945 H   0  0  0  0  0  0
   -6.6491   -7.1601   -9.2837 H   0  0  0  0  0  0
  -11.6535   -5.6786  -12.4196 H   0  0  0  0  0  0
  -13.4846   -2.0748  -15.1458 H   0  0  0  0  0  0
  -11.5998   -4.9241  -19.9030 H   0  0  0  0  0  0
  -11.6567  -13.5669  -12.5136 H   0  0  0  0  0  0
   -7.8367  -15.5230  -16.4125 H   0  0  0  0  0  0
  1  2  1  0  0  0
  2  3  1  0  0  0
  3  4  1  0  0  0
  4  5  1  0  0  0
  5  6  1  0  0  0
  5  7  1  0  0  0
  7  8  1  0  0  0
  7 39  1  0  0  0
  8  9  1  0  0  0
  8 27  1  0  0  0
  9 10  1  0  0  0
 10 11  1  0  0  0
 10 12  1  0  0  0
 12 13  1  0  0  0
 13 14  1  0  0  0
 13 26  1  0  0  0
 14 15  1  0  0  0
 15 16  1  0  0  0
 16 17  1  0  0  0
 17 18  1  0  0  0
 18 19  1  0  0  0
 18 25  1  0  0  0
 19 20  1  0  0  0
 20 21  1  0  0  0
 20 24  1  0  0  0
 21 22  1  0  0  0
 21 23  1  0  0  0
 23 51  1  0  0  0
 23 52  1  0  0  0
 24 53  1  0  0  0
 25 54  1  0  0  0
 26 55  1  0  0  0
 27 28  1  0  0  0
 28 29  2  0  0  0
 28 30  1  0  0  0
 30 31  1  0  0  0
 31 32  1  0  0  0
 31 36  1  0  0  0
 32 33  1  0  0  0
 33 34  2  0  0  0
 33 35  1  0  0  0
 35 56  1  0  0  0
 36 37  2  0  0  0
 36 38  1  0  0  0
 38 57  1  0  0  0
 39 40  1  0  0  0
 40 41  2  0  0  0
 40 42  1  0  0  0
 42 43  1  0  0  0
 43 44  1  0  0  0
 43 48  1  0  0  0
 44 45  1  0  0  0
 45 46  2  0  0  0
 45 47  1  0  0  0
 47 58  1  0  0  0
 48 49  2  0  0  0
 48 50  1  0  0  0
 50 59  1  0  0  0
M  END
>  <AUTHOR>
    GENERATED BY OPEN BABEL 2.4.1

>  <CHROM.1>
-79.40694962,131.30851231,-81.00731558,142.50777182,151.44848384,-82.86428244
142.82364917,90.68711777,177.25952744,-174.36043586,178.53145038,-44.92043642
38.43882170,-71.83037892,-64.80550242,147.23157045,-175.13289041,-45.25414430
80.25386770,64.83884575,59.32556639,-63.85944090,-85.72583277,15.00173625
159.20152745,152.84973925,-45.60532569,-53.11839286,87.36565943,179.83237295
-10.10049685,-4.04113290,-170.82707378,-10.26021432,-111.85019712,-103.28486216
-93.18687273,-172.16092239,-3.14558834,-9.16321622,-7.64654812,-14.61474461
2.39842611,1.16487711,3.10310662

>  <COMPND>
    UNNAMED

>  <MASTER>
        0    0    0    0    0    0    0    0  109    0  109    0

>  <Name>
FB1.pdb

>  <RI>
0

>  <Rbt.Current_Directory>
/home/fc/tossine/FB1_39/p3/0_clust04

>  <Rbt.Executable>
rbdock/0.1.0

>  <Rbt.Library>
librxdock.so/0.1.0

>  <Rbt.Parameter_File>
/cluster/rxdock/data/scripts/dock.prm

>  <Rbt.Receptor>
rx_0.prm

>  <SCORE>
14.1007

>  <SCORE.INTER>
-5.03816

>  <SCORE.INTER.CONST>
1

>  <SCORE.INTER.POLAR>
-4.1478

>  <SCORE.INTER.REPUL>
0.0744651

>  <SCORE.INTER.ROT>
32

>  <SCORE.INTER.VDW>
-28.708

>  <SCORE.INTER.norm>
-0.100763

>  <SCORE.INTRA>
18.4693

>  <SCORE.INTRA.DIHEDRAL>
15.6111

>  <SCORE.INTRA.DIHEDRAL.0>
47.3121

>  <SCORE.INTRA.POLAR>
1.47808

>  <SCORE.INTRA.POLAR.0>
-1.47808

>  <SCORE.INTRA.REPUL>
0.0608105

>  <SCORE.INTRA.REPUL.0>
0

>  <SCORE.INTRA.VDW>
5.33425

>  <SCORE.INTRA.VDW.0>
-2.78316

>  <SCORE.INTRA.norm>
0.369387

>  <SCORE.RESTR>
0.669571

>  <SCORE.RESTR.CAVITY>
0.669571

>  <SCORE.RESTR.norm>
0.0133914

>  <SCORE.SYSTEM>
0

>  <SCORE.SYSTEM.CONST>
0

>  <SCORE.SYSTEM.DIHEDRAL>
0

>  <SCORE.SYSTEM.norm>
0

>  <SCORE.heavy>
50

>  <SCORE.norm>
0.282015

$$$$
