FB1.pdb
  RxDock  10062019593D
librxdock.so/0.1.0
 59 58  0  0  0  0  0  0  0  0999 V2000
  -12.5794    2.0746  -11.6943 C   0  0  0  0  0  0
  -12.5839    0.9330  -12.7082 C   0  0  0  0  0  0
  -13.3835   -0.2776  -12.1990 C   0  0  0  0  0  0
  -12.7520   -0.9572  -10.9584 C   0  0  0  0  0  0
  -11.5279   -1.8886  -11.2656 C   0  0  0  0  0  0
  -10.2328   -1.0629  -11.0875 C   0  0  0  0  0  0
  -11.4913   -3.2009  -10.3742 C   0  0  0  0  0  0
  -10.8824   -4.5199  -11.0493 C   0  0  0  0  0  0
  -10.6058   -4.7080  -12.6037 C   0  0  0  0  0  0
  -10.1200   -6.2200  -13.0498 C   0  0  0  0  0  0
  -11.0746   -7.2389  -12.4295 C   0  0  0  0  0  0
   -9.9994   -6.4857  -14.6182 C   0  0  0  0  0  0
   -9.8387   -7.9534  -15.2804 C   0  0  0  0  0  0
  -10.9359   -9.0635  -15.1392 C   0  0  0  0  0  0
  -10.4935  -10.5022  -14.6066 C   0  0  0  0  0  0
   -9.1244  -10.7971  -13.8764 C   0  0  0  0  0  0
   -7.8288  -10.9550  -14.7155 C   0  0  0  0  0  0
   -7.5688  -12.3752  -15.3516 C   0  0  0  0  0  0
   -8.7239  -12.9794  -16.1597 C   0  0  0  0  0  0
   -9.3429  -12.1324  -17.3077 C   0  0  0  0  0  0
   -8.4305  -11.4616  -18.3768 C   0  0  0  0  0  0
   -7.8219  -10.1178  -18.0012 C   0  0  0  0  0  0
   -7.3914  -12.3991  -18.8436 N   0  0  0  0  0  0
  -10.1673  -13.0665  -18.0504 O   0  0  0  0  0  0
   -6.4220  -12.2747  -16.2027 O   0  0  0  0  0  0
   -9.7294   -7.7114  -16.6932 O   0  0  0  0  0  0
   -9.5878   -4.7354  -10.4248 O   0  0  0  0  0  0
   -8.5539   -3.9751  -10.8701 C   0  0  0  0  0  0
   -8.5593   -3.2578  -11.8524 O   0  0  0  0  0  0
   -7.4226   -4.0864   -9.8857 C   0  0  0  0  0  0
   -6.7304   -5.4579   -9.9344 C   0  0  0  0  0  0
   -6.2040   -5.8023  -11.3336 C   0  0  0  0  0  0
   -6.2602   -7.2911  -11.5860 C   0  0  0  0  0  0
   -5.2704   -7.9783  -11.8135 O   0  0  0  0  0  0
   -7.5022   -7.7950  -11.5360 O   0  0  0  0  0  0
   -5.5643   -5.3775   -8.9396 C   0  0  0  0  0  0
   -5.1121   -4.3207   -8.5261 O   0  0  0  0  0  0
   -5.0468   -6.5653   -8.5969 O   0  0  0  0  0  0
  -10.8893   -2.9295   -9.0462 O   0  0  0  0  0  0
  -11.1557   -3.8085   -8.0097 C   0  0  0  0  0  0
  -11.3245   -5.0134   -8.1444 O   0  0  0  0  0  0
  -11.2183   -3.1038   -6.6481 C   0  0  0  0  0  0
   -9.9622   -2.2624   -6.2625 C   0  0  0  0  0  0
  -10.0894   -1.2660   -5.0957 C   0  0  0  0  0  0
  -10.5098   -1.9185   -3.8104 C   0  0  0  0  0  0
  -11.6134   -2.3929   -3.5786 O   0  0  0  0  0  0
   -9.5201   -1.9537   -2.9050 O   0  0  0  0  0  0
   -8.6928   -3.0874   -6.0172 C   0  0  0  0  0  0
   -8.3574   -3.4708   -4.9140 O   0  0  0  0  0  0
   -8.0187   -3.4569   -7.1264 O   0  0  0  0  0  0
   -7.8395  -13.2236  -19.2409 H   0  0  0  0  0  0
   -6.8751  -12.7452  -18.0318 H   0  0  0  0  0  0
  -10.9853  -13.1520  -17.5165 H   0  0  0  0  0  0
   -5.6980  -11.8692  -15.6909 H   0  0  0  0  0  0
   -8.9814   -7.1081  -16.8380 H   0  0  0  0  0  0
   -7.5588   -8.7687  -11.5820 H   0  0  0  0  0  0
   -4.2769   -6.5138   -7.9777 H   0  0  0  0  0  0
   -8.7748   -1.4408   -3.2829 H   0  0  0  0  0  0
   -7.2212   -4.0095   -6.9683 H   0  0  0  0  0  0
  1  2  1  0  0  0
  2  3  1  0  0  0
  3  4  1  0  0  0
  4  5  1  0  0  0
  5  6  1  0  0  0
  5  7  1  0  0  0
  7  8  1  0  0  0
  7 39  1  0  0  0
  8  9  1  0  0  0
  8 27  1  0  0  0
  9 10  1  0  0  0
 10 11  1  0  0  0
 10 12  1  0  0  0
 12 13  1  0  0  0
 13 14  1  0  0  0
 13 26  1  0  0  0
 14 15  1  0  0  0
 15 16  1  0  0  0
 16 17  1  0  0  0
 17 18  1  0  0  0
 18 19  1  0  0  0
 18 25  1  0  0  0
 19 20  1  0  0  0
 20 21  1  0  0  0
 20 24  1  0  0  0
 21 22  1  0  0  0
 21 23  1  0  0  0
 23 51  1  0  0  0
 23 52  1  0  0  0
 24 53  1  0  0  0
 25 54  1  0  0  0
 26 55  1  0  0  0
 27 28  1  0  0  0
 28 29  2  0  0  0
 28 30  1  0  0  0
 30 31  1  0  0  0
 31 32  1  0  0  0
 31 36  1  0  0  0
 32 33  1  0  0  0
 33 34  2  0  0  0
 33 35  1  0  0  0
 35 56  1  0  0  0
 36 37  2  0  0  0
 36 38  1  0  0  0
 38 57  1  0  0  0
 39 40  1  0  0  0
 40 41  2  0  0  0
 40 42  1  0  0  0
 42 43  1  0  0  0
 43 44  1  0  0  0
 43 48  1  0  0  0
 44 45  1  0  0  0
 45 46  2  0  0  0
 45 47  1  0  0  0
 47 58  1  0  0  0
 48 49  2  0  0  0
 48 50  1  0  0  0
 50 59  1  0  0  0
M  END
>  <AUTHOR>
    GENERATED BY OPEN BABEL 2.4.1

>  <CHROM.1>
-65.54739465,-78.11093943,94.46046615,147.22462660,-13.81063415,159.66270345
-173.98521858,-79.19630470,49.18209812,-166.99054374,62.36594572,-127.65681956
56.64710731,15.92200938,-79.21412784,-82.92673469,51.25487972,53.60781233
51.71369390,49.73825102,-83.55616034,78.84430883,58.95493274,-10.24597312
72.19221286,56.57144035,-147.86012829,-18.02920987,-118.64078230,-172.55789972
178.18771025,33.17862356,-55.03458641,165.27458992,57.90657163,-93.79259311
-69.58808012,6.28937139,-178.14787190,-9.24578671,-5.81381005,-11.39561096
1.76268936,-0.81594153,0.93922021

>  <COMPND>
    UNNAMED

>  <MASTER>
        0    0    0    0    0    0    0    0  109    0  109    0

>  <Name>
FB1.pdb

>  <RI>
0

>  <Rbt.Current_Directory>
/home/fc/tossine/FB1_39/p3/0_clust04

>  <Rbt.Executable>
rbdock/0.1.0

>  <Rbt.Library>
librxdock.so/0.1.0

>  <Rbt.Parameter_File>
/cluster/rxdock/data/scripts/dock.prm

>  <Rbt.Receptor>
rx_0.prm

>  <SCORE>
12.1402

>  <SCORE.INTER>
3.16104

>  <SCORE.INTER.CONST>
1

>  <SCORE.INTER.POLAR>
-2.03718

>  <SCORE.INTER.REPUL>
0.277672

>  <SCORE.INTER.ROT>
32

>  <SCORE.INTER.VDW>
-28.7009

>  <SCORE.INTER.norm>
0.0632208

>  <SCORE.INTRA>
8.97917

>  <SCORE.INTRA.DIHEDRAL>
13.6119

>  <SCORE.INTRA.DIHEDRAL.0>
47.3121

>  <SCORE.INTRA.POLAR>
0.64629

>  <SCORE.INTRA.POLAR.0>
-1.47808

>  <SCORE.INTRA.REPUL>
0

>  <SCORE.INTRA.REPUL.0>
0

>  <SCORE.INTRA.VDW>
-0.0241782

>  <SCORE.INTRA.VDW.0>
-2.78316

>  <SCORE.INTRA.norm>
0.179583

>  <SCORE.RESTR>
0

>  <SCORE.RESTR.CAVITY>
0

>  <SCORE.RESTR.norm>
0

>  <SCORE.SYSTEM>
0

>  <SCORE.SYSTEM.CONST>
0

>  <SCORE.SYSTEM.DIHEDRAL>
0

>  <SCORE.SYSTEM.norm>
0

>  <SCORE.heavy>
50

>  <SCORE.norm>
0.242804

$$$$
