FB1.pdb
  RxDock  10062019573D
librxdock.so/0.1.0
 59 58  0  0  0  0  0  0  0  0999 V2000
  -13.2812    0.5931  -12.8860 C   0  0  0  0  0  0
  -12.7398   -0.6702  -12.2209 C   0  0  0  0  0  0
  -11.5579   -1.2645  -13.0046 C   0  0  0  0  0  0
  -11.5409   -2.8134  -13.0160 C   0  0  0  0  0  0
  -11.0362   -3.4792  -11.6884 C   0  0  0  0  0  0
  -12.2133   -3.5181  -10.6867 C   0  0  0  0  0  0
  -10.4228   -4.9274  -11.8997 C   0  0  0  0  0  0
   -9.4239   -5.4645  -10.7684 C   0  0  0  0  0  0
   -9.8364   -5.8084   -9.2718 C   0  0  0  0  0  0
   -9.4064   -4.6776   -8.1503 C   0  0  0  0  0  0
   -7.8825   -4.6550   -8.0438 C   0  0  0  0  0  0
   -9.9471   -3.1978   -8.4008 C   0  0  0  0  0  0
   -9.8532   -2.0013   -7.3154 C   0  0  0  0  0  0
  -10.6122   -2.0486   -5.9451 C   0  0  0  0  0  0
  -10.2470   -0.9566   -4.8390 C   0  0  0  0  0  0
  -10.1448    0.5941   -5.1208 C   0  0  0  0  0  0
  -11.4411    1.4194   -5.3349 C   0  0  0  0  0  0
  -11.2580    2.9620   -5.6107 C   0  0  0  0  0  0
  -12.5045    3.8372   -5.4298 C   0  0  0  0  0  0
  -13.3569    3.6493   -4.1428 C   0  0  0  0  0  0
  -14.1125    4.8556   -3.5109 C   0  0  0  0  0  0
  -14.9618    5.6935   -4.4563 C   0  0  0  0  0  0
  -14.8965    4.4279   -2.3366 N   0  0  0  0  0  0
  -14.3970    2.7129   -4.5242 O   0  0  0  0  0  0
  -10.2310    3.4476   -4.7393 O   0  0  0  0  0  0
   -8.4599   -1.9241   -6.9701 O   0  0  0  0  0  0
   -8.8591   -6.7023  -11.2794 O   0  0  0  0  0  0
   -7.6245   -7.0485  -10.8307 C   0  0  0  0  0  0
   -7.0017   -6.4989   -9.9423 O   0  0  0  0  0  0
   -7.1899   -8.2965  -11.5485 C   0  0  0  0  0  0
   -6.3542   -7.9953  -12.8029 C   0  0  0  0  0  0
   -7.1494   -8.1888  -14.1004 C   0  0  0  0  0  0
   -6.2348   -8.2046  -15.3031 C   0  0  0  0  0  0
   -5.1400   -8.7569  -15.3154 O   0  0  0  0  0  0
   -6.7360   -7.5551  -16.3641 O   0  0  0  0  0  0
   -5.9098   -6.5320  -12.6724 C   0  0  0  0  0  0
   -4.7978   -6.2045  -12.2869 O   0  0  0  0  0  0
   -6.8613   -5.6364  -12.9699 O   0  0  0  0  0  0
  -11.4814   -5.9158  -12.2191 O   0  0  0  0  0  0
  -11.5919   -6.3645  -13.5247 C   0  0  0  0  0  0
  -12.6491   -6.6219  -14.0855 O   0  0  0  0  0  0
  -10.2267   -6.5080  -14.2102 C   0  0  0  0  0  0
  -10.0412   -5.6928  -15.5276 C   0  0  0  0  0  0
   -8.8129   -6.0023  -16.4028 C   0  0  0  0  0  0
   -8.5653   -4.9607  -17.4556 C   0  0  0  0  0  0
   -9.3981   -4.5265  -18.2395 O   0  0  0  0  0  0
   -7.2999   -4.5147  -17.4486 O   0  0  0  0  0  0
  -11.2655   -5.6865  -16.4514 C   0  0  0  0  0  0
  -11.8834   -6.6936  -16.7355 O   0  0  0  0  0  0
  -11.6845   -4.4671  -16.8496 O   0  0  0  0  0  0
  -15.8474    4.2100   -2.6312 H   0  0  0  0  0  0
  -14.9932    5.2231   -1.7012 H   0  0  0  0  0  0
  -13.9416    1.8461   -4.5760 H   0  0  0  0  0  0
  -10.5273    3.3201   -3.8193 H   0  0  0  0  0  0
   -7.9909   -1.4963   -7.7060 H   0  0  0  0  0  0
   -6.1014   -7.3852  -17.0865 H   0  0  0  0  0  0
   -6.6022   -4.6949  -12.8113 H   0  0  0  0  0  0
   -6.8488   -4.9598  -16.7005 H   0  0  0  0  0  0
  -12.5169   -4.4594  -17.3725 H   0  0  0  0  0  0
  1  2  1  0  0  0
  2  3  1  0  0  0
  3  4  1  0  0  0
  4  5  1  0  0  0
  5  6  1  0  0  0
  5  7  1  0  0  0
  7  8  1  0  0  0
  7 39  1  0  0  0
  8  9  1  0  0  0
  8 27  1  0  0  0
  9 10  1  0  0  0
 10 11  1  0  0  0
 10 12  1  0  0  0
 12 13  1  0  0  0
 13 14  1  0  0  0
 13 26  1  0  0  0
 14 15  1  0  0  0
 15 16  1  0  0  0
 16 17  1  0  0  0
 17 18  1  0  0  0
 18 19  1  0  0  0
 18 25  1  0  0  0
 19 20  1  0  0  0
 20 21  1  0  0  0
 20 24  1  0  0  0
 21 22  1  0  0  0
 21 23  1  0  0  0
 23 51  1  0  0  0
 23 52  1  0  0  0
 24 53  1  0  0  0
 25 54  1  0  0  0
 26 55  1  0  0  0
 27 28  1  0  0  0
 28 29  2  0  0  0
 28 30  1  0  0  0
 30 31  1  0  0  0
 31 32  1  0  0  0
 31 36  1  0  0  0
 32 33  1  0  0  0
 33 34  2  0  0  0
 33 35  1  0  0  0
 35 56  1  0  0  0
 36 37  2  0  0  0
 36 38  1  0  0  0
 38 57  1  0  0  0
 39 40  1  0  0  0
 40 41  2  0  0  0
 40 42  1  0  0  0
 42 43  1  0  0  0
 43 44  1  0  0  0
 43 48  1  0  0  0
 44 45  1  0  0  0
 45 46  2  0  0  0
 45 47  1  0  0  0
 47 58  1  0  0  0
 48 49  2  0  0  0
 48 50  1  0  0  0
 50 59  1  0  0  0
M  END
>  <AUTHOR>
    GENERATED BY OPEN BABEL 2.4.1

>  <CHROM.1>
-143.00443383,-76.92513620,81.95613279,158.37166304,66.65670083,105.45187011
-103.17298137,152.45520789,-67.33032471,169.53150094,-64.41663516,168.94485339
75.25382686,48.32647614,73.84339472,179.96971652,-163.32091059,47.18720465
-61.99303208,148.01624532,49.50669150,74.17858010,-93.44433949,8.05808716
93.47468383,-104.33831231,-166.70442756,100.00035467,39.79417349,167.68024328
174.95187599,-143.91545871,-122.86057574,-168.27035114,-166.59739001,-46.87499062
-50.26750771,-3.10867698,-174.57742175,-10.01056320,-3.34515220,-10.90696416
1.99941860,-0.76097903,1.13232554

>  <COMPND>
    UNNAMED

>  <MASTER>
        0    0    0    0    0    0    0    0  109    0  109    0

>  <Name>
FB1.pdb

>  <RI>
0

>  <Rbt.Current_Directory>
/home/fc/tossine/FB1_39/p3/0_clust04

>  <Rbt.Executable>
rbdock/0.1.0

>  <Rbt.Library>
librxdock.so/0.1.0

>  <Rbt.Parameter_File>
/cluster/rxdock/data/scripts/dock.prm

>  <Rbt.Receptor>
rx_0.prm

>  <SCORE>
157.563

>  <SCORE.INTER>
127.32

>  <SCORE.INTER.CONST>
1

>  <SCORE.INTER.POLAR>
-0.23841

>  <SCORE.INTER.REPUL>
1.23147

>  <SCORE.INTER.ROT>
32

>  <SCORE.INTER.VDW>
84.5737

>  <SCORE.INTER.norm>
2.54641

>  <SCORE.INTRA>
16.9687

>  <SCORE.INTRA.DIHEDRAL>
17.7784

>  <SCORE.INTRA.DIHEDRAL.0>
47.3121

>  <SCORE.INTRA.POLAR>
1.47808

>  <SCORE.INTRA.POLAR.0>
-1.47808

>  <SCORE.INTRA.REPUL>
0

>  <SCORE.INTRA.REPUL.0>
0

>  <SCORE.INTRA.VDW>
3.054

>  <SCORE.INTRA.VDW.0>
-2.78316

>  <SCORE.INTRA.norm>
0.339374

>  <SCORE.RESTR>
13.2743

>  <SCORE.RESTR.CAVITY>
13.2743

>  <SCORE.RESTR.norm>
0.265486

>  <SCORE.SYSTEM>
0

>  <SCORE.SYSTEM.CONST>
0

>  <SCORE.SYSTEM.DIHEDRAL>
0

>  <SCORE.SYSTEM.norm>
0

>  <SCORE.heavy>
50

>  <SCORE.norm>
3.15127

$$$$
