FB1.pdb
  RxDock  10062022273D
librxdock.so/0.1.0
 59 58  0  0  0  0  0  0  0  0999 V2000
   -1.4526   -2.9986   -4.3030 C   0  0  0  0  0  0
   -2.9492   -3.0007   -4.0006 C   0  0  0  0  0  0
   -3.7627   -2.3784   -5.1474 C   0  0  0  0  0  0
   -3.5829   -3.1108   -6.5005 C   0  0  0  0  0  0
   -4.7232   -4.1262   -6.8599 C   0  0  0  0  0  0
   -4.4541   -5.4467   -6.1020 C   0  0  0  0  0  0
   -6.1796   -3.5792   -6.5474 C   0  0  0  0  0  0
   -7.2843   -3.7606   -7.6933 C   0  0  0  0  0  0
   -7.2355   -4.8544   -8.8463 C   0  0  0  0  0  0
   -5.7542   -5.0766   -9.5375 C   0  0  0  0  0  0
   -5.1568   -6.3750   -8.9975 C   0  0  0  0  0  0
   -5.7178   -5.0938  -11.1322 C   0  0  0  0  0  0
   -6.5292   -6.1535  -12.0472 C   0  0  0  0  0  0
   -6.7040   -5.9674  -13.5935 C   0  0  0  0  0  0
   -8.1620   -6.1497  -14.2182 C   0  0  0  0  0  0
   -9.4906   -5.6299  -13.5404 C   0  0  0  0  0  0
   -9.5493   -4.1830  -12.9832 C   0  0  0  0  0  0
  -10.9830   -3.5415  -12.8355 C   0  0  0  0  0  0
  -11.5851   -3.5411  -11.4248 C   0  0  0  0  0  0
  -10.7787   -2.8661  -10.2792 C   0  0  0  0  0  0
  -10.3146   -1.3847  -10.4044 C   0  0  0  0  0  0
   -9.0118   -1.1440  -11.1542 C   0  0  0  0  0  0
  -11.3968   -0.5387  -10.9426 N   0  0  0  0  0  0
  -11.6751   -2.8835   -9.1390 O   0  0  0  0  0  0
  -10.9118   -2.1891  -13.2999 O   0  0  0  0  0  0
   -5.8170   -7.3931  -11.8967 O   0  0  0  0  0  0
   -8.5413   -4.0145   -7.0094 O   0  0  0  0  0  0
   -9.3277   -2.9390   -6.7446 C   0  0  0  0  0  0
   -9.8267   -2.1930   -7.5656 O   0  0  0  0  0  0
   -9.5672   -2.8782   -5.2612 C   0  0  0  0  0  0
  -10.6406   -1.8468   -4.8784 C   0  0  0  0  0  0
  -11.9606   -2.0646   -5.6292 C   0  0  0  0  0  0
  -12.4095   -0.7985   -6.3211 C   0  0  0  0  0  0
  -13.4664   -0.2283   -6.0733 O   0  0  0  0  0  0
  -11.5372   -0.3521   -7.2369 O   0  0  0  0  0  0
  -10.8623   -2.0094   -3.3683 C   0  0  0  0  0  0
  -11.9637   -1.9392   -2.8444 O   0  0  0  0  0  0
   -9.7383   -2.1866   -2.6602 O   0  0  0  0  0  0
   -6.6621   -4.0628   -5.2309 O   0  0  0  0  0  0
   -6.2569   -3.3873   -4.0917 C   0  0  0  0  0  0
   -6.2413   -2.1691   -3.9730 O   0  0  0  0  0  0
   -5.8215   -4.3409   -2.9713 C   0  0  0  0  0  0
   -6.6359   -4.2432   -1.6440 C   0  0  0  0  0  0
   -6.7763   -2.8604   -0.9817 C   0  0  0  0  0  0
   -5.4635   -2.2930   -0.5244 C   0  0  0  0  0  0
   -5.0111   -2.3659    0.6099 O   0  0  0  0  0  0
   -4.7921   -1.6887   -1.5165 O   0  0  0  0  0  0
   -8.0393   -4.8582   -1.7102 C   0  0  0  0  0  0
   -8.6223   -5.0619   -2.7568 O   0  0  0  0  0  0
   -8.5510   -5.2626   -0.5287 O   0  0  0  0  0  0
  -12.2792   -0.8107  -10.5115 H   0  0  0  0  0  0
  -11.5129   -0.7498  -11.9363 H   0  0  0  0  0  0
  -11.2251   -2.3341   -8.4629 H   0  0  0  0  0  0
  -10.9289   -2.2009  -14.2746 H   0  0  0  0  0  0
   -4.8825   -7.1847  -11.7299 H   0  0  0  0  0  0
  -10.6784   -0.8163   -7.2554 H   0  0  0  0  0  0
   -9.8597   -2.1390   -1.6795 H   0  0  0  0  0  0
   -5.4420   -1.5116   -2.2289 H   0  0  0  0  0  0
   -9.4465   -5.6653   -0.5750 H   0  0  0  0  0  0
  1  2  1  0  0  0
  2  3  1  0  0  0
  3  4  1  0  0  0
  4  5  1  0  0  0
  5  6  1  0  0  0
  5  7  1  0  0  0
  7  8  1  0  0  0
  7 39  1  0  0  0
  8  9  1  0  0  0
  8 27  1  0  0  0
  9 10  1  0  0  0
 10 11  1  0  0  0
 10 12  1  0  0  0
 12 13  1  0  0  0
 13 14  1  0  0  0
 13 26  1  0  0  0
 14 15  1  0  0  0
 15 16  1  0  0  0
 16 17  1  0  0  0
 17 18  1  0  0  0
 18 19  1  0  0  0
 18 25  1  0  0  0
 19 20  1  0  0  0
 20 21  1  0  0  0
 20 24  1  0  0  0
 21 22  1  0  0  0
 21 23  1  0  0  0
 23 51  1  0  0  0
 23 52  1  0  0  0
 24 53  1  0  0  0
 25 54  1  0  0  0
 26 55  1  0  0  0
 27 28  1  0  0  0
 28 29  2  0  0  0
 28 30  1  0  0  0
 30 31  1  0  0  0
 31 32  1  0  0  0
 31 36  1  0  0  0
 32 33  1  0  0  0
 33 34  2  0  0  0
 33 35  1  0  0  0
 35 56  1  0  0  0
 36 37  2  0  0  0
 36 38  1  0  0  0
 38 57  1  0  0  0
 39 40  1  0  0  0
 40 41  2  0  0  0
 40 42  1  0  0  0
 42 43  1  0  0  0
 43 44  1  0  0  0
 43 48  1  0  0  0
 44 45  1  0  0  0
 45 46  2  0  0  0
 45 47  1  0  0  0
 47 58  1  0  0  0
 48 49  2  0  0  0
 48 50  1  0  0  0
 50 59  1  0  0  0
M  END
>  <AUTHOR>
    GENERATED BY OPEN BABEL 2.4.1

>  <CHROM.1>
59.39081870,98.67185931,-80.87731311,133.01980678,23.47856609,82.27227585
-42.25141857,92.88998652,103.85553686,-59.93526898,167.31633247,-132.24063393
-29.58504447,40.01543936,47.09947938,157.30923007,100.58125782,56.49414329
78.58114967,55.30283089,-84.30084914,-171.26689142,41.34480112,61.88543907
-170.00502978,54.19249113,-126.90678838,-140.87750368,-119.03907881,-8.24856824
170.19086131,44.80198479,-119.66601352,-53.41857616,-63.93360601,-19.73438778
-96.43174259,17.88198982,-179.36533682,-8.02535683,-3.37062014,-6.87202834
-1.26283393,0.39529677,-1.77980653

>  <COMPND>
    UNNAMED

>  <MASTER>
        0    0    0    0    0    0    0    0  109    0  109    0

>  <Name>
FB1.pdb

>  <RI>
0

>  <Rbt.Current_Directory>
/home/fc/tossine/FB1_39/p3/0_clust04

>  <Rbt.Executable>
rbdock/0.1.0

>  <Rbt.Library>
librxdock.so/0.1.0

>  <Rbt.Parameter_File>
/cluster/rxdock/data/scripts/dock.prm

>  <Rbt.Receptor>
rx_3.prm

>  <SCORE>
50.9648

>  <SCORE.INTER>
24.8576

>  <SCORE.INTER.CONST>
1

>  <SCORE.INTER.POLAR>
-1.30278

>  <SCORE.INTER.REPUL>
1.84232

>  <SCORE.INTER.ROT>
32

>  <SCORE.INTER.VDW>
-17.3245

>  <SCORE.INTER.norm>
0.497153

>  <SCORE.INTRA>
21.9442

>  <SCORE.INTRA.DIHEDRAL>
49.9687

>  <SCORE.INTRA.DIHEDRAL.0>
47.3121

>  <SCORE.INTRA.POLAR>
-1.08478

>  <SCORE.INTRA.POLAR.0>
-1.47808

>  <SCORE.INTRA.REPUL>
0

>  <SCORE.INTRA.REPUL.0>
0

>  <SCORE.INTRA.VDW>
0.648067

>  <SCORE.INTRA.VDW.0>
-2.78316

>  <SCORE.INTRA.norm>
0.438883

>  <SCORE.RESTR>
4.16303

>  <SCORE.RESTR.CAVITY>
4.16303

>  <SCORE.RESTR.norm>
0.0832605

>  <SCORE.SYSTEM>
0

>  <SCORE.SYSTEM.CONST>
0

>  <SCORE.SYSTEM.DIHEDRAL>
0

>  <SCORE.SYSTEM.norm>
0

>  <SCORE.heavy>
50

>  <SCORE.norm>
1.0193

$$$$
