FB1.pdb
  RxDock  10062022263D
librxdock.so/0.1.0
 59 58  0  0  0  0  0  0  0  0999 V2000
  -12.6267    0.7561  -12.0371 C   0  0  0  0  0  0
  -13.0873    0.3001  -10.6546 C   0  0  0  0  0  0
  -12.4454   -1.0383  -10.2534 C   0  0  0  0  0  0
  -10.8982   -1.0283  -10.3285 C   0  0  0  0  0  0
  -10.2508   -2.3711  -10.8165 C   0  0  0  0  0  0
   -9.1282   -2.0309  -11.8238 C   0  0  0  0  0  0
   -9.6982   -3.2740   -9.6345 C   0  0  0  0  0  0
   -8.9400   -4.6239  -10.0459 C   0  0  0  0  0  0
   -7.8412   -5.3612   -9.1644 C   0  0  0  0  0  0
   -6.3145   -4.7497   -9.2941 C   0  0  0  0  0  0
   -6.2652   -3.4091   -8.5631 C   0  0  0  0  0  0
   -5.1347   -5.6876   -8.7715 C   0  0  0  0  0  0
   -4.8922   -6.0591   -7.2152 C   0  0  0  0  0  0
   -3.4947   -5.9054   -6.5227 C   0  0  0  0  0  0
   -2.8048   -4.4656   -6.5206 C   0  0  0  0  0  0
   -3.4268   -3.1832   -5.8399 C   0  0  0  0  0  0
   -3.5879   -3.1383   -4.2974 C   0  0  0  0  0  0
   -4.5833   -2.0573   -3.7231 C   0  0  0  0  0  0
   -6.0698   -2.2680   -4.0365 C   0  0  0  0  0  0
   -6.6990   -3.6561   -3.7270 C   0  0  0  0  0  0
   -6.5954   -4.2716   -2.3002 C   0  0  0  0  0  0
   -7.5513   -5.4133   -1.9838 C   0  0  0  0  0  0
   -5.2031   -4.6483   -1.9903 N   0  0  0  0  0  0
   -8.1199   -3.4747   -3.9554 O   0  0  0  0  0  0
   -4.4194   -2.0171   -2.3014 O   0  0  0  0  0  0
   -5.7706   -5.1858   -6.4856 O   0  0  0  0  0  0
   -9.9736   -5.6261  -10.2449 O   0  0  0  0  0  0
  -10.6698   -5.5714  -11.4100 C   0  0  0  0  0  0
  -11.8627   -5.7664  -11.5451 O   0  0  0  0  0  0
   -9.7361   -5.1268  -12.5019 C   0  0  0  0  0  0
   -9.5354   -6.2026  -13.5813 C   0  0  0  0  0  0
   -8.3523   -5.8934  -14.5076 C   0  0  0  0  0  0
   -7.0455   -5.9175  -13.7492 C   0  0  0  0  0  0
   -6.9718   -5.9344  -12.5253 O   0  0  0  0  0  0
   -5.9659   -5.9204  -14.5450 O   0  0  0  0  0  0
   -9.2829   -7.5152  -12.8268 C   0  0  0  0  0  0
   -9.2173   -7.5824  -11.6088 O   0  0  0  0  0  0
   -9.0900   -8.5795  -13.6180 O   0  0  0  0  0  0
   -8.9119   -2.4689   -8.6684 O   0  0  0  0  0  0
   -9.3580   -2.3894   -7.3597 C   0  0  0  0  0  0
   -8.6493   -2.5348   -6.3723 O   0  0  0  0  0  0
  -10.8612   -2.0940   -7.2723 C   0  0  0  0  0  0
  -11.2898   -1.0854   -6.1616 C   0  0  0  0  0  0
  -12.7627   -0.6394   -6.1189 C   0  0  0  0  0  0
  -13.1295    0.2821   -7.2462 C   0  0  0  0  0  0
  -12.6271    1.3756   -7.4662 O   0  0  0  0  0  0
  -14.0855   -0.2293   -8.0367 O   0  0  0  0  0  0
  -10.9012   -1.5019   -4.7376 C   0  0  0  0  0  0
  -10.8407   -2.6625   -4.3825 O   0  0  0  0  0  0
  -10.5230   -0.4952   -3.9223 O   0  0  0  0  0  0
   -4.6511   -3.8029   -1.8523 H   0  0  0  0  0  0
   -4.7954   -5.0978   -2.8133 H   0  0  0  0  0  0
   -8.1870   -3.2152   -4.8985 H   0  0  0  0  0  0
   -4.9595   -1.2837   -1.9536 H   0  0  0  0  0  0
   -6.6701   -5.5495   -6.5408 H   0  0  0  0  0  0
   -6.1545   -5.9241  -15.5030 H   0  0  0  0  0  0
   -9.0310   -8.3680  -14.5827 H   0  0  0  0  0  0
  -14.3026   -1.1157   -7.6783 H   0  0  0  0  0  0
  -10.5604   -0.6971   -2.9610 H   0  0  0  0  0  0
  1  2  1  0  0  0
  2  3  1  0  0  0
  3  4  1  0  0  0
  4  5  1  0  0  0
  5  6  1  0  0  0
  5  7  1  0  0  0
  7  8  1  0  0  0
  7 39  1  0  0  0
  8  9  1  0  0  0
  8 27  1  0  0  0
  9 10  1  0  0  0
 10 11  1  0  0  0
 10 12  1  0  0  0
 12 13  1  0  0  0
 13 14  1  0  0  0
 13 26  1  0  0  0
 14 15  1  0  0  0
 15 16  1  0  0  0
 16 17  1  0  0  0
 17 18  1  0  0  0
 18 19  1  0  0  0
 18 25  1  0  0  0
 19 20  1  0  0  0
 20 21  1  0  0  0
 20 24  1  0  0  0
 21 22  1  0  0  0
 21 23  1  0  0  0
 23 51  1  0  0  0
 23 52  1  0  0  0
 24 53  1  0  0  0
 25 54  1  0  0  0
 26 55  1  0  0  0
 27 28  1  0  0  0
 28 29  2  0  0  0
 28 30  1  0  0  0
 30 31  1  0  0  0
 31 32  1  0  0  0
 31 36  1  0  0  0
 32 33  1  0  0  0
 33 34  2  0  0  0
 33 35  1  0  0  0
 35 56  1  0  0  0
 36 37  2  0  0  0
 36 38  1  0  0  0
 38 57  1  0  0  0
 39 40  1  0  0  0
 40 41  2  0  0  0
 40 42  1  0  0  0
 42 43  1  0  0  0
 43 44  1  0  0  0
 43 48  1  0  0  0
 44 45  1  0  0  0
 45 46  2  0  0  0
 45 47  1  0  0  0
 47 58  1  0  0  0
 48 49  2  0  0  0
 48 50  1  0  0  0
 50 59  1  0  0  0
M  END
>  <AUTHOR>
    GENERATED BY OPEN BABEL 2.4.1

>  <CHROM.1>
54.50420245,-143.46182744,136.62649053,-176.38363207,154.28249493,118.17330544
-82.38814349,77.63372878,72.79603067,-68.75843429,-129.64761532,57.86842672
78.26115619,61.43644084,65.81360101,-162.25073772,67.68150135,51.26614650
173.83314248,54.68737019,163.28965017,60.31138892,71.19480401,-140.54771817
116.12550800,-166.59988431,64.79415813,-2.65707520,-12.49637068,-1.12508615
6.69029297,133.42512476,-139.45414544,173.82863911,-71.77394720,-31.79803495
-60.62090675,-1.05063988,160.70616187,-8.54915998,-3.56779911,-8.22611543
2.01865611,0.57334788,-2.01533060

>  <COMPND>
    UNNAMED

>  <MASTER>
        0    0    0    0    0    0    0    0  109    0  109    0

>  <Name>
FB1.pdb

>  <RI>
0

>  <Rbt.Current_Directory>
/home/fc/tossine/FB1_39/p3/0_clust04

>  <Rbt.Executable>
rbdock/0.1.0

>  <Rbt.Library>
librxdock.so/0.1.0

>  <Rbt.Parameter_File>
/cluster/rxdock/data/scripts/dock.prm

>  <Rbt.Receptor>
rx_3.prm

>  <SCORE>
34.961

>  <SCORE.INTER>
13.3638

>  <SCORE.INTER.CONST>
1

>  <SCORE.INTER.POLAR>
-1.19967

>  <SCORE.INTER.REPUL>
0.456258

>  <SCORE.INTER.ROT>
32

>  <SCORE.INTER.VDW>
-22.2386

>  <SCORE.INTER.norm>
0.267275

>  <SCORE.INTRA>
17.7517

>  <SCORE.INTRA.DIHEDRAL>
24.851

>  <SCORE.INTRA.DIHEDRAL.0>
47.3121

>  <SCORE.INTRA.POLAR>
-0.45034

>  <SCORE.INTRA.POLAR.0>
-1.47808

>  <SCORE.INTRA.REPUL>
0

>  <SCORE.INTRA.REPUL.0>
0

>  <SCORE.INTRA.VDW>
6.8574

>  <SCORE.INTRA.VDW.0>
-2.78316

>  <SCORE.INTRA.norm>
0.355035

>  <SCORE.RESTR>
3.8455

>  <SCORE.RESTR.CAVITY>
3.8455

>  <SCORE.RESTR.norm>
0.07691

>  <SCORE.SYSTEM>
0

>  <SCORE.SYSTEM.CONST>
0

>  <SCORE.SYSTEM.DIHEDRAL>
0

>  <SCORE.SYSTEM.norm>
0

>  <SCORE.heavy>
50

>  <SCORE.norm>
0.69922

$$$$
