FB1.pdb
  RxDock  10062022243D
librxdock.so/0.1.0
 59 58  0  0  0  0  0  0  0  0999 V2000
  -13.5337    0.3189   -8.0054 C   0  0  0  0  0  0
  -13.2882    0.0917   -6.5156 C   0  0  0  0  0  0
  -11.8632    0.4978   -6.1049 C   0  0  0  0  0  0
  -10.8171   -0.6260   -6.3110 C   0  0  0  0  0  0
  -10.8511   -1.7669   -5.2350 C   0  0  0  0  0  0
  -12.1929   -2.5229   -5.3712 C   0  0  0  0  0  0
   -9.6235   -2.7674   -5.3340 C   0  0  0  0  0  0
   -9.0759   -3.1013   -6.8020 C   0  0  0  0  0  0
   -7.9378   -4.1605   -7.1351 C   0  0  0  0  0  0
   -6.3952   -3.5847   -7.0340 C   0  0  0  0  0  0
   -6.2407   -2.8414   -5.7083 C   0  0  0  0  0  0
   -5.2305   -4.6649   -7.1805 C   0  0  0  0  0  0
   -4.7540   -5.3004   -8.5904 C   0  0  0  0  0  0
   -5.7069   -6.1612   -9.4887 C   0  0  0  0  0  0
   -7.1286   -5.5523   -9.8853 C   0  0  0  0  0  0
   -7.3320   -4.3532  -10.8930 C   0  0  0  0  0  0
   -7.0646   -4.5719  -12.4056 C   0  0  0  0  0  0
   -7.9546   -5.6546  -13.1301 C   0  0  0  0  0  0
   -8.1397   -6.9863  -12.3921 C   0  0  0  0  0  0
   -7.4223   -8.2465  -12.9537 C   0  0  0  0  0  0
   -8.1551   -9.1987  -13.9444 C   0  0  0  0  0  0
   -7.2713  -10.0345  -14.8598 C   0  0  0  0  0  0
   -9.1300  -10.0476  -13.2335 N   0  0  0  0  0  0
   -6.2933   -7.7247  -13.7000 O   0  0  0  0  0  0
   -9.2453   -5.0808  -13.3638 O   0  0  0  0  0  0
   -4.3929   -4.1701   -9.4019 O   0  0  0  0  0  0
  -10.2237   -3.5527   -7.5709 O   0  0  0  0  0  0
  -10.6322   -2.7577   -8.5938 C   0  0  0  0  0  0
  -11.5839   -2.0004   -8.5805 O   0  0  0  0  0  0
   -9.6479   -2.8913   -9.7228 C   0  0  0  0  0  0
  -10.3319   -2.9582  -11.0976 C   0  0  0  0  0  0
  -11.6231   -3.7863  -11.0730 C   0  0  0  0  0  0
  -11.3333   -5.2392  -10.7756 C   0  0  0  0  0  0
  -10.2029   -5.6858  -10.6126 O   0  0  0  0  0  0
  -12.4354   -6.0001  -10.7043 O   0  0  0  0  0  0
  -10.6464   -1.5062  -11.4834 C   0  0  0  0  0  0
  -11.5406   -1.2005  -12.2575 O   0  0  0  0  0  0
   -9.8248   -0.5988  -10.9380 O   0  0  0  0  0  0
   -8.5318   -2.3682   -4.4127 O   0  0  0  0  0  0
   -8.7190   -2.5474   -3.0522 C   0  0  0  0  0  0
   -9.8094   -2.6689   -2.5094 O   0  0  0  0  0  0
   -7.3936   -2.5794   -2.2798 C   0  0  0  0  0  0
   -6.4200   -3.7401   -2.6528 C   0  0  0  0  0  0
   -4.9524   -3.6265   -2.2016 C   0  0  0  0  0  0
   -4.0558   -4.6331   -2.8629 C   0  0  0  0  0  0
   -3.5044   -5.5723   -2.3057 O   0  0  0  0  0  0
   -3.9211   -4.4135   -4.1797 O   0  0  0  0  0  0
   -6.9101   -5.1371   -2.2522 C   0  0  0  0  0  0
   -6.2600   -5.8899   -1.5542 O   0  0  0  0  0  0
   -8.1668   -5.4428   -2.6377 O   0  0  0  0  0  0
   -9.2698   -9.6802  -12.2933 H   0  0  0  0  0  0
   -8.7180  -10.9733  -13.0960 H   0  0  0  0  0  0
   -6.6953   -7.2742  -14.4725 H   0  0  0  0  0  0
   -9.6867   -4.9640  -12.5024 H   0  0  0  0  0  0
   -3.5345   -4.3595   -9.8165 H   0  0  0  0  0  0
  -13.2805   -5.5184  -10.7896 H   0  0  0  0  0  0
   -9.8224    0.2790  -11.3944 H   0  0  0  0  0  0
   -3.3337   -5.1191   -4.5239 H   0  0  0  0  0  0
   -8.4471   -6.3680   -2.4595 H   0  0  0  0  0  0
  1  2  1  0  0  0
  2  3  1  0  0  0
  3  4  1  0  0  0
  4  5  1  0  0  0
  5  6  1  0  0  0
  5  7  1  0  0  0
  7  8  1  0  0  0
  7 39  1  0  0  0
  8  9  1  0  0  0
  8 27  1  0  0  0
  9 10  1  0  0  0
 10 11  1  0  0  0
 10 12  1  0  0  0
 12 13  1  0  0  0
 13 14  1  0  0  0
 13 26  1  0  0  0
 14 15  1  0  0  0
 15 16  1  0  0  0
 16 17  1  0  0  0
 17 18  1  0  0  0
 18 19  1  0  0  0
 18 25  1  0  0  0
 19 20  1  0  0  0
 20 21  1  0  0  0
 20 24  1  0  0  0
 21 22  1  0  0  0
 21 23  1  0  0  0
 23 51  1  0  0  0
 23 52  1  0  0  0
 24 53  1  0  0  0
 25 54  1  0  0  0
 26 55  1  0  0  0
 27 28  1  0  0  0
 28 29  2  0  0  0
 28 30  1  0  0  0
 30 31  1  0  0  0
 31 32  1  0  0  0
 31 36  1  0  0  0
 32 33  1  0  0  0
 33 34  2  0  0  0
 33 35  1  0  0  0
 35 56  1  0  0  0
 36 37  2  0  0  0
 36 38  1  0  0  0
 38 57  1  0  0  0
 39 40  1  0  0  0
 40 41  2  0  0  0
 40 42  1  0  0  0
 42 43  1  0  0  0
 43 44  1  0  0  0
 43 48  1  0  0  0
 44 45  1  0  0  0
 45 46  2  0  0  0
 45 47  1  0  0  0
 47 58  1  0  0  0
 48 49  2  0  0  0
 48 50  1  0  0  0
 50 59  1  0  0  0
M  END
>  <AUTHOR>
    GENERATED BY OPEN BABEL 2.4.1

>  <CHROM.1>
-85.90174424,-76.28885743,65.86114914,-35.53836674,-174.87298072,71.80969902
-85.87817794,113.29886697,48.58044083,77.38906616,-62.74567934,52.74938257
133.16996039,70.75551393,70.31617417,61.13160160,-45.14154586,-108.59076893
-68.66204599,-93.07067214,155.84995764,-68.65806628,13.16488166,-102.06350740
138.93733700,-39.02342412,-65.44305857,-155.26131941,-1.75616093,-4.05617801
160.98264830,-20.48042744,-62.23010858,164.26519131,-167.42789563,-124.41143054
-111.87604903,-179.31838122,174.15657958,-8.51363938,-4.12468564,-8.05587149
1.40211071,-0.64981484,1.16163721

>  <COMPND>
    UNNAMED

>  <MASTER>
        0    0    0    0    0    0    0    0  109    0  109    0

>  <Name>
FB1.pdb

>  <RI>
0

>  <Rbt.Current_Directory>
/home/fc/tossine/FB1_39/p3/0_clust04

>  <Rbt.Executable>
rbdock/0.1.0

>  <Rbt.Library>
librxdock.so/0.1.0

>  <Rbt.Parameter_File>
/cluster/rxdock/data/scripts/dock.prm

>  <Rbt.Receptor>
rx_3.prm

>  <SCORE>
37.8399

>  <SCORE.INTER>
4.96414

>  <SCORE.INTER.CONST>
1

>  <SCORE.INTER.POLAR>
-3.45771

>  <SCORE.INTER.REPUL>
1.10825

>  <SCORE.INTER.ROT>
32

>  <SCORE.INTER.VDW>
-26.2209

>  <SCORE.INTER.norm>
0.0992828

>  <SCORE.INTRA>
25.9113

>  <SCORE.INTRA.DIHEDRAL>
31.9621

>  <SCORE.INTRA.DIHEDRAL.0>
47.3121

>  <SCORE.INTRA.POLAR>
1.47808

>  <SCORE.INTRA.POLAR.0>
-1.47808

>  <SCORE.INTRA.REPUL>
0

>  <SCORE.INTRA.REPUL.0>
0

>  <SCORE.INTRA.VDW>
4.9048

>  <SCORE.INTRA.VDW.0>
-2.78316

>  <SCORE.INTRA.norm>
0.518226

>  <SCORE.RESTR>
6.96442

>  <SCORE.RESTR.CAVITY>
6.96442

>  <SCORE.RESTR.norm>
0.139288

>  <SCORE.SYSTEM>
0

>  <SCORE.SYSTEM.CONST>
0

>  <SCORE.SYSTEM.DIHEDRAL>
0

>  <SCORE.SYSTEM.norm>
0

>  <SCORE.heavy>
50

>  <SCORE.norm>
0.756798

$$$$
