FB1.pdb
  RxDock  10062022533D
librxdock.so/0.1.0
 59 58  0  0  0  0  0  0  0  0999 V2000
    3.3413    0.5881   -7.3312 C   0  0  0  0  0  0
    3.4882    0.8786   -8.8229 C   0  0  0  0  0  0
    4.8297    0.3668   -9.3732 C   0  0  0  0  0  0
    6.0627    0.9863   -8.6693 C   0  0  0  0  0  0
    6.9399    1.9215   -9.5730 C   0  0  0  0  0  0
    5.9944    2.7975  -10.4269 C   0  0  0  0  0  0
    7.9595    2.8194   -8.7533 C   0  0  0  0  0  0
    7.6546    3.0246   -7.1941 C   0  0  0  0  0  0
    8.6742    2.7151   -6.0139 C   0  0  0  0  0  0
    7.9796    2.2274   -4.5993 C   0  0  0  0  0  0
    7.0927    1.0170   -4.8864 C   0  0  0  0  0  0
    8.9810    1.8856   -3.4055 C   0  0  0  0  0  0
    8.5547    1.8517   -1.8448 C   0  0  0  0  0  0
    9.5479    1.4207   -0.7117 C   0  0  0  0  0  0
   10.5041    2.5321   -0.0796 C   0  0  0  0  0  0
    9.9963    3.8941    0.5382 C   0  0  0  0  0  0
   11.0174    5.0200    0.8501 C   0  0  0  0  0  0
   10.5735    6.4925    0.4982 C   0  0  0  0  0  0
    9.7551    7.2289    1.5661 C   0  0  0  0  0  0
    8.2466    7.4874    1.2908 C   0  0  0  0  0  0
    7.5367    8.7393    1.8861 C   0  0  0  0  0  0
    6.1174    8.5343    2.3971 C   0  0  0  0  0  0
    8.3789    9.3826    2.9123 N   0  0  0  0  0  0
    8.1587    7.6544   -0.1474 O   0  0  0  0  0  0
   11.7531    7.2556    0.2228 O   0  0  0  0  0  0
    8.1929    3.2071   -1.5310 O   0  0  0  0  0  0
    7.3256    4.4302   -7.0259 O   0  0  0  0  0  0
    6.3544    4.9369   -7.8293 C   0  0  0  0  0  0
    5.3392    4.3654   -8.1788 O   0  0  0  0  0  0
    6.6916    6.3695   -8.1382 C   0  0  0  0  0  0
    7.4392    6.5256   -9.4721 C   0  0  0  0  0  0
    6.6207    7.2912  -10.5196 C   0  0  0  0  0  0
    5.2091    6.7587  -10.6041 C   0  0  0  0  0  0
    4.2331    7.3501  -10.1554 O   0  0  0  0  0  0
    5.1220    5.5713  -11.2216 O   0  0  0  0  0  0
    8.7268    7.2950   -9.1464 C   0  0  0  0  0  0
    9.8359    6.9144   -9.4889 O   0  0  0  0  0  0
    8.5401    8.3988   -8.4096 O   0  0  0  0  0  0
    9.3600    2.3940   -8.9929 O   0  0  0  0  0  0
    9.8081    1.2310   -8.3889 C   0  0  0  0  0  0
    9.1557    0.5603   -7.5997 O   0  0  0  0  0  0
   11.2338    0.8616   -8.8193 C   0  0  0  0  0  0
   11.3685    0.2143  -10.2325 C   0  0  0  0  0  0
   10.6081   -1.0968  -10.5031 C   0  0  0  0  0  0
    9.1226   -0.9030  -10.6050 C   0  0  0  0  0  0
    8.4995   -0.6927  -11.6365 O   0  0  0  0  0  0
    8.5093   -1.0034   -9.4158 O   0  0  0  0  0  0
   11.0661    1.1624  -11.3996 C   0  0  0  0  0  0
   11.8735    1.4138  -12.2723 O   0  0  0  0  0  0
    9.7991    1.6234  -11.4582 O   0  0  0  0  0  0
    9.3447    9.4021    2.5877 H   0  0  0  0  0  0
    8.3924    8.7877    3.7438 H   0  0  0  0  0  0
    7.2048    7.5525   -0.3497 H   0  0  0  0  0  0
   12.1093    7.5814    1.0699 H   0  0  0  0  0  0
    7.5728    3.1874   -0.7829 H   0  0  0  0  0  0
    4.4665    4.9531  -10.8453 H   0  0  0  0  0  0
    8.2979    9.2038   -8.9311 H   0  0  0  0  0  0
    9.1297   -1.4712   -8.8179 H   0  0  0  0  0  0
    9.3156    1.4174  -12.2889 H   0  0  0  0  0  0
  1  2  1  0  0  0
  2  3  1  0  0  0
  3  4  1  0  0  0
  4  5  1  0  0  0
  5  6  1  0  0  0
  5  7  1  0  0  0
  7  8  1  0  0  0
  7 39  1  0  0  0
  8  9  1  0  0  0
  8 27  1  0  0  0
  9 10  1  0  0  0
 10 11  1  0  0  0
 10 12  1  0  0  0
 12 13  1  0  0  0
 13 14  1  0  0  0
 13 26  1  0  0  0
 14 15  1  0  0  0
 15 16  1  0  0  0
 16 17  1  0  0  0
 17 18  1  0  0  0
 18 19  1  0  0  0
 18 25  1  0  0  0
 19 20  1  0  0  0
 20 21  1  0  0  0
 20 24  1  0  0  0
 21 22  1  0  0  0
 21 23  1  0  0  0
 23 51  1  0  0  0
 23 52  1  0  0  0
 24 53  1  0  0  0
 25 54  1  0  0  0
 26 55  1  0  0  0
 27 28  1  0  0  0
 28 29  2  0  0  0
 28 30  1  0  0  0
 30 31  1  0  0  0
 31 32  1  0  0  0
 31 36  1  0  0  0
 32 33  1  0  0  0
 33 34  2  0  0  0
 33 35  1  0  0  0
 35 56  1  0  0  0
 36 37  2  0  0  0
 36 38  1  0  0  0
 38 57  1  0  0  0
 39 40  1  0  0  0
 40 41  2  0  0  0
 40 42  1  0  0  0
 42 43  1  0  0  0
 43 44  1  0  0  0
 43 48  1  0  0  0
 44 45  1  0  0  0
 45 46  2  0  0  0
 45 47  1  0  0  0
 47 58  1  0  0  0
 48 49  2  0  0  0
 48 50  1  0  0  0
 50 59  1  0  0  0
M  END
>  <AUTHOR>
    GENERATED BY OPEN BABEL 2.4.1

>  <CHROM.1>
-58.99225700,-113.19039117,41.62296040,-19.28271306,125.62116739,-74.89299900
-148.70574765,52.66476882,55.03572323,159.68923726,175.94811130,86.54465082
154.77496365,54.26853496,-167.22810124,139.03317992,85.64645071,-109.04638347
-84.86264369,-149.64707650,-140.64829402,163.85370762,42.08318568,37.84835290
95.36045757,114.14514876,-47.66306256,128.65728638,106.13626991,142.56491794
-84.44289292,-4.60968379,-77.24636063,-59.08256824,71.26282729,121.25250040
91.95661306,-18.63112488,-121.53808241,8.17363917,3.70962606,-6.24507002
1.73995900,1.07671927,-2.11466616

>  <COMPND>
    UNNAMED

>  <MASTER>
        0    0    0    0    0    0    0    0  109    0  109    0

>  <Name>
FB1.pdb

>  <RI>
0

>  <Rbt.Current_Directory>
/home/fc/tossine/FB1_39/p3/0_clust04

>  <Rbt.Executable>
rbdock/0.1.0

>  <Rbt.Library>
librxdock.so/0.1.0

>  <Rbt.Parameter_File>
/cluster/rxdock/data/scripts/dock.prm

>  <Rbt.Receptor>
rx_4.prm

>  <SCORE>
237.817

>  <SCORE.INTER>
186.068

>  <SCORE.INTER.CONST>
1

>  <SCORE.INTER.POLAR>
-2.62394

>  <SCORE.INTER.REPUL>
1.29983

>  <SCORE.INTER.ROT>
32

>  <SCORE.INTER.VDW>
151.091

>  <SCORE.INTER.norm>
3.72137

>  <SCORE.INTRA>
46.7883

>  <SCORE.INTRA.DIHEDRAL>
78.5487

>  <SCORE.INTRA.DIHEDRAL.0>
47.3121

>  <SCORE.INTRA.POLAR>
1.47808

>  <SCORE.INTRA.POLAR.0>
-1.47808

>  <SCORE.INTRA.REPUL>
0.00147398

>  <SCORE.INTRA.REPUL.0>
0

>  <SCORE.INTRA.VDW>
2.48111

>  <SCORE.INTRA.VDW.0>
-2.78316

>  <SCORE.INTRA.norm>
0.935765

>  <SCORE.RESTR>
4.96013

>  <SCORE.RESTR.CAVITY>
4.96013

>  <SCORE.RESTR.norm>
0.0992025

>  <SCORE.SYSTEM>
0

>  <SCORE.SYSTEM.CONST>
0

>  <SCORE.SYSTEM.DIHEDRAL>
0

>  <SCORE.SYSTEM.norm>
0

>  <SCORE.heavy>
50

>  <SCORE.norm>
4.75634

$$$$
