FB1.pdb
  RxDock  10062022593D
librxdock.so/0.1.0
 59 58  0  0  0  0  0  0  0  0999 V2000
  -12.9505   -0.9939   -4.0126 C   0  0  0  0  0  0
  -11.6946   -1.5990   -4.6355 C   0  0  0  0  0  0
  -11.6657   -1.4057   -6.1606 C   0  0  0  0  0  0
  -10.2863   -1.7115   -6.7958 C   0  0  0  0  0  0
  -10.1508   -3.1412   -7.4267 C   0  0  0  0  0  0
  -10.9475   -3.1648   -8.7516 C   0  0  0  0  0  0
   -8.6469   -3.5901   -7.6608 C   0  0  0  0  0  0
   -7.5988   -3.2503   -6.4980 C   0  0  0  0  0  0
   -7.2355   -4.2109   -5.2841 C   0  0  0  0  0  0
   -8.2580   -4.1232   -3.9925 C   0  0  0  0  0  0
   -7.8828   -5.2235   -3.0012 C   0  0  0  0  0  0
   -8.3172   -2.7196   -3.2367 C   0  0  0  0  0  0
   -8.9972   -2.4986   -1.7850 C   0  0  0  0  0  0
   -9.3870   -1.0790   -1.2472 C   0  0  0  0  0  0
   -8.5902   -0.5002    0.0094 C   0  0  0  0  0  0
   -7.1650   -1.0041    0.4670 C   0  0  0  0  0  0
   -5.8948   -0.4169   -0.2034 C   0  0  0  0  0  0
   -4.8141   -1.4546   -0.6977 C   0  0  0  0  0  0
   -5.2295   -2.3672   -1.8583 C   0  0  0  0  0  0
   -5.8243   -3.7640   -1.5215 C   0  0  0  0  0  0
   -4.9381   -4.8647   -0.8671 C   0  0  0  0  0  0
   -3.9314   -4.3941    0.1733 C   0  0  0  0  0  0
   -5.7691   -5.9627   -0.3379 N   0  0  0  0  0  0
   -6.8672   -3.4948   -0.5500 O   0  0  0  0  0  0
   -3.6467   -0.7239   -1.0891 O   0  0  0  0  0  0
  -10.2329   -3.2312   -1.8402 O   0  0  0  0  0  0
   -6.3264   -3.0058   -7.1566 O   0  0  0  0  0  0
   -6.0531   -1.7241   -7.5143 C   0  0  0  0  0  0
   -6.7388   -0.7485   -7.2744 O   0  0  0  0  0  0
   -4.7020   -1.6918   -8.1738 C   0  0  0  0  0  0
   -3.5493   -1.8124   -7.1642 C   0  0  0  0  0  0
   -3.7579   -2.9592   -6.1669 C   0  0  0  0  0  0
   -4.2738   -2.4436   -4.8435 C   0  0  0  0  0  0
   -5.4236   -2.0549   -4.6687 O   0  0  0  0  0  0
   -3.3510   -2.4524   -3.8702 O   0  0  0  0  0  0
   -2.2843   -2.0635   -7.9964 C   0  0  0  0  0  0
   -1.3325   -1.2978   -8.0108 O   0  0  0  0  0  0
   -2.3281   -3.1719   -8.7485 O   0  0  0  0  0  0
   -8.5711   -5.0116   -8.0773 O   0  0  0  0  0  0
   -7.3215   -5.5937   -8.2102 C   0  0  0  0  0  0
   -6.4176   -5.4972   -7.3904 O   0  0  0  0  0  0
   -7.1834   -6.3883   -9.5155 C   0  0  0  0  0  0
   -5.9875   -5.9828  -10.4320 C   0  0  0  0  0  0
   -6.3052   -5.4288  -11.8330 C   0  0  0  0  0  0
   -7.5864   -4.6471  -11.8779 C   0  0  0  0  0  0
   -7.8488   -3.6673  -11.1940 O   0  0  0  0  0  0
   -8.4488   -5.1271  -12.7868 O   0  0  0  0  0  0
   -4.9832   -5.0228   -9.7824 C   0  0  0  0  0  0
   -5.0864   -3.8139   -9.8506 O   0  0  0  0  0  0
   -4.0256   -5.6067   -9.0320 O   0  0  0  0  0  0
   -5.1984   -6.8028   -0.2534 H   0  0  0  0  0  0
   -6.4817   -6.1971   -1.0326 H   0  0  0  0  0  0
   -7.1996   -4.3807   -0.2931 H   0  0  0  0  0  0
   -3.8848   -0.1498   -1.8403 H   0  0  0  0  0  0
  -10.6357   -3.0762   -2.7110 H   0  0  0  0  0  0
   -2.4960   -2.8581   -4.1105 H   0  0  0  0  0  0
   -1.5154   -3.3328   -9.2893 H   0  0  0  0  0  0
   -9.2704   -4.5988  -12.7016 H   0  0  0  0  0  0
   -3.3518   -4.9948   -8.6609 H   0  0  0  0  0  0
  1  2  1  0  0  0
  2  3  1  0  0  0
  3  4  1  0  0  0
  4  5  1  0  0  0
  5  6  1  0  0  0
  5  7  1  0  0  0
  7  8  1  0  0  0
  7 39  1  0  0  0
  8  9  1  0  0  0
  8 27  1  0  0  0
  9 10  1  0  0  0
 10 11  1  0  0  0
 10 12  1  0  0  0
 12 13  1  0  0  0
 13 14  1  0  0  0
 13 26  1  0  0  0
 14 15  1  0  0  0
 15 16  1  0  0  0
 16 17  1  0  0  0
 17 18  1  0  0  0
 18 19  1  0  0  0
 18 25  1  0  0  0
 19 20  1  0  0  0
 20 21  1  0  0  0
 20 24  1  0  0  0
 21 22  1  0  0  0
 21 23  1  0  0  0
 23 51  1  0  0  0
 23 52  1  0  0  0
 24 53  1  0  0  0
 25 54  1  0  0  0
 26 55  1  0  0  0
 27 28  1  0  0  0
 28 29  2  0  0  0
 28 30  1  0  0  0
 30 31  1  0  0  0
 31 32  1  0  0  0
 31 36  1  0  0  0
 32 33  1  0  0  0
 33 34  2  0  0  0
 33 35  1  0  0  0
 35 56  1  0  0  0
 36 37  2  0  0  0
 36 38  1  0  0  0
 38 57  1  0  0  0
 39 40  1  0  0  0
 40 41  2  0  0  0
 40 42  1  0  0  0
 42 43  1  0  0  0
 43 44  1  0  0  0
 43 48  1  0  0  0
 44 45  1  0  0  0
 45 46  2  0  0  0
 45 47  1  0  0  0
 47 58  1  0  0  0
 48 49  2  0  0  0
 48 50  1  0  0  0
 50 59  1  0  0  0
M  END
>  <AUTHOR>
    GENERATED BY OPEN BABEL 2.4.1

>  <CHROM.1>
167.06259987,98.14792218,74.02465664,41.78118019,91.10763751,-174.48544302
-84.57712911,90.91592723,172.74947401,-166.58341774,-162.92009095,-113.10513675
-41.58386985,20.66979184,84.29129338,-131.61258063,66.63217971,-93.69029140
-63.06333402,-67.31350640,37.88168611,-176.26760239,158.15403849,4.14999158
-75.60755407,47.98125806,-100.29945426,117.93228063,73.82953802,-5.13411749
179.68541778,46.64063410,124.63765026,-117.34036480,32.59590110,-90.03638978
57.29084168,176.17791514,176.48754907,-6.71444450,-3.16761434,-5.59724709
1.61367412,-0.03711377,1.36347689

>  <COMPND>
    UNNAMED

>  <MASTER>
        0    0    0    0    0    0    0    0  109    0  109    0

>  <Name>
FB1.pdb

>  <RI>
0

>  <Rbt.Current_Directory>
/home/fc/tossine/FB1_39/p3/0_clust04

>  <Rbt.Executable>
rbdock/0.1.0

>  <Rbt.Library>
librxdock.so/0.1.0

>  <Rbt.Parameter_File>
/cluster/rxdock/data/scripts/dock.prm

>  <Rbt.Receptor>
rx_4.prm

>  <SCORE>
39.3025

>  <SCORE.INTER>
13.795

>  <SCORE.INTER.CONST>
1

>  <SCORE.INTER.POLAR>
-0.954706

>  <SCORE.INTER.REPUL>
0.135549

>  <SCORE.INTER.ROT>
32

>  <SCORE.INTER.VDW>
-21.0368

>  <SCORE.INTER.norm>
0.2759

>  <SCORE.INTRA>
16.9146

>  <SCORE.INTRA.DIHEDRAL>
34.3693

>  <SCORE.INTRA.DIHEDRAL.0>
47.3121

>  <SCORE.INTRA.POLAR>
0.243836

>  <SCORE.INTRA.POLAR.0>
-1.47808

>  <SCORE.INTRA.REPUL>
0.00358203

>  <SCORE.INTRA.REPUL.0>
0

>  <SCORE.INTRA.VDW>
-1.11694

>  <SCORE.INTRA.VDW.0>
-2.78316

>  <SCORE.INTRA.norm>
0.338293

>  <SCORE.RESTR>
8.59282

>  <SCORE.RESTR.CAVITY>
8.59282

>  <SCORE.RESTR.norm>
0.171856

>  <SCORE.SYSTEM>
0

>  <SCORE.SYSTEM.CONST>
0

>  <SCORE.SYSTEM.DIHEDRAL>
0

>  <SCORE.SYSTEM.norm>
0

>  <SCORE.heavy>
50

>  <SCORE.norm>
0.786049

$$$$
