FB1.pdb
  RxDock  10062021523D
librxdock.so/0.1.0
 59 58  0  0  0  0  0  0  0  0999 V2000
  -13.3239   -1.2428  -10.4631 C   0  0  0  0  0  0
  -11.9802   -1.9655  -10.5209 C   0  0  0  0  0  0
  -11.2279   -1.6653  -11.8278 C   0  0  0  0  0  0
   -9.8084   -2.2833  -11.8793 C   0  0  0  0  0  0
   -9.7713   -3.8425  -12.0465 C   0  0  0  0  0  0
  -10.2863   -4.1914  -13.4620 C   0  0  0  0  0  0
   -8.3372   -4.4727  -11.7931 C   0  0  0  0  0  0
   -7.7892   -4.4476  -10.2880 C   0  0  0  0  0  0
   -6.2878   -4.1384   -9.8659 C   0  0  0  0  0  0
   -6.0898   -3.6259   -8.3105 C   0  0  0  0  0  0
   -4.6054   -3.7072   -7.9581 C   0  0  0  0  0  0
   -6.6399   -2.1664   -7.9757 C   0  0  0  0  0  0
   -6.5378   -1.4701   -6.5186 C   0  0  0  0  0  0
   -5.1653   -1.1002   -5.8585 C   0  0  0  0  0  0
   -4.5948   -2.0539   -4.7122 C   0  0  0  0  0  0
   -4.0675   -3.5222   -4.9585 C   0  0  0  0  0  0
   -4.7319   -4.7086   -4.2113 C   0  0  0  0  0  0
   -4.0965   -5.1144   -2.8254 C   0  0  0  0  0  0
   -5.0226   -5.0383   -1.6051 C   0  0  0  0  0  0
   -5.5005   -3.6374   -1.1284 C   0  0  0  0  0  0
   -4.4755   -2.5853   -0.6110 C   0  0  0  0  0  0
   -3.3450   -2.2164   -1.5614 C   0  0  0  0  0  0
   -5.1652   -1.3779   -0.1180 N   0  0  0  0  0  0
   -6.0978   -3.0331   -2.3039 O   0  0  0  0  0  0
   -3.6047   -6.4540   -2.9403 O   0  0  0  0  0  0
   -7.2367   -0.2214   -6.6559 O   0  0  0  0  0  0
   -8.5739   -3.4453   -9.5865 O   0  0  0  0  0  0
   -9.1582   -3.8244   -8.4202 C   0  0  0  0  0  0
   -8.9013   -4.8256   -7.7790 O   0  0  0  0  0  0
  -10.1130   -2.7440   -7.9930 C   0  0  0  0  0  0
  -10.4077   -2.7792   -6.4848 C   0  0  0  0  0  0
   -9.3020   -2.1162   -5.6534 C   0  0  0  0  0  0
   -8.6128   -3.1226   -4.7615 C   0  0  0  0  0  0
   -8.6939   -3.1123   -3.5380 O   0  0  0  0  0  0
   -7.9003   -4.0360   -5.4375 O   0  0  0  0  0  0
  -11.7310   -2.0248   -6.2959 C   0  0  0  0  0  0
  -12.0147   -1.0105   -6.9148 O   0  0  0  0  0  0
  -12.5339   -2.5433   -5.3565 O   0  0  0  0  0  0
   -8.2306   -5.8220  -12.3994 O   0  0  0  0  0  0
   -6.9792   -6.4092  -12.4848 C   0  0  0  0  0  0
   -5.9314   -5.7958  -12.6407 O   0  0  0  0  0  0
   -7.0415   -7.9373  -12.3607 C   0  0  0  0  0  0
   -7.7065   -8.6873  -13.5565 C   0  0  0  0  0  0
   -9.1232   -8.2592  -13.9810 C   0  0  0  0  0  0
  -10.1657   -8.5742  -12.9474 C   0  0  0  0  0  0
  -10.5518   -7.8152  -12.0691 O   0  0  0  0  0  0
  -10.6722   -9.8086  -13.0889 O   0  0  0  0  0  0
   -6.8508   -8.7455  -14.8279 C   0  0  0  0  0  0
   -6.2891   -7.7725  -15.2908 O   0  0  0  0  0  0
   -6.6700   -9.9773  -15.3487 O   0  0  0  0  0  0
   -5.4484   -1.5266    0.8496 H   0  0  0  0  0  0
   -6.0405   -1.2678   -0.6348 H   0  0  0  0  0  0
   -6.8962   -3.5741   -2.4808 H   0  0  0  0  0  0
   -3.0621   -6.6474   -2.1537 H   0  0  0  0  0  0
   -7.2362    0.2203   -5.7902 H   0  0  0  0  0  0
   -7.6364   -4.8227   -4.9229 H   0  0  0  0  0  0
  -13.3858   -2.0562   -5.2309 H   0  0  0  0  0  0
  -11.2865   -9.9484  -12.3377 H   0  0  0  0  0  0
   -5.8719  -10.0814  -15.9130 H   0  0  0  0  0  0
  1  2  1  0  0  0
  2  3  1  0  0  0
  3  4  1  0  0  0
  4  5  1  0  0  0
  5  6  1  0  0  0
  5  7  1  0  0  0
  7  8  1  0  0  0
  7 39  1  0  0  0
  8  9  1  0  0  0
  8 27  1  0  0  0
  9 10  1  0  0  0
 10 11  1  0  0  0
 10 12  1  0  0  0
 12 13  1  0  0  0
 13 14  1  0  0  0
 13 26  1  0  0  0
 14 15  1  0  0  0
 15 16  1  0  0  0
 16 17  1  0  0  0
 17 18  1  0  0  0
 18 19  1  0  0  0
 18 25  1  0  0  0
 19 20  1  0  0  0
 20 21  1  0  0  0
 20 24  1  0  0  0
 21 22  1  0  0  0
 21 23  1  0  0  0
 23 51  1  0  0  0
 23 52  1  0  0  0
 24 53  1  0  0  0
 25 54  1  0  0  0
 26 55  1  0  0  0
 27 28  1  0  0  0
 28 29  2  0  0  0
 28 30  1  0  0  0
 30 31  1  0  0  0
 31 32  1  0  0  0
 31 36  1  0  0  0
 32 33  1  0  0  0
 33 34  2  0  0  0
 33 35  1  0  0  0
 35 56  1  0  0  0
 36 37  2  0  0  0
 36 38  1  0  0  0
 38 57  1  0  0  0
 39 40  1  0  0  0
 40 41  2  0  0  0
 40 42  1  0  0  0
 42 43  1  0  0  0
 43 44  1  0  0  0
 43 48  1  0  0  0
 44 45  1  0  0  0
 45 46  2  0  0  0
 45 47  1  0  0  0
 47 58  1  0  0  0
 48 49  2  0  0  0
 48 50  1  0  0  0
 50 59  1  0  0  0
M  END
>  <AUTHOR>
    GENERATED BY OPEN BABEL 2.4.1

>  <CHROM.1>
175.21805645,71.77384395,68.37565719,69.34196394,-139.92591634,168.36769623
158.21832452,128.12821328,166.12251621,-179.55806562,64.73163510,-102.25501516
177.59788687,69.10038185,-121.15998726,-91.19152690,120.39264738,-67.95978027
169.16481382,-63.31843460,56.34218475,66.99822621,84.61448090,14.40560303
-157.58600600,80.51934122,-115.33002673,-39.49917253,-112.48992024,-164.92322793
179.77049222,-32.07174931,68.94750882,-54.14708559,-67.24291267,-47.49040528
92.84605699,175.75505886,-156.62140422,-7.80516079,-4.23926898,-8.20254420
1.88103395,0.57107745,-2.11315746

>  <COMPND>
    UNNAMED

>  <MASTER>
        0    0    0    0    0    0    0    0  109    0  109    0

>  <Name>
FB1.pdb

>  <RI>
0

>  <Rbt.Current_Directory>
/home/fc/tossine/FB1_39/p3/0_clust04

>  <Rbt.Executable>
rbdock/0.1.0

>  <Rbt.Library>
librxdock.so/0.1.0

>  <Rbt.Parameter_File>
/cluster/rxdock/data/scripts/dock.prm

>  <Rbt.Receptor>
rx_2.prm

>  <SCORE>
14.0729

>  <SCORE.INTER>
4.71777

>  <SCORE.INTER.CONST>
1

>  <SCORE.INTER.POLAR>
-1.5859

>  <SCORE.INTER.REPUL>
0.919301

>  <SCORE.INTER.ROT>
32

>  <SCORE.INTER.VDW>
-31.8867

>  <SCORE.INTER.norm>
0.0943554

>  <SCORE.INTRA>
8.6427

>  <SCORE.INTRA.DIHEDRAL>
22.2693

>  <SCORE.INTRA.DIHEDRAL.0>
47.3121

>  <SCORE.INTRA.POLAR>
1.07902

>  <SCORE.INTRA.POLAR.0>
-1.47808

>  <SCORE.INTRA.REPUL>
0

>  <SCORE.INTRA.REPUL.0>
0

>  <SCORE.INTRA.VDW>
-6.1606

>  <SCORE.INTRA.VDW.0>
-2.78316

>  <SCORE.INTRA.norm>
0.172854

>  <SCORE.RESTR>
0.712442

>  <SCORE.RESTR.CAVITY>
0.712442

>  <SCORE.RESTR.norm>
0.0142488

>  <SCORE.SYSTEM>
0

>  <SCORE.SYSTEM.CONST>
0

>  <SCORE.SYSTEM.DIHEDRAL>
0

>  <SCORE.SYSTEM.norm>
0

>  <SCORE.heavy>
50

>  <SCORE.norm>
0.281458

$$$$
