FB1.pdb
  RxDock  10062021513D
librxdock.so/0.1.0
 59 58  0  0  0  0  0  0  0  0999 V2000
   -0.1658   -1.2965   -7.8459 C   0  0  0  0  0  0
   -0.7831   -2.5328   -8.4953 C   0  0  0  0  0  0
   -2.1301   -2.9014   -7.8519 C   0  0  0  0  0  0
   -3.2255   -1.8246   -8.0526 C   0  0  0  0  0  0
   -4.2737   -1.7226   -6.8901 C   0  0  0  0  0  0
   -5.2499   -0.5688   -7.2164 C   0  0  0  0  0  0
   -5.0611   -3.0749   -6.6270 C   0  0  0  0  0  0
   -6.2060   -3.4642   -7.6776 C   0  0  0  0  0  0
   -6.2590   -4.8152   -8.5143 C   0  0  0  0  0  0
   -5.3067   -4.8417   -9.8611 C   0  0  0  0  0  0
   -3.8545   -5.0282   -9.4246 C   0  0  0  0  0  0
   -5.6782   -5.9332  -10.9635 C   0  0  0  0  0  0
   -7.0856   -5.9752  -11.7610 C   0  0  0  0  0  0
   -8.4656   -6.0752  -11.0250 C   0  0  0  0  0  0
   -9.7960   -6.0819  -11.9077 C   0  0  0  0  0  0
  -10.8956   -7.2142  -11.8493 C   0  0  0  0  0  0
  -10.4766   -8.6970  -12.0312 C   0  0  0  0  0  0
   -9.8057   -9.0768  -13.4078 C   0  0  0  0  0  0
   -8.5015   -8.3468  -13.7523 C   0  0  0  0  0  0
   -8.0175   -8.3598  -15.2301 C   0  0  0  0  0  0
   -6.8792   -7.4057  -15.6984 C   0  0  0  0  0  0
   -7.0012   -6.8467  -17.1091 C   0  0  0  0  0  0
   -6.6645   -6.3235  -14.7191 N   0  0  0  0  0  0
   -7.4941   -9.6971  -15.4337 O   0  0  0  0  0  0
   -9.5503  -10.4855  -13.4009 O   0  0  0  0  0  0
   -7.1364   -4.7352  -12.4866 O   0  0  0  0  0  0
   -7.4576   -3.4491   -6.9389 O   0  0  0  0  0  0
   -8.5577   -3.0016   -7.5983 C   0  0  0  0  0  0
   -8.6079   -2.6592   -8.7643 O   0  0  0  0  0  0
   -9.7385   -3.0943   -6.6717 C   0  0  0  0  0  0
   -9.6029   -2.1734   -5.4486 C   0  0  0  0  0  0
  -10.8409   -2.2109   -4.5433 C   0  0  0  0  0  0
  -12.1123   -2.2374   -5.3595 C   0  0  0  0  0  0
  -13.0963   -2.9053   -5.0606 O   0  0  0  0  0  0
  -12.0649   -1.4554   -6.4481 O   0  0  0  0  0  0
   -8.3734   -2.6739   -4.6780 C   0  0  0  0  0  0
   -8.4099   -3.6195   -3.9054 O   0  0  0  0  0  0
   -7.2611   -1.9554   -4.8844 O   0  0  0  0  0  0
   -4.1262   -4.2003   -6.3836 O   0  0  0  0  0  0
   -4.5781   -5.2862   -5.6525 C   0  0  0  0  0  0
   -4.1036   -6.4130   -5.7139 O   0  0  0  0  0  0
   -5.7571   -4.9254   -4.7393 C   0  0  0  0  0  0
   -5.5430   -5.1966   -3.2177 C   0  0  0  0  0  0
   -4.3822   -4.4737   -2.5104 C   0  0  0  0  0  0
   -4.2358   -3.0417   -2.9375 C   0  0  0  0  0  0
   -3.1964   -2.5079   -3.2999 O   0  0  0  0  0  0
   -5.3994   -2.3744   -2.9033 O   0  0  0  0  0  0
   -6.7940   -4.9991   -2.3526 C   0  0  0  0  0  0
   -6.9366   -4.0521   -1.6046 O   0  0  0  0  0  0
   -7.7842   -5.8938   -2.5530 O   0  0  0  0  0  0
   -5.9788   -6.6282  -14.0295 H   0  0  0  0  0  0
   -7.5280   -6.1864  -14.1891 H   0  0  0  0  0  0
   -6.7230   -9.5726  -16.0264 H   0  0  0  0  0  0
  -10.0858  -10.8883  -12.6927 H   0  0  0  0  0  0
   -6.6238   -4.8445  -13.3050 H   0  0  0  0  0  0
  -12.8413   -1.5140   -7.0373 H   0  0  0  0  0  0
   -6.5081   -2.1840   -4.2848 H   0  0  0  0  0  0
   -5.1916   -1.4363   -3.0984 H   0  0  0  0  0  0
   -7.6020   -6.5750   -3.2378 H   0  0  0  0  0  0
  1  2  1  0  0  0
  2  3  1  0  0  0
  3  4  1  0  0  0
  4  5  1  0  0  0
  5  6  1  0  0  0
  5  7  1  0  0  0
  7  8  1  0  0  0
  7 39  1  0  0  0
  8  9  1  0  0  0
  8 27  1  0  0  0
  9 10  1  0  0  0
 10 11  1  0  0  0
 10 12  1  0  0  0
 12 13  1  0  0  0
 13 14  1  0  0  0
 13 26  1  0  0  0
 14 15  1  0  0  0
 15 16  1  0  0  0
 16 17  1  0  0  0
 17 18  1  0  0  0
 18 19  1  0  0  0
 18 25  1  0  0  0
 19 20  1  0  0  0
 20 21  1  0  0  0
 20 24  1  0  0  0
 21 22  1  0  0  0
 21 23  1  0  0  0
 23 51  1  0  0  0
 23 52  1  0  0  0
 24 53  1  0  0  0
 25 54  1  0  0  0
 26 55  1  0  0  0
 27 28  1  0  0  0
 28 29  2  0  0  0
 28 30  1  0  0  0
 30 31  1  0  0  0
 31 32  1  0  0  0
 31 36  1  0  0  0
 32 33  1  0  0  0
 33 34  2  0  0  0
 33 35  1  0  0  0
 35 56  1  0  0  0
 36 37  2  0  0  0
 36 38  1  0  0  0
 38 57  1  0  0  0
 39 40  1  0  0  0
 40 41  2  0  0  0
 40 42  1  0  0  0
 42 43  1  0  0  0
 43 44  1  0  0  0
 43 48  1  0  0  0
 44 45  1  0  0  0
 45 46  2  0  0  0
 45 47  1  0  0  0
 47 58  1  0  0  0
 48 49  2  0  0  0
 48 50  1  0  0  0
 50 59  1  0  0  0
M  END
>  <AUTHOR>
    GENERATED BY OPEN BABEL 2.4.1

>  <CHROM.1>
64.29239085,-148.86505421,177.55304646,-75.47077686,122.58863015,155.42593596
-80.89054106,143.78043964,75.64147322,62.20158428,-57.40471638,178.86327709
82.47426613,124.21860272,-52.94707303,-61.10498285,60.33109712,-162.65464345
17.02842227,167.28072597,-144.31372411,-143.68389727,89.24535792,2.99580057
64.14752472,176.87398759,-40.70032324,-81.92397007,141.15157392,174.73877004
170.77360808,156.59191307,-121.97451156,59.85526976,40.98809467,-106.96463211
-130.08972918,173.86678189,-0.42203895,-6.91001590,-4.57204386,-8.07841430
-1.38375591,-0.13905385,-1.98729938

>  <COMPND>
    UNNAMED

>  <MASTER>
        0    0    0    0    0    0    0    0  109    0  109    0

>  <Name>
FB1.pdb

>  <RI>
0

>  <Rbt.Current_Directory>
/home/fc/tossine/FB1_39/p3/0_clust04

>  <Rbt.Executable>
rbdock/0.1.0

>  <Rbt.Library>
librxdock.so/0.1.0

>  <Rbt.Parameter_File>
/cluster/rxdock/data/scripts/dock.prm

>  <Rbt.Receptor>
rx_2.prm

>  <SCORE>
13.9128

>  <SCORE.INTER>
-0.230695

>  <SCORE.INTER.CONST>
1

>  <SCORE.INTER.POLAR>
-3.64733

>  <SCORE.INTER.REPUL>
0.110015

>  <SCORE.INTER.ROT>
32

>  <SCORE.INTER.VDW>
-25.7798

>  <SCORE.INTER.norm>
-0.00461389

>  <SCORE.INTRA>
10.539

>  <SCORE.INTRA.DIHEDRAL>
16.1062

>  <SCORE.INTRA.DIHEDRAL.0>
47.3121

>  <SCORE.INTRA.POLAR>
-0.0656897

>  <SCORE.INTRA.POLAR.0>
-1.47808

>  <SCORE.INTRA.REPUL>
0.00276928

>  <SCORE.INTRA.REPUL.0>
0

>  <SCORE.INTRA.VDW>
2.69539

>  <SCORE.INTRA.VDW.0>
-2.78316

>  <SCORE.INTRA.norm>
0.210779

>  <SCORE.RESTR>
3.60453

>  <SCORE.RESTR.CAVITY>
3.60453

>  <SCORE.RESTR.norm>
0.0720906

>  <SCORE.SYSTEM>
0

>  <SCORE.SYSTEM.CONST>
0

>  <SCORE.SYSTEM.DIHEDRAL>
0

>  <SCORE.SYSTEM.norm>
0

>  <SCORE.heavy>
50

>  <SCORE.norm>
0.278256

$$$$
