FB1.pdb
  RxDock  10062021403D
librxdock.so/0.1.0
 59 58  0  0  0  0  0  0  0  0999 V2000
   -7.5430   -6.1252  -15.3909 C   0  0  0  0  0  0
   -7.7566   -7.0402  -14.1874 C   0  0  0  0  0  0
   -9.1478   -6.8439  -13.5627 C   0  0  0  0  0  0
   -9.3245   -5.4710  -12.8673 C   0  0  0  0  0  0
   -8.7374   -5.3844  -11.4154 C   0  0  0  0  0  0
   -7.1976   -5.4903  -11.5072 C   0  0  0  0  0  0
   -9.1704   -4.0728  -10.6344 C   0  0  0  0  0  0
   -8.8307   -4.0141   -9.0700 C   0  0  0  0  0  0
   -7.3931   -3.7231   -8.4561 C   0  0  0  0  0  0
   -7.2598   -2.3010   -7.6307 C   0  0  0  0  0  0
   -7.6049   -2.5570   -6.1645 C   0  0  0  0  0  0
   -5.8496   -1.5616   -7.7270 C   0  0  0  0  0  0
   -4.4225   -2.3244   -7.7205 C   0  0  0  0  0  0
   -4.0390   -3.3983   -8.7956 C   0  0  0  0  0  0
   -3.0187   -4.5543   -8.3810 C   0  0  0  0  0  0
   -3.4058   -5.8078   -7.5015 C   0  0  0  0  0  0
   -4.7829   -5.8451   -6.7877 C   0  0  0  0  0  0
   -4.8352   -5.2579   -5.3242 C   0  0  0  0  0  0
   -4.3033   -3.8304   -5.1456 C   0  0  0  0  0  0
   -4.8501   -2.9825   -3.9622 C   0  0  0  0  0  0
   -4.6792   -3.4709   -2.4933 C   0  0  0  0  0  0
   -5.4776   -2.7242   -1.4339 C   0  0  0  0  0  0
   -4.9025   -4.9257   -2.3939 N   0  0  0  0  0  0
   -4.1123   -1.7356   -4.0316 O   0  0  0  0  0  0
   -6.1963   -5.2947   -4.8819 O   0  0  0  0  0  0
   -3.4449   -1.2807   -7.8673 O   0  0  0  0  0  0
   -9.6786   -2.9757   -8.5087 O   0  0  0  0  0  0
  -10.8165   -3.3783   -7.8856 C   0  0  0  0  0  0
  -11.3581   -4.4607   -8.0056 O   0  0  0  0  0  0
  -11.2480   -2.2950   -6.9359 C   0  0  0  0  0  0
  -10.9000   -2.6185   -5.4741 C   0  0  0  0  0  0
  -10.2592   -1.4307   -4.7448 C   0  0  0  0  0  0
   -9.7870   -1.8282   -3.3656 C   0  0  0  0  0  0
   -9.8693   -1.0981   -2.3838 O   0  0  0  0  0  0
   -9.2673   -3.0636   -3.3142 O   0  0  0  0  0  0
  -12.2255   -2.9965   -4.7987 C   0  0  0  0  0  0
  -13.3174   -2.7494   -5.2876 O   0  0  0  0  0  0
  -12.0888   -3.5788   -3.5994 O   0  0  0  0  0  0
   -8.7187   -2.8523  -11.3458 O   0  0  0  0  0  0
   -9.4462   -1.6855  -11.1802 C   0  0  0  0  0  0
   -8.9554   -0.5747  -11.0264 O   0  0  0  0  0  0
  -10.9603   -1.9323  -11.2106 C   0  0  0  0  0  0
  -11.8552   -0.6907  -10.9072 C   0  0  0  0  0  0
  -12.2405    0.2276  -12.0814 C   0  0  0  0  0  0
  -12.6307   -0.5320  -13.3165 C   0  0  0  0  0  0
  -13.7416   -0.5388  -13.8288 O   0  0  0  0  0  0
  -11.6046   -1.2179  -13.8427 O   0  0  0  0  0  0
  -13.1437   -1.0062  -10.1374 C   0  0  0  0  0  0
  -13.4210   -0.4880   -9.0738 O   0  0  0  0  0  0
  -14.0113   -1.8234  -10.7703 O   0  0  0  0  0  0
   -4.0605   -5.4143   -2.6953 H   0  0  0  0  0  0
   -5.6193   -5.1933   -3.0721 H   0  0  0  0  0  0
   -4.5186   -1.1699   -3.3415 H   0  0  0  0  0  0
   -6.7727   -5.2232   -5.6650 H   0  0  0  0  0  0
   -3.6891   -0.7467   -8.6416 H   0  0  0  0  0  0
   -8.8950   -3.3233   -2.4497 H   0  0  0  0  0  0
  -11.1514   -3.7066   -3.3101 H   0  0  0  0  0  0
  -11.9313   -1.6173  -14.6764 H   0  0  0  0  0  0
  -14.8248   -2.0444  -10.2646 H   0  0  0  0  0  0
  1  2  1  0  0  0
  2  3  1  0  0  0
  3  4  1  0  0  0
  4  5  1  0  0  0
  5  6  1  0  0  0
  5  7  1  0  0  0
  7  8  1  0  0  0
  7 39  1  0  0  0
  8  9  1  0  0  0
  8 27  1  0  0  0
  9 10  1  0  0  0
 10 11  1  0  0  0
 10 12  1  0  0  0
 12 13  1  0  0  0
 13 14  1  0  0  0
 13 26  1  0  0  0
 14 15  1  0  0  0
 15 16  1  0  0  0
 16 17  1  0  0  0
 17 18  1  0  0  0
 18 19  1  0  0  0
 18 25  1  0  0  0
 19 20  1  0  0  0
 20 21  1  0  0  0
 20 24  1  0  0  0
 21 22  1  0  0  0
 21 23  1  0  0  0
 23 51  1  0  0  0
 23 52  1  0  0  0
 24 53  1  0  0  0
 25 54  1  0  0  0
 26 55  1  0  0  0
 27 28  1  0  0  0
 28 29  2  0  0  0
 28 30  1  0  0  0
 30 31  1  0  0  0
 31 32  1  0  0  0
 31 36  1  0  0  0
 32 33  1  0  0  0
 33 34  2  0  0  0
 33 35  1  0  0  0
 35 56  1  0  0  0
 36 37  2  0  0  0
 36 38  1  0  0  0
 38 57  1  0  0  0
 39 40  1  0  0  0
 40 41  2  0  0  0
 40 42  1  0  0  0
 42 43  1  0  0  0
 43 44  1  0  0  0
 43 48  1  0  0  0
 44 45  1  0  0  0
 45 46  2  0  0  0
 45 47  1  0  0  0
 47 58  1  0  0  0
 48 49  2  0  0  0
 48 50  1  0  0  0
 50 59  1  0  0  0
M  END
>  <AUTHOR>
    GENERATED BY OPEN BABEL 2.4.1

>  <CHROM.1>
-68.73525547,-81.44589554,67.21903910,169.82872843,76.83046363,152.39263571
113.33010466,98.91015348,90.06501705,-38.65668088,58.94951800,-151.26203978
-52.18373342,76.88703719,-10.40269247,-90.65650937,53.70561105,154.15271524
-28.47476022,59.50234265,-168.32170067,174.63582340,79.90589292,-18.10621868
-102.35623213,133.85884200,-173.50725714,-15.68899189,-142.21529001,175.77409730
-1.11967611,138.03433700,174.87248115,87.27123479,42.72621256,122.88776260
114.94927492,-175.45790171,178.35673028,-8.60481114,-3.06205038,-8.13500104
-2.23461150,-0.37086346,1.41305941

>  <COMPND>
    UNNAMED

>  <MASTER>
        0    0    0    0    0    0    0    0  109    0  109    0

>  <Name>
FB1.pdb

>  <RI>
0

>  <Rbt.Current_Directory>
/home/fc/tossine/FB1_39/p3/0_clust04

>  <Rbt.Executable>
rbdock/0.1.0

>  <Rbt.Library>
librxdock.so/0.1.0

>  <Rbt.Parameter_File>
/cluster/rxdock/data/scripts/dock.prm

>  <Rbt.Receptor>
rx_2.prm

>  <SCORE>
30.7851

>  <SCORE.INTER>
14.7912

>  <SCORE.INTER.CONST>
1

>  <SCORE.INTER.POLAR>
-2.05041

>  <SCORE.INTER.REPUL>
0.704215

>  <SCORE.INTER.ROT>
32

>  <SCORE.INTER.VDW>
-19.1584

>  <SCORE.INTER.norm>
0.295825

>  <SCORE.INTRA>
12.2652

>  <SCORE.INTRA.DIHEDRAL>
26.2784

>  <SCORE.INTRA.DIHEDRAL.0>
47.3121

>  <SCORE.INTRA.POLAR>
0.0631615

>  <SCORE.INTRA.POLAR.0>
-1.47808

>  <SCORE.INTRA.REPUL>
0.0900853

>  <SCORE.INTRA.REPUL.0>
0

>  <SCORE.INTRA.VDW>
-1.53915

>  <SCORE.INTRA.VDW.0>
-2.78316

>  <SCORE.INTRA.norm>
0.245304

>  <SCORE.RESTR>
3.72863

>  <SCORE.RESTR.CAVITY>
3.72863

>  <SCORE.RESTR.norm>
0.0745727

>  <SCORE.SYSTEM>
0

>  <SCORE.SYSTEM.CONST>
0

>  <SCORE.SYSTEM.DIHEDRAL>
0

>  <SCORE.SYSTEM.norm>
0

>  <SCORE.heavy>
50

>  <SCORE.norm>
0.615702

$$$$
