FB1.pdb
  RxDock  10062022503D
librxdock.so/0.1.0
 59 58  0  0  0  0  0  0  0  0999 V2000
   -8.3621   -5.0513   -7.5779 C   0  0  0  0  0  0
   -7.1917   -5.3366   -6.6399 C   0  0  0  0  0  0
   -7.6696   -5.8666   -5.2779 C   0  0  0  0  0  0
   -7.5125   -4.8419   -4.1268 C   0  0  0  0  0  0
   -8.4395   -3.5810   -4.2324 C   0  0  0  0  0  0
   -8.5483   -2.9395   -2.8298 C   0  0  0  0  0  0
   -7.9464   -2.5205   -5.3048 C   0  0  0  0  0  0
   -6.5550   -2.8236   -6.0386 C   0  0  0  0  0  0
   -5.6730   -1.7476   -6.8083 C   0  0  0  0  0  0
   -4.5845   -2.3722   -7.8790 C   0  0  0  0  0  0
   -3.4983   -1.3278   -8.1313 C   0  0  0  0  0  0
   -3.9093   -3.7577   -7.4677 C   0  0  0  0  0  0
   -4.4536   -5.2074   -7.9374 C   0  0  0  0  0  0
   -4.9095   -5.4974   -9.4085 C   0  0  0  0  0  0
   -6.3208   -6.2080   -9.6379 C   0  0  0  0  0  0
   -7.0291   -6.3442  -11.0429 C   0  0  0  0  0  0
   -7.4246   -5.0651  -11.8271 C   0  0  0  0  0  0
   -8.0758   -3.8973  -10.9897 C   0  0  0  0  0  0
   -9.5412   -4.0903  -10.5800 C   0  0  0  0  0  0
  -10.2554   -2.9315   -9.8280 C   0  0  0  0  0  0
  -10.8611   -1.7320  -10.6152 C   0  0  0  0  0  0
  -12.0459   -1.0270   -9.9696 C   0  0  0  0  0  0
   -9.8116   -0.7649  -10.9887 N   0  0  0  0  0  0
  -11.3865   -3.5604   -9.1730 O   0  0  0  0  0  0
   -7.2929   -3.7133   -9.8052 O   0  0  0  0  0  0
   -3.3587   -6.1080   -7.6995 O   0  0  0  0  0  0
   -5.6656   -3.3554   -5.0195 O   0  0  0  0  0  0
   -5.3799   -2.5459   -3.9667 C   0  0  0  0  0  0
   -6.1367   -1.7487   -3.4460 O   0  0  0  0  0  0
   -3.9947   -2.8700   -3.4792 C   0  0  0  0  0  0
   -3.9060   -2.9233   -1.9456 C   0  0  0  0  0  0
   -4.1579   -1.5577   -1.2937 C   0  0  0  0  0  0
   -5.3886   -1.5906   -0.4176 C   0  0  0  0  0  0
   -6.4799   -1.1516   -0.7642 O   0  0  0  0  0  0
   -5.1755   -2.1503    0.7825 O   0  0  0  0  0  0
   -4.9776   -3.9259   -1.4957 C   0  0  0  0  0  0
   -6.1684   -3.7767   -1.7241 O   0  0  0  0  0  0
   -4.5047   -4.9591   -0.7852 O   0  0  0  0  0  0
   -9.0236   -2.1958   -6.2713 O   0  0  0  0  0  0
   -9.6304   -0.9536   -6.1890 C   0  0  0  0  0  0
   -9.1188    0.0396   -5.6889 O   0  0  0  0  0  0
  -11.0372   -0.9494   -6.8016 C   0  0  0  0  0  0
  -12.1669   -0.3618   -5.8999 C   0  0  0  0  0  0
  -13.0453   -1.3466   -5.1069 C   0  0  0  0  0  0
  -12.3558   -2.6499   -4.8228 C   0  0  0  0  0  0
  -12.5685   -3.7094   -5.3962 O   0  0  0  0  0  0
  -11.4324   -2.5417   -3.8554 O   0  0  0  0  0  0
  -11.7011    0.7209   -4.9185 C   0  0  0  0  0  0
  -12.0308    1.8865   -5.0160 O   0  0  0  0  0  0
  -10.9808    0.2783   -3.8666 O   0  0  0  0  0  0
   -9.4490   -1.0048  -11.9104 H   0  0  0  0  0  0
   -9.0182   -0.8827  -10.3547 H   0  0  0  0  0  0
  -11.8111   -4.0970   -9.8752 H   0  0  0  0  0  0
   -6.3664   -3.5694  -10.0723 H   0  0  0  0  0  0
   -3.6208   -6.9896   -8.0135 H   0  0  0  0  0  0
   -5.5955   -3.0216    0.9164 H   0  0  0  0  0  0
   -5.1518   -5.3470   -0.1452 H   0  0  0  0  0  0
  -11.9185   -2.5145   -3.0043 H   0  0  0  0  0  0
  -10.8316   -0.6929   -3.8389 H   0  0  0  0  0  0
  1  2  1  0  0  0
  2  3  1  0  0  0
  3  4  1  0  0  0
  4  5  1  0  0  0
  5  6  1  0  0  0
  5  7  1  0  0  0
  7  8  1  0  0  0
  7 39  1  0  0  0
  8  9  1  0  0  0
  8 27  1  0  0  0
  9 10  1  0  0  0
 10 11  1  0  0  0
 10 12  1  0  0  0
 12 13  1  0  0  0
 13 14  1  0  0  0
 13 26  1  0  0  0
 14 15  1  0  0  0
 15 16  1  0  0  0
 16 17  1  0  0  0
 17 18  1  0  0  0
 18 19  1  0  0  0
 18 25  1  0  0  0
 19 20  1  0  0  0
 20 21  1  0  0  0
 20 24  1  0  0  0
 21 22  1  0  0  0
 21 23  1  0  0  0
 23 51  1  0  0  0
 23 52  1  0  0  0
 24 53  1  0  0  0
 25 54  1  0  0  0
 26 55  1  0  0  0
 27 28  1  0  0  0
 28 29  2  0  0  0
 28 30  1  0  0  0
 30 31  1  0  0  0
 31 32  1  0  0  0
 31 36  1  0  0  0
 32 33  1  0  0  0
 33 34  2  0  0  0
 33 35  1  0  0  0
 35 56  1  0  0  0
 36 37  2  0  0  0
 36 38  1  0  0  0
 38 57  1  0  0  0
 39 40  1  0  0  0
 40 41  2  0  0  0
 40 42  1  0  0  0
 42 43  1  0  0  0
 43 44  1  0  0  0
 43 48  1  0  0  0
 44 45  1  0  0  0
 45 46  2  0  0  0
 45 47  1  0  0  0
 47 58  1  0  0  0
 48 49  2  0  0  0
 48 50  1  0  0  0
 50 59  1  0  0  0
M  END
>  <AUTHOR>
    GENERATED BY OPEN BABEL 2.4.1

>  <CHROM.1>
-107.98667626,67.28488359,160.00273171,-4.05831473,-161.43180874,107.84496710
-160.46754602,-61.20259830,-159.09559567,94.51032438,43.71195690,-130.58273500
-176.91571121,169.08735596,-61.22542980,-42.77527497,-76.04981595,-176.36015122
54.51343767,82.32427679,152.06772248,-48.60578892,91.34192750,34.92315187
-137.25421888,-65.56382215,117.20531975,-60.46600130,-100.76601316,-109.68041154
151.91109179,23.59294105,128.99259384,-98.08151065,25.48305097,111.95070096
-104.24330339,77.12124947,-0.10660536,-7.80604838,-2.85601181,-5.95777253
-2.15599468,-0.44069151,1.28018425

>  <COMPND>
    UNNAMED

>  <MASTER>
        0    0    0    0    0    0    0    0  109    0  109    0

>  <Name>
FB1.pdb

>  <RI>
0

>  <Rbt.Current_Directory>
/home/fc/tossine/FB1_39/p3/0_clust04

>  <Rbt.Executable>
rbdock/0.1.0

>  <Rbt.Library>
librxdock.so/0.1.0

>  <Rbt.Parameter_File>
/cluster/rxdock/data/scripts/dock.prm

>  <Rbt.Receptor>
rx_4.prm

>  <SCORE>
71.4026

>  <SCORE.INTER>
19.4245

>  <SCORE.INTER.CONST>
1

>  <SCORE.INTER.POLAR>
-0.625918

>  <SCORE.INTER.REPUL>
0.292752

>  <SCORE.INTER.ROT>
32

>  <SCORE.INTER.VDW>
-17.3112

>  <SCORE.INTER.norm>
0.388489

>  <SCORE.INTRA>
49.7849

>  <SCORE.INTRA.DIHEDRAL>
78.9443

>  <SCORE.INTRA.DIHEDRAL.0>
47.3121

>  <SCORE.INTRA.POLAR>
0.696712

>  <SCORE.INTRA.POLAR.0>
-1.47808

>  <SCORE.INTRA.REPUL>
0.0980416

>  <SCORE.INTRA.REPUL.0>
0

>  <SCORE.INTRA.VDW>
7.45372

>  <SCORE.INTRA.VDW.0>
-2.78316

>  <SCORE.INTRA.norm>
0.995698

>  <SCORE.RESTR>
2.1932

>  <SCORE.RESTR.CAVITY>
2.1932

>  <SCORE.RESTR.norm>
0.043864

>  <SCORE.SYSTEM>
0

>  <SCORE.SYSTEM.CONST>
0

>  <SCORE.SYSTEM.DIHEDRAL>
0

>  <SCORE.SYSTEM.norm>
0

>  <SCORE.heavy>
50

>  <SCORE.norm>
1.42805

$$$$
