FB1.pdb
  RxDock  10062022263D
librxdock.so/0.1.0
 59 58  0  0  0  0  0  0  0  0999 V2000
  -12.3734   -0.5274  -12.3121 C   0  0  0  0  0  0
  -11.5866    0.1060  -11.1670 C   0  0  0  0  0  0
  -10.0734   -0.1171  -11.3242 C   0  0  0  0  0  0
   -9.6470   -1.5973  -11.1597 C   0  0  0  0  0  0
  -10.3107   -2.3466   -9.9520 C   0  0  0  0  0  0
  -11.6885   -2.8791  -10.4089 C   0  0  0  0  0  0
   -9.4159   -3.5181   -9.3648 C   0  0  0  0  0  0
   -8.8628   -4.6013  -10.4074 C   0  0  0  0  0  0
   -7.4460   -5.3174  -10.3176 C   0  0  0  0  0  0
   -6.4464   -4.7450   -9.1368 C   0  0  0  0  0  0
   -6.9093   -5.3082   -7.7942 C   0  0  0  0  0  0
   -4.8900   -5.0360   -9.3310 C   0  0  0  0  0  0
   -3.8812   -5.4204   -8.1255 C   0  0  0  0  0  0
   -4.0255   -6.7441   -7.2990 C   0  0  0  0  0  0
   -3.0951   -6.9415   -6.0166 C   0  0  0  0  0  0
   -3.3860   -6.3044   -4.6010 C   0  0  0  0  0  0
   -4.3983   -5.1344   -4.4826 C   0  0  0  0  0  0
   -4.3552   -4.2968   -3.1463 C   0  0  0  0  0  0
   -4.8839   -2.8593   -3.2282 C   0  0  0  0  0  0
   -4.6553   -1.9191   -2.0108 C   0  0  0  0  0  0
   -5.6370   -1.9368   -0.8019 C   0  0  0  0  0  0
   -7.0150   -2.5313   -1.0568 C   0  0  0  0  0  0
   -5.0055   -2.5563    0.3787 N   0  0  0  0  0  0
   -3.3773   -2.3315   -1.4628 O   0  0  0  0  0  0
   -5.1113   -5.0038   -2.1572 O   0  0  0  0  0  0
   -2.5844   -5.5015   -8.7405 O   0  0  0  0  0  0
   -9.8198   -5.6952  -10.4030 O   0  0  0  0  0  0
  -10.0294   -6.3361  -11.5822 C   0  0  0  0  0  0
  -10.1879   -7.5327  -11.7323 O   0  0  0  0  0  0
  -10.1358   -5.3053  -12.6719 C   0  0  0  0  0  0
   -8.7646   -4.8948  -13.2320 C   0  0  0  0  0  0
   -7.9342   -6.0981  -13.6965 C   0  0  0  0  0  0
   -6.4675   -5.7459  -13.7875 C   0  0  0  0  0  0
   -5.8280   -5.2597  -12.8610 O   0  0  0  0  0  0
   -5.9259   -6.0180  -14.9839 O   0  0  0  0  0  0
   -9.0547   -3.9669  -14.4198 C   0  0  0  0  0  0
   -9.3665   -4.3785  -15.5270 O   0  0  0  0  0  0
   -8.8896   -2.6633  -14.1565 O   0  0  0  0  0  0
   -8.3388   -2.9850   -8.4956 O   0  0  0  0  0  0
   -8.6815   -2.4970   -7.2456 C   0  0  0  0  0  0
   -7.9411   -1.8360   -6.5291 O   0  0  0  0  0  0
  -10.1126   -2.8766   -6.8429 C   0  0  0  0  0  0
  -10.9173   -1.7759   -6.0843 C   0  0  0  0  0  0
  -10.1348   -0.7882   -5.1996 C   0  0  0  0  0  0
  -10.6250   -0.7564   -3.7807 C   0  0  0  0  0  0
   -9.9967   -1.1310   -2.8002 O   0  0  0  0  0  0
  -11.8596   -0.2415   -3.6757 O   0  0  0  0  0  0
  -11.8539   -0.9458   -6.9708 C   0  0  0  0  0  0
  -11.6420   -0.7468   -8.1507 O   0  0  0  0  0  0
  -12.9955   -0.5334   -6.3808 O   0  0  0  0  0  0
   -4.0502   -2.2125    0.4656 H   0  0  0  0  0  0
   -4.9098   -3.5601    0.2090 H   0  0  0  0  0  0
   -3.5257   -3.2506   -1.1553 H   0  0  0  0  0  0
   -4.7502   -5.9065   -2.0861 H   0  0  0  0  0  0
   -1.9161   -5.4956   -8.0350 H   0  0  0  0  0  0
   -6.5467   -6.3649  -15.6530 H   0  0  0  0  0  0
   -8.8719   -2.0823  -14.9571 H   0  0  0  0  0  0
  -12.1309   -0.3497   -2.7398 H   0  0  0  0  0  0
  -12.9949   -0.5639   -5.3983 H   0  0  0  0  0  0
  1  2  1  0  0  0
  2  3  1  0  0  0
  3  4  1  0  0  0
  4  5  1  0  0  0
  5  6  1  0  0  0
  5  7  1  0  0  0
  7  8  1  0  0  0
  7 39  1  0  0  0
  8  9  1  0  0  0
  8 27  1  0  0  0
  9 10  1  0  0  0
 10 11  1  0  0  0
 10 12  1  0  0  0
 12 13  1  0  0  0
 13 14  1  0  0  0
 13 26  1  0  0  0
 14 15  1  0  0  0
 15 16  1  0  0  0
 16 17  1  0  0  0
 17 18  1  0  0  0
 18 19  1  0  0  0
 18 25  1  0  0  0
 19 20  1  0  0  0
 20 21  1  0  0  0
 20 24  1  0  0  0
 21 22  1  0  0  0
 21 23  1  0  0  0
 23 51  1  0  0  0
 23 52  1  0  0  0
 24 53  1  0  0  0
 25 54  1  0  0  0
 26 55  1  0  0  0
 27 28  1  0  0  0
 28 29  2  0  0  0
 28 30  1  0  0  0
 30 31  1  0  0  0
 31 32  1  0  0  0
 31 36  1  0  0  0
 32 33  1  0  0  0
 33 34  2  0  0  0
 33 35  1  0  0  0
 35 56  1  0  0  0
 36 37  2  0  0  0
 36 38  1  0  0  0
 38 57  1  0  0  0
 39 40  1  0  0  0
 40 41  2  0  0  0
 40 42  1  0  0  0
 42 43  1  0  0  0
 43 44  1  0  0  0
 43 48  1  0  0  0
 44 45  1  0  0  0
 45 46  2  0  0  0
 45 47  1  0  0  0
 47 58  1  0  0  0
 48 49  2  0  0  0
 48 50  1  0  0  0
 50 59  1  0  0  0
M  END
>  <AUTHOR>
    GENERATED BY OPEN BABEL 2.4.1

>  <CHROM.1>
-67.75571323,-44.42059244,84.66325921,-51.85012524,144.71616655,73.17747720
-6.88767898,145.35964772,77.28970601,-141.47254771,64.52771049,-172.44981326
165.21416857,80.67076459,-16.60098166,-163.93763261,155.44540982,-170.28418890
55.18111354,-84.26602054,-19.63493848,-64.21007485,43.03003097,140.86464432
85.48728033,53.76566631,-160.45717423,-80.17561471,53.97784968,2.79296275
166.72012853,-167.29673705,-141.25852135,-30.40731369,-124.40955258,-28.27463119
113.43074525,174.02816662,17.67111901,-7.95901234,-3.52024616,-8.10244979
1.93355368,0.56491211,-1.88750949

>  <COMPND>
    UNNAMED

>  <MASTER>
        0    0    0    0    0    0    0    0  109    0  109    0

>  <Name>
FB1.pdb

>  <RI>
0

>  <Rbt.Current_Directory>
/home/fc/tossine/FB1_39/p3/0_clust04

>  <Rbt.Executable>
rbdock/0.1.0

>  <Rbt.Library>
librxdock.so/0.1.0

>  <Rbt.Parameter_File>
/cluster/rxdock/data/scripts/dock.prm

>  <Rbt.Receptor>
rx_3.prm

>  <SCORE>
61.9026

>  <SCORE.INTER>
31.2833

>  <SCORE.INTER.CONST>
1

>  <SCORE.INTER.POLAR>
-0.60559

>  <SCORE.INTER.REPUL>
1.17865

>  <SCORE.INTER.ROT>
32

>  <SCORE.INTER.VDW>
-9.95093

>  <SCORE.INTER.norm>
0.625666

>  <SCORE.INTRA>
26.7578

>  <SCORE.INTRA.DIHEDRAL>
30.7561

>  <SCORE.INTRA.DIHEDRAL.0>
47.3121

>  <SCORE.INTRA.POLAR>
0.574172

>  <SCORE.INTRA.POLAR.0>
-1.47808

>  <SCORE.INTRA.REPUL>
0

>  <SCORE.INTRA.REPUL.0>
0

>  <SCORE.INTRA.VDW>
9.42755

>  <SCORE.INTRA.VDW.0>
-2.78316

>  <SCORE.INTRA.norm>
0.535156

>  <SCORE.RESTR>
3.86149

>  <SCORE.RESTR.CAVITY>
3.86149

>  <SCORE.RESTR.norm>
0.0772299

>  <SCORE.SYSTEM>
0

>  <SCORE.SYSTEM.CONST>
0

>  <SCORE.SYSTEM.DIHEDRAL>
0

>  <SCORE.SYSTEM.norm>
0

>  <SCORE.heavy>
50

>  <SCORE.norm>
1.23805

$$$$
