FB1.pdb
  RxDock  10062021473D
librxdock.so/0.1.0
 59 58  0  0  0  0  0  0  0  0999 V2000
  -12.6593   -0.0347  -14.7906 C   0  0  0  0  0  0
  -12.0694   -0.8610  -13.6502 C   0  0  0  0  0  0
  -12.6669   -0.4632  -12.2905 C   0  0  0  0  0  0
  -12.6052   -1.5944  -11.2340 C   0  0  0  0  0  0
  -11.2269   -1.7390  -10.4994 C   0  0  0  0  0  0
  -11.4574   -1.5174   -8.9866 C   0  0  0  0  0  0
  -10.5097   -3.1291  -10.7664 C   0  0  0  0  0  0
   -9.6121   -3.2404  -12.0886 C   0  0  0  0  0  0
   -8.1634   -3.8919  -12.1589 C   0  0  0  0  0  0
   -8.0554   -5.4239  -11.5567 C   0  0  0  0  0  0
   -7.0085   -6.1897  -12.3640 C   0  0  0  0  0  0
   -7.7255   -5.5461  -10.0007 C   0  0  0  0  0  0
   -6.3289   -5.0792   -9.3296 C   0  0  0  0  0  0
   -5.0432   -5.9749   -9.3561 C   0  0  0  0  0  0
   -4.0142   -5.8589   -8.1409 C   0  0  0  0  0  0
   -4.2362   -6.5173   -6.7225 C   0  0  0  0  0  0
   -3.5731   -5.8813   -5.4721 C   0  0  0  0  0  0
   -4.2658   -4.5909   -4.8855 C   0  0  0  0  0  0
   -5.6385   -4.7942   -4.2322 C   0  0  0  0  0  0
   -5.8850   -4.1763   -2.8266 C   0  0  0  0  0  0
   -5.8911   -2.6312   -2.6314 C   0  0  0  0  0  0
   -5.5523   -2.1231   -1.2370 C   0  0  0  0  0  0
   -5.0555   -1.9693   -3.6513 N   0  0  0  0  0  0
   -7.2226   -4.6056   -2.4656 O   0  0  0  0  0  0
   -3.3817   -4.0167   -3.9168 O   0  0  0  0  0  0
   -5.9645   -3.8789  -10.0319 O   0  0  0  0  0  0
  -10.3953   -4.0003  -13.0486 O   0  0  0  0  0  0
  -10.3335   -3.6042  -14.3465 C   0  0  0  0  0  0
   -9.8722   -2.5566  -14.7577 O   0  0  0  0  0  0
  -10.8411   -4.7251  -15.2110 C   0  0  0  0  0  0
   -9.7219   -5.6790  -15.6582 C   0  0  0  0  0  0
   -8.3289   -5.0464  -15.5445 C   0  0  0  0  0  0
   -7.3996   -5.5794  -16.6102 C   0  0  0  0  0  0
   -7.0876   -4.9495  -17.6149 O   0  0  0  0  0  0
   -6.9430   -6.8138  -16.3522 O   0  0  0  0  0  0
   -9.8191   -6.9039  -14.7384 C   0  0  0  0  0  0
  -10.8705   -7.2899  -14.2505 O   0  0  0  0  0  0
   -8.6438   -7.4904  -14.4722 O   0  0  0  0  0  0
   -9.7820   -3.5964   -9.5615 O   0  0  0  0  0  0
  -10.4466   -4.4202   -8.6683 C   0  0  0  0  0  0
  -11.2916   -5.2486   -8.9815 O   0  0  0  0  0  0
  -10.0060   -4.1843   -7.2176 C   0  0  0  0  0  0
   -9.1095   -2.9301   -6.9774 C   0  0  0  0  0  0
   -9.0482   -2.3467   -5.5539 C   0  0  0  0  0  0
  -10.3622   -2.4234   -4.8314 C   0  0  0  0  0  0
  -11.4648   -2.4720   -5.3591 O   0  0  0  0  0  0
  -10.2138   -2.4542   -3.4983 O   0  0  0  0  0  0
   -7.6643   -3.0755   -7.4699 C   0  0  0  0  0  0
   -6.9379   -3.9867   -7.1253 O   0  0  0  0  0  0
   -7.2771   -2.1801   -8.4024 O   0  0  0  0  0  0
   -5.4575   -2.1369   -4.5726 H   0  0  0  0  0  0
   -4.1427   -2.4294   -3.6745 H   0  0  0  0  0  0
   -7.8080   -4.1602   -3.1139 H   0  0  0  0  0  0
   -2.5095   -3.8953   -4.3352 H   0  0  0  0  0  0
   -4.9989   -3.7820   -9.9806 H   0  0  0  0  0  0
   -7.3277   -7.2442  -15.5647 H   0  0  0  0  0  0
   -8.6984   -8.2503  -13.8412 H   0  0  0  0  0  0
  -11.1160   -2.4774   -3.1152 H   0  0  0  0  0  0
   -7.9608   -1.5238   -8.6635 H   0  0  0  0  0  0
  1  2  1  0  0  0
  2  3  1  0  0  0
  3  4  1  0  0  0
  4  5  1  0  0  0
  5  6  1  0  0  0
  5  7  1  0  0  0
  7  8  1  0  0  0
  7 39  1  0  0  0
  8  9  1  0  0  0
  8 27  1  0  0  0
  9 10  1  0  0  0
 10 11  1  0  0  0
 10 12  1  0  0  0
 12 13  1  0  0  0
 13 14  1  0  0  0
 13 26  1  0  0  0
 14 15  1  0  0  0
 15 16  1  0  0  0
 16 17  1  0  0  0
 17 18  1  0  0  0
 18 19  1  0  0  0
 18 25  1  0  0  0
 19 20  1  0  0  0
 20 21  1  0  0  0
 20 24  1  0  0  0
 21 22  1  0  0  0
 21 23  1  0  0  0
 23 51  1  0  0  0
 23 52  1  0  0  0
 24 53  1  0  0  0
 25 54  1  0  0  0
 26 55  1  0  0  0
 27 28  1  0  0  0
 28 29  2  0  0  0
 28 30  1  0  0  0
 30 31  1  0  0  0
 31 32  1  0  0  0
 31 36  1  0  0  0
 32 33  1  0  0  0
 33 34  2  0  0  0
 33 35  1  0  0  0
 35 56  1  0  0  0
 36 37  2  0  0  0
 36 38  1  0  0  0
 38 57  1  0  0  0
 39 40  1  0  0  0
 40 41  2  0  0  0
 40 42  1  0  0  0
 42 43  1  0  0  0
 43 44  1  0  0  0
 43 48  1  0  0  0
 44 45  1  0  0  0
 45 46  2  0  0  0
 45 47  1  0  0  0
 47 58  1  0  0  0
 48 49  2  0  0  0
 48 50  1  0  0  0
 50 59  1  0  0  0
M  END
>  <AUTHOR>
    GENERATED BY OPEN BABEL 2.4.1

>  <CHROM.1>
155.04159073,81.74938827,119.52093397,85.18796256,135.21104093,91.67218553
53.15935239,141.21915437,146.77603885,-65.57930518,-81.46643293,-149.23223379
-154.37874699,77.37130024,-153.06571767,77.71080743,68.67108643,131.26855426
52.76903957,65.41371612,-155.02557040,-65.63585518,63.65982297,-13.00258742
-90.55644533,-19.48690030,-148.38817909,30.11142598,103.59568074,5.58606048
176.88578958,33.37329782,10.25361195,158.50124481,-36.48245118,-54.67442041
-25.01553204,178.39523596,0.42370677,-8.36898763,-3.99669336,-9.60423871
1.93774187,0.55551938,-1.84990444

>  <COMPND>
    UNNAMED

>  <MASTER>
        0    0    0    0    0    0    0    0  109    0  109    0

>  <Name>
FB1.pdb

>  <RI>
0

>  <Rbt.Current_Directory>
/home/fc/tossine/FB1_39/p3/0_clust04

>  <Rbt.Executable>
rbdock/0.1.0

>  <Rbt.Library>
librxdock.so/0.1.0

>  <Rbt.Parameter_File>
/cluster/rxdock/data/scripts/dock.prm

>  <Rbt.Receptor>
rx_2.prm

>  <SCORE>
39.714

>  <SCORE.INTER>
23.8929

>  <SCORE.INTER.CONST>
1

>  <SCORE.INTER.POLAR>
-1.37418

>  <SCORE.INTER.REPUL>
0.299284

>  <SCORE.INTER.ROT>
32

>  <SCORE.INTER.VDW>
-10.3313

>  <SCORE.INTER.norm>
0.477858

>  <SCORE.INTRA>
15.4859

>  <SCORE.INTRA.DIHEDRAL>
35.9688

>  <SCORE.INTRA.DIHEDRAL.0>
47.3121

>  <SCORE.INTRA.POLAR>
-0.230539

>  <SCORE.INTRA.POLAR.0>
-1.47808

>  <SCORE.INTRA.REPUL>
0

>  <SCORE.INTRA.REPUL.0>
0

>  <SCORE.INTRA.VDW>
-1.71466

>  <SCORE.INTRA.VDW.0>
-2.78316

>  <SCORE.INTRA.norm>
0.309718

>  <SCORE.RESTR>
0.335212

>  <SCORE.RESTR.CAVITY>
0.335212

>  <SCORE.RESTR.norm>
0.00670423

>  <SCORE.SYSTEM>
0

>  <SCORE.SYSTEM.CONST>
0

>  <SCORE.SYSTEM.DIHEDRAL>
0

>  <SCORE.SYSTEM.norm>
0

>  <SCORE.heavy>
50

>  <SCORE.norm>
0.79428

$$$$
