FB1.pdb
  RxDock  10062023013D
librxdock.so/0.1.0
 59 58  0  0  0  0  0  0  0  0999 V2000
   -0.9458   -4.6012   -8.5595 C   0  0  0  0  0  0
   -1.8904   -3.4891   -9.0095 C   0  0  0  0  0  0
   -3.0263   -3.2630   -7.9981 C   0  0  0  0  0  0
   -4.0269   -2.1618   -8.4292 C   0  0  0  0  0  0
   -5.3081   -2.0440   -7.5319 C   0  0  0  0  0  0
   -6.1881   -0.9016   -8.0897 C   0  0  0  0  0  0
   -6.1329   -3.3954   -7.4253 C   0  0  0  0  0  0
   -6.4954   -3.9100   -5.9523 C   0  0  0  0  0  0
   -5.7116   -3.5153   -4.6264 C   0  0  0  0  0  0
   -5.2271   -4.7878   -3.6951 C   0  0  0  0  0  0
   -3.7805   -4.5508   -3.2645 C   0  0  0  0  0  0
   -6.1224   -5.1015   -2.4126 C   0  0  0  0  0  0
   -7.6901   -5.4978   -2.4749 C   0  0  0  0  0  0
   -8.6687   -5.2455   -1.2771 C   0  0  0  0  0  0
   -8.6375   -3.8188   -0.5611 C   0  0  0  0  0  0
   -7.3208   -3.1038   -0.0616 C   0  0  0  0  0  0
   -7.0965   -1.6027   -0.3839 C   0  0  0  0  0  0
   -8.2848   -0.6226   -0.0426 C   0  0  0  0  0  0
   -7.8950    0.7376    0.5493 C   0  0  0  0  0  0
   -7.6378    0.8291    2.0803 C   0  0  0  0  0  0
   -7.0413   -0.3822    2.8563 C   0  0  0  0  0  0
   -6.5028   -0.0947    4.2509 C   0  0  0  0  0  0
   -7.9915   -1.5105    2.8802 N   0  0  0  0  0  0
   -6.6571    1.8879    2.2256 O   0  0  0  0  0  0
   -9.0316   -0.3988   -1.2435 O   0  0  0  0  0  0
   -8.2234   -4.7257   -3.5640 O   0  0  0  0  0  0
   -7.8636   -3.4894   -5.7001 O   0  0  0  0  0  0
   -8.0653   -2.1723   -5.4361 C   0  0  0  0  0  0
   -7.2644   -1.2732   -5.6082 O   0  0  0  0  0  0
   -9.4887   -1.9894   -4.9866 C   0  0  0  0  0  0
  -10.2670   -1.0068   -5.8761 C   0  0  0  0  0  0
  -11.5291   -1.6341   -6.4819 C   0  0  0  0  0  0
  -12.1952   -0.6882   -7.4540 C   0  0  0  0  0  0
  -12.1092   -0.7962   -8.6724 O   0  0  0  0  0  0
  -12.8957    0.2867   -6.8558 O   0  0  0  0  0  0
  -10.6493    0.1711   -4.9692 C   0  0  0  0  0  0
  -11.7422    0.2724   -4.4328 O   0  0  0  0  0  0
   -9.6999    1.1096   -4.8518 O   0  0  0  0  0  0
   -7.3221   -3.3681   -8.3113 O   0  0  0  0  0  0
   -7.1619   -3.7221   -9.6406 C   0  0  0  0  0  0
   -6.2088   -4.3491  -10.0843 O   0  0  0  0  0  0
   -8.3246   -3.2391  -10.5176 C   0  0  0  0  0  0
   -9.7507   -3.6575  -10.0424 C   0  0  0  0  0  0
  -10.9089   -2.6698  -10.2735 C   0  0  0  0  0  0
  -10.5712   -1.5906  -11.2614 C   0  0  0  0  0  0
  -10.5089   -0.3936  -11.0169 O   0  0  0  0  0  0
  -10.3143   -2.0772  -12.4851 O   0  0  0  0  0  0
  -10.2158   -5.0277  -10.5508 C   0  0  0  0  0  0
  -11.3479   -5.2385  -10.9388 O   0  0  0  0  0  0
   -9.2530   -5.9690  -10.6424 O   0  0  0  0  0  0
   -7.7489   -2.1673    2.1397 H   0  0  0  0  0  0
   -8.9192   -1.1616    2.6292 H   0  0  0  0  0  0
   -6.6782    2.1143    3.1794 H   0  0  0  0  0  0
   -9.4116   -1.2502   -1.5285 H   0  0  0  0  0  0
   -8.1653   -3.7860   -3.3232 H   0  0  0  0  0  0
  -13.3036    0.9370   -7.4593 H   0  0  0  0  0  0
   -9.9638    1.8943   -4.3102 H   0  0  0  0  0  0
  -10.7215   -2.9683  -12.5247 H   0  0  0  0  0  0
   -8.3946   -5.7333  -10.2256 H   0  0  0  0  0  0
  1  2  1  0  0  0
  2  3  1  0  0  0
  3  4  1  0  0  0
  4  5  1  0  0  0
  5  6  1  0  0  0
  5  7  1  0  0  0
  7  8  1  0  0  0
  7 39  1  0  0  0
  8  9  1  0  0  0
  8 27  1  0  0  0
  9 10  1  0  0  0
 10 11  1  0  0  0
 10 12  1  0  0  0
 12 13  1  0  0  0
 13 14  1  0  0  0
 13 26  1  0  0  0
 14 15  1  0  0  0
 15 16  1  0  0  0
 16 17  1  0  0  0
 17 18  1  0  0  0
 18 19  1  0  0  0
 18 25  1  0  0  0
 19 20  1  0  0  0
 20 21  1  0  0  0
 20 24  1  0  0  0
 21 22  1  0  0  0
 21 23  1  0  0  0
 23 51  1  0  0  0
 23 52  1  0  0  0
 24 53  1  0  0  0
 25 54  1  0  0  0
 26 55  1  0  0  0
 27 28  1  0  0  0
 28 29  2  0  0  0
 28 30  1  0  0  0
 30 31  1  0  0  0
 31 32  1  0  0  0
 31 36  1  0  0  0
 32 33  1  0  0  0
 33 34  2  0  0  0
 33 35  1  0  0  0
 35 56  1  0  0  0
 36 37  2  0  0  0
 36 38  1  0  0  0
 38 57  1  0  0  0
 39 40  1  0  0  0
 40 41  2  0  0  0
 40 42  1  0  0  0
 42 43  1  0  0  0
 43 44  1  0  0  0
 43 48  1  0  0  0
 44 45  1  0  0  0
 45 46  2  0  0  0
 45 47  1  0  0  0
 47 58  1  0  0  0
 48 49  2  0  0  0
 48 50  1  0  0  0
 50 59  1  0  0  0
M  END
>  <AUTHOR>
    GENERATED BY OPEN BABEL 2.4.1

>  <CHROM.1>
-178.80547694,171.56777555,179.62821317,128.23836394,-22.75315461,84.49097071
-128.04716923,-74.67311041,134.84979740,60.62063527,-154.84661645,46.74016744
-65.31868774,-49.47938828,133.69614919,50.15779358,140.24026851,-83.81113838
63.13259644,32.28687377,165.09648105,164.89701250,97.39832616,13.32873917
-121.76151658,122.93455535,-174.46368056,-97.27014536,102.73363163,177.32705745
176.63512009,17.99448101,-53.57303662,145.30248131,15.73417251,-138.84405675
-116.32600177,20.37996138,10.53750214,-8.01388621,-2.32718325,-5.37846809
-1.69862961,-0.44221903,1.33176037

>  <COMPND>
    UNNAMED

>  <MASTER>
        0    0    0    0    0    0    0    0  109    0  109    0

>  <Name>
FB1.pdb

>  <RI>
0

>  <Rbt.Current_Directory>
/home/fc/tossine/FB1_39/p3/0_clust04

>  <Rbt.Executable>
rbdock/0.1.0

>  <Rbt.Library>
librxdock.so/0.1.0

>  <Rbt.Parameter_File>
/cluster/rxdock/data/scripts/dock.prm

>  <Rbt.Receptor>
rx_4.prm

>  <SCORE>
43.6619

>  <SCORE.INTER>
14.5754

>  <SCORE.INTER.CONST>
1

>  <SCORE.INTER.POLAR>
0

>  <SCORE.INTER.REPUL>
0.62863

>  <SCORE.INTER.ROT>
32

>  <SCORE.INTER.VDW>
-25.9677

>  <SCORE.INTER.norm>
0.291509

>  <SCORE.INTRA>
21.1034

>  <SCORE.INTRA.DIHEDRAL>
27.5833

>  <SCORE.INTRA.DIHEDRAL.0>
47.3121

>  <SCORE.INTRA.POLAR>
1.47808

>  <SCORE.INTRA.POLAR.0>
-1.47808

>  <SCORE.INTRA.REPUL>
0

>  <SCORE.INTRA.REPUL.0>
0

>  <SCORE.INTRA.VDW>
2.28632

>  <SCORE.INTRA.VDW.0>
-2.78316

>  <SCORE.INTRA.norm>
0.422069

>  <SCORE.RESTR>
7.98303

>  <SCORE.RESTR.CAVITY>
7.98303

>  <SCORE.RESTR.norm>
0.159661

>  <SCORE.SYSTEM>
0

>  <SCORE.SYSTEM.CONST>
0

>  <SCORE.SYSTEM.DIHEDRAL>
0

>  <SCORE.SYSTEM.norm>
0

>  <SCORE.heavy>
50

>  <SCORE.norm>
0.873238

$$$$
