FB1.pdb
  RxDock  10062021513D
librxdock.so/0.1.0
 59 58  0  0  0  0  0  0  0  0999 V2000
  -12.9838   -0.0415  -10.1243 C   0  0  0  0  0  0
  -12.2490   -0.9598  -11.0980 C   0  0  0  0  0  0
  -10.7665   -1.1185  -10.7224 C   0  0  0  0  0  0
  -10.1232   -2.4126  -11.2802 C   0  0  0  0  0  0
  -10.7695   -3.7467  -10.7676 C   0  0  0  0  0  0
  -10.9838   -4.6802  -11.9814 C   0  0  0  0  0  0
   -9.9197   -4.4693   -9.6391 C   0  0  0  0  0  0
   -8.5038   -5.0787  -10.0751 C   0  0  0  0  0  0
   -7.9033   -5.0357  -11.5467 C   0  0  0  0  0  0
   -7.7025   -6.5079  -12.2635 C   0  0  0  0  0  0
   -6.2594   -6.9603  -12.0464 C   0  0  0  0  0  0
   -8.7007   -7.6603  -11.7943 C   0  0  0  0  0  0
  -10.0663   -8.0497  -12.5703 C   0  0  0  0  0  0
  -10.0801   -8.5037  -14.0702 C   0  0  0  0  0  0
  -10.1255   -7.3782  -15.2017 C   0  0  0  0  0  0
   -8.9550   -6.3566  -15.4864 C   0  0  0  0  0  0
   -9.2155   -5.1312  -16.4019 C   0  0  0  0  0  0
  -10.6023   -4.4002  -16.2247 C   0  0  0  0  0  0
  -10.8122   -3.6526  -14.9021 C   0  0  0  0  0  0
  -10.8850   -2.0996  -14.9365 C   0  0  0  0  0  0
  -11.8452   -1.3741  -15.9250 C   0  0  0  0  0  0
  -13.1882   -2.0440  -16.1795 C   0  0  0  0  0  0
  -12.0250    0.0390  -15.5411 N   0  0  0  0  0  0
  -11.3522   -1.7241  -13.6156 O   0  0  0  0  0  0
  -10.7517   -3.4692  -17.3021 O   0  0  0  0  0  0
  -10.6038   -9.1628  -11.8364 O   0  0  0  0  0  0
   -7.5047   -4.4092   -9.2591 O   0  0  0  0  0  0
   -7.3084   -4.8919   -8.0046 C   0  0  0  0  0  0
   -7.8953   -5.8267   -7.4935 O   0  0  0  0  0  0
   -6.1659   -4.1407   -7.3788 C   0  0  0  0  0  0
   -4.8547   -4.2980   -8.1652 C   0  0  0  0  0  0
   -3.6762   -3.5808   -7.4943 C   0  0  0  0  0  0
   -3.8801   -2.0836   -7.4902 C   0  0  0  0  0  0
   -4.5529   -1.4930   -6.6523 O   0  0  0  0  0  0
   -3.2506   -1.4558   -8.4945 O   0  0  0  0  0  0
   -4.5818   -5.8069   -8.2328 C   0  0  0  0  0  0
   -3.7654   -6.3696   -7.5191 O   0  0  0  0  0  0
   -5.2794   -6.4534   -9.1769 O   0  0  0  0  0  0
   -9.8088   -3.6217   -8.4270 O   0  0  0  0  0  0
  -10.9543   -3.0137   -7.9408 C   0  0  0  0  0  0
  -11.8345   -2.5277   -8.6389 O   0  0  0  0  0  0
  -11.0086   -3.0124   -6.4074 C   0  0  0  0  0  0
   -9.7706   -2.3946   -5.6863 C   0  0  0  0  0  0
   -8.4422   -2.3250   -6.4615 C   0  0  0  0  0  0
   -7.3965   -1.5061   -5.7612 C   0  0  0  0  0  0
   -7.0242   -0.3891   -6.0934 O   0  0  0  0  0  0
   -6.8976   -2.1261   -4.6809 O   0  0  0  0  0  0
  -10.0133   -1.0077   -5.0781 C   0  0  0  0  0  0
  -10.1973   -0.8307   -3.8901 O   0  0  0  0  0  0
   -9.9034    0.0284   -5.9359 O   0  0  0  0  0  0
  -12.4300    0.0824  -14.6069 H   0  0  0  0  0  0
  -12.7295    0.4567  -16.1533 H   0  0  0  0  0  0
  -11.0721   -0.7903  -13.5111 H   0  0  0  0  0  0
  -10.0190   -2.8280  -17.2537 H   0  0  0  0  0  0
  -10.3589   -9.0536  -10.9023 H   0  0  0  0  0  0
   -3.4940   -0.5182   -8.6174 H   0  0  0  0  0  0
   -5.1596   -7.4355   -9.1749 H   0  0  0  0  0  0
   -7.0252   -3.0876   -4.8244 H   0  0  0  0  0  0
  -10.2918    0.8753   -5.6229 H   0  0  0  0  0  0
  1  2  1  0  0  0
  2  3  1  0  0  0
  3  4  1  0  0  0
  4  5  1  0  0  0
  5  6  1  0  0  0
  5  7  1  0  0  0
  7  8  1  0  0  0
  7 39  1  0  0  0
  8  9  1  0  0  0
  8 27  1  0  0  0
  9 10  1  0  0  0
 10 11  1  0  0  0
 10 12  1  0  0  0
 12 13  1  0  0  0
 13 14  1  0  0  0
 13 26  1  0  0  0
 14 15  1  0  0  0
 15 16  1  0  0  0
 16 17  1  0  0  0
 17 18  1  0  0  0
 18 19  1  0  0  0
 18 25  1  0  0  0
 19 20  1  0  0  0
 20 21  1  0  0  0
 20 24  1  0  0  0
 21 22  1  0  0  0
 21 23  1  0  0  0
 23 51  1  0  0  0
 23 52  1  0  0  0
 24 53  1  0  0  0
 25 54  1  0  0  0
 26 55  1  0  0  0
 27 28  1  0  0  0
 28 29  2  0  0  0
 28 30  1  0  0  0
 30 31  1  0  0  0
 31 32  1  0  0  0
 31 36  1  0  0  0
 32 33  1  0  0  0
 33 34  2  0  0  0
 33 35  1  0  0  0
 35 56  1  0  0  0
 36 37  2  0  0  0
 36 38  1  0  0  0
 38 57  1  0  0  0
 39 40  1  0  0  0
 40 41  2  0  0  0
 40 42  1  0  0  0
 42 43  1  0  0  0
 43 44  1  0  0  0
 43 48  1  0  0  0
 44 45  1  0  0  0
 45 46  2  0  0  0
 45 47  1  0  0  0
 47 58  1  0  0  0
 48 49  2  0  0  0
 48 50  1  0  0  0
 50 59  1  0  0  0
M  END
>  <AUTHOR>
    GENERATED BY OPEN BABEL 2.4.1

>  <CHROM.1>
157.01767795,-61.41855433,133.91480449,-67.68315099,-1.10418496,46.46160515
-115.70894330,82.24355111,-95.51985425,95.64925203,58.28720906,-85.36113831
31.90248232,66.66610302,-167.52685981,40.43822334,68.11199649,111.65998489
-60.38271770,51.03501515,36.42420435,158.58612966,-60.57076821,-0.52382262
-60.25945927,-177.55501863,-65.56152285,-102.05762909,82.82327909,169.16559118
-175.36638340,-38.81787445,54.36100732,-21.93402660,170.12259063,102.36305297
-106.52910612,24.80077306,163.90373768,-8.86444199,-3.68104375,-10.26798657
2.16096676,0.71413078,-2.17490914

>  <COMPND>
    UNNAMED

>  <MASTER>
        0    0    0    0    0    0    0    0  109    0  109    0

>  <Name>
FB1.pdb

>  <RI>
0

>  <Rbt.Current_Directory>
/home/fc/tossine/FB1_39/p3/0_clust04

>  <Rbt.Executable>
rbdock/0.1.0

>  <Rbt.Library>
librxdock.so/0.1.0

>  <Rbt.Parameter_File>
/cluster/rxdock/data/scripts/dock.prm

>  <Rbt.Receptor>
rx_2.prm

>  <SCORE>
26.3846

>  <SCORE.INTER>
-0.276563

>  <SCORE.INTER.CONST>
1

>  <SCORE.INTER.POLAR>
-2.34901

>  <SCORE.INTER.REPUL>
0.239594

>  <SCORE.INTER.ROT>
32

>  <SCORE.INTER.VDW>
-30.8879

>  <SCORE.INTER.norm>
-0.00553125

>  <SCORE.INTRA>
22.3881

>  <SCORE.INTRA.DIHEDRAL>
30.709

>  <SCORE.INTRA.DIHEDRAL.0>
47.3121

>  <SCORE.INTRA.POLAR>
1.47808

>  <SCORE.INTRA.POLAR.0>
-1.47808

>  <SCORE.INTRA.REPUL>
0

>  <SCORE.INTRA.REPUL.0>
0

>  <SCORE.INTRA.VDW>
2.00818

>  <SCORE.INTRA.VDW.0>
-2.78316

>  <SCORE.INTRA.norm>
0.447762

>  <SCORE.RESTR>
4.27302

>  <SCORE.RESTR.CAVITY>
4.27302

>  <SCORE.RESTR.norm>
0.0854604

>  <SCORE.SYSTEM>
0

>  <SCORE.SYSTEM.CONST>
0

>  <SCORE.SYSTEM.DIHEDRAL>
0

>  <SCORE.SYSTEM.norm>
0

>  <SCORE.heavy>
50

>  <SCORE.norm>
0.527692

$$$$
