FB1.pdb
  RxDock  10062021403D
librxdock.so/0.1.0
 59 58  0  0  0  0  0  0  0  0999 V2000
   -8.7876  -10.5924  -14.9207 C   0  0  0  0  0  0
   -9.4711  -10.5370  -13.5564 C   0  0  0  0  0  0
   -9.2864   -9.1675  -12.8823 C   0  0  0  0  0  0
   -7.8076   -8.7134  -12.8014 C   0  0  0  0  0  0
   -7.4898   -7.6964  -11.6502 C   0  0  0  0  0  0
   -6.0720   -7.1257  -11.8842 C   0  0  0  0  0  0
   -8.5574   -6.5294  -11.5236 C   0  0  0  0  0  0
   -8.2413   -5.3682  -10.4663 C   0  0  0  0  0  0
   -6.8664   -4.5764  -10.3607 C   0  0  0  0  0  0
   -6.6709   -3.6956   -8.9797 C   0  0  0  0  0  0
   -7.8479   -2.7303   -8.8493 C   0  0  0  0  0  0
   -6.5118   -4.5306   -7.6297 C   0  0  0  0  0  0
   -6.2494   -3.8667   -6.1775 C   0  0  0  0  0  0
   -5.8344   -4.7166   -4.9278 C   0  0  0  0  0  0
   -4.5834   -5.6996   -5.0619 C   0  0  0  0  0  0
   -3.3400   -5.6934   -4.0881 C   0  0  0  0  0  0
   -3.2140   -4.5788   -3.0160 C   0  0  0  0  0  0
   -3.3486   -3.0916   -3.5252 C   0  0  0  0  0  0
   -4.6202   -2.3428   -3.1071 C   0  0  0  0  0  0
   -5.2813   -2.7134   -1.7493 C   0  0  0  0  0  0
   -5.0571   -1.8237   -0.4909 C   0  0  0  0  0  0
   -6.0777   -0.7200   -0.2509 C   0  0  0  0  0  0
   -4.8851   -2.6543    0.7161 N   0  0  0  0  0  0
   -6.7076   -2.6492   -2.0052 O   0  0  0  0  0  0
   -2.2131   -2.3585   -3.0530 O   0  0  0  0  0  0
   -5.1642   -2.9465   -6.3825 O   0  0  0  0  0  0
   -9.2365   -4.3328  -10.6902 O   0  0  0  0  0  0
  -10.4920   -4.5745  -10.2314 C   0  0  0  0  0  0
  -10.9322   -5.6501   -9.8725 O   0  0  0  0  0  0
  -11.2264   -3.2653  -10.1424 C   0  0  0  0  0  0
  -11.2285   -2.4978  -11.4742 C   0  0  0  0  0  0
  -12.3299   -1.4319  -11.5376 C   0  0  0  0  0  0
  -12.7643   -1.0138  -10.1521 C   0  0  0  0  0  0
  -11.9810   -0.7258   -9.2537 O   0  0  0  0  0  0
  -14.0961   -0.9851   -9.9955 O   0  0  0  0  0  0
   -9.8485   -1.8342  -11.5807 C   0  0  0  0  0  0
   -8.9455   -2.2805  -12.2720 O   0  0  0  0  0  0
   -9.6968   -0.7471  -10.8119 O   0  0  0  0  0  0
   -8.9150   -5.9839  -12.8557 O   0  0  0  0  0  0
  -10.2362   -6.0564  -13.2645 C   0  0  0  0  0  0
  -11.1880   -6.2353  -12.5159 O   0  0  0  0  0  0
  -10.3880   -5.8856  -14.7818 C   0  0  0  0  0  0
   -9.6186   -4.6813  -15.4082 C   0  0  0  0  0  0
   -9.1784   -4.7907  -16.8795 C   0  0  0  0  0  0
   -7.9281   -5.6023  -17.0589 C   0  0  0  0  0  0
   -6.8986   -5.2176  -17.5962 O   0  0  0  0  0  0
   -8.0371   -6.8345  -16.5390 O   0  0  0  0  0  0
  -10.3147   -3.3247  -15.2433 C   0  0  0  0  0  0
  -11.5031   -3.1640  -15.4402 O   0  0  0  0  0  0
   -9.5406   -2.3314  -14.7582 O   0  0  0  0  0  0
   -5.7643   -3.1248    0.9260 H   0  0  0  0  0  0
   -4.7184   -2.0387    1.5153 H   0  0  0  0  0  0
   -6.8398   -1.7854   -2.4497 H   0  0  0  0  0  0
   -2.1924   -2.4230   -2.0804 H   0  0  0  0  0  0
   -4.9890   -2.4954   -5.5397 H   0  0  0  0  0  0
  -14.6144   -1.1739  -10.8012 H   0  0  0  0  0  0
   -8.8280   -0.2864  -10.9201 H   0  0  0  0  0  0
   -7.1861   -7.2894  -16.7127 H   0  0  0  0  0  0
  -10.0200   -1.5121  -14.5030 H   0  0  0  0  0  0
  1  2  1  0  0  0
  2  3  1  0  0  0
  3  4  1  0  0  0
  4  5  1  0  0  0
  5  6  1  0  0  0
  5  7  1  0  0  0
  7  8  1  0  0  0
  7 39  1  0  0  0
  8  9  1  0  0  0
  8 27  1  0  0  0
  9 10  1  0  0  0
 10 11  1  0  0  0
 10 12  1  0  0  0
 12 13  1  0  0  0
 13 14  1  0  0  0
 13 26  1  0  0  0
 14 15  1  0  0  0
 15 16  1  0  0  0
 16 17  1  0  0  0
 17 18  1  0  0  0
 18 19  1  0  0  0
 18 25  1  0  0  0
 19 20  1  0  0  0
 20 21  1  0  0  0
 20 24  1  0  0  0
 21 22  1  0  0  0
 21 23  1  0  0  0
 23 51  1  0  0  0
 23 52  1  0  0  0
 24 53  1  0  0  0
 25 54  1  0  0  0
 26 55  1  0  0  0
 27 28  1  0  0  0
 28 29  2  0  0  0
 28 30  1  0  0  0
 30 31  1  0  0  0
 31 32  1  0  0  0
 31 36  1  0  0  0
 32 33  1  0  0  0
 33 34  2  0  0  0
 33 35  1  0  0  0
 35 56  1  0  0  0
 36 37  2  0  0  0
 36 38  1  0  0  0
 38 57  1  0  0  0
 39 40  1  0  0  0
 40 41  2  0  0  0
 40 42  1  0  0  0
 42 43  1  0  0  0
 43 44  1  0  0  0
 43 48  1  0  0  0
 44 45  1  0  0  0
 45 46  2  0  0  0
 45 47  1  0  0  0
 47 58  1  0  0  0
 48 49  2  0  0  0
 48 50  1  0  0  0
 50 59  1  0  0  0
M  END
>  <AUTHOR>
    GENERATED BY OPEN BABEL 2.4.1

>  <CHROM.1>
-52.57613142,-155.29758801,-168.39748056,-174.40072721,49.76283380,119.83445052
-166.09617537,75.41576218,-55.98248738,177.37797790,-168.28585834,52.23346178
177.97040093,126.32380061,-7.05379040,-51.65466262,109.95245376,30.48381202
-57.74165370,100.55310200,91.76199032,-49.15197326,-67.46378587,-14.29412774
55.04322932,160.91669716,22.73295508,101.23001901,47.46461411,-4.06746383
-176.47467370,18.41590624,-47.99721761,152.41035464,-79.92461904,-44.87737329
-123.26568672,179.25848119,-169.58860636,-8.13117086,-4.29081848,-9.75464770
-2.09719257,-0.75199975,0.97860622

>  <COMPND>
    UNNAMED

>  <MASTER>
        0    0    0    0    0    0    0    0  109    0  109    0

>  <Name>
FB1.pdb

>  <RI>
0

>  <Rbt.Current_Directory>
/home/fc/tossine/FB1_39/p3/0_clust04

>  <Rbt.Executable>
rbdock/0.1.0

>  <Rbt.Library>
librxdock.so/0.1.0

>  <Rbt.Parameter_File>
/cluster/rxdock/data/scripts/dock.prm

>  <Rbt.Receptor>
rx_2.prm

>  <SCORE>
27.0004

>  <SCORE.INTER>
6.60043

>  <SCORE.INTER.CONST>
1

>  <SCORE.INTER.POLAR>
-0.842952

>  <SCORE.INTER.REPUL>
0.0448238

>  <SCORE.INTER.ROT>
32

>  <SCORE.INTER.VDW>
-28.1577

>  <SCORE.INTER.norm>
0.132009

>  <SCORE.INTRA>
17.1914

>  <SCORE.INTRA.DIHEDRAL>
18.7344

>  <SCORE.INTRA.DIHEDRAL.0>
47.3121

>  <SCORE.INTRA.POLAR>
1.47808

>  <SCORE.INTRA.POLAR.0>
-1.47808

>  <SCORE.INTRA.REPUL>
0

>  <SCORE.INTRA.REPUL.0>
0

>  <SCORE.INTRA.VDW>
2.7987

>  <SCORE.INTRA.VDW.0>
-2.78316

>  <SCORE.INTRA.norm>
0.343828

>  <SCORE.RESTR>
3.20863

>  <SCORE.RESTR.CAVITY>
3.20863

>  <SCORE.RESTR.norm>
0.0641726

>  <SCORE.SYSTEM>
0

>  <SCORE.SYSTEM.CONST>
0

>  <SCORE.SYSTEM.DIHEDRAL>
0

>  <SCORE.SYSTEM.norm>
0

>  <SCORE.heavy>
50

>  <SCORE.norm>
0.540009

$$$$
