FB1.pdb
  RxDock  10062021013D
librxdock.so/0.1.0
 59 58  0  0  0  0  0  0  0  0999 V2000
  -10.9790   -0.4652   -5.7066 C   0  0  0  0  0  0
  -12.0992   -0.2982   -6.7306 C   0  0  0  0  0  0
  -11.8752   -1.1819   -7.9688 C   0  0  0  0  0  0
  -12.7680   -0.7942   -9.1739 C   0  0  0  0  0  0
  -12.5983   -1.7017  -10.4420 C   0  0  0  0  0  0
  -13.2875   -1.0015  -11.6359 C   0  0  0  0  0  0
  -11.0856   -2.0416  -10.7796 C   0  0  0  0  0  0
  -10.8219   -3.0370  -12.0067 C   0  0  0  0  0  0
  -11.4348   -4.4973  -12.1483 C   0  0  0  0  0  0
  -10.9306   -5.5808  -11.0111 C   0  0  0  0  0  0
  -12.1367   -6.3981  -10.5513 C   0  0  0  0  0  0
   -9.7539   -6.5645  -11.4501 C   0  0  0  0  0  0
   -8.3389   -6.0712  -12.0609 C   0  0  0  0  0  0
   -7.6245   -6.8209  -13.2371 C   0  0  0  0  0  0
   -8.4788   -7.1770  -14.5381 C   0  0  0  0  0  0
  -10.0236   -7.5056  -14.5243 C   0  0  0  0  0  0
  -10.5775   -8.6160  -15.4558 C   0  0  0  0  0  0
  -10.2306  -10.1042  -15.0634 C   0  0  0  0  0  0
   -8.7529  -10.4066  -14.7851 C   0  0  0  0  0  0
   -8.3169  -11.8934  -14.6525 C   0  0  0  0  0  0
   -8.6886  -12.9285  -15.7552 C   0  0  0  0  0  0
   -7.5316  -13.5129  -16.5535 C   0  0  0  0  0  0
   -9.5433  -13.9979  -15.2054 N   0  0  0  0  0  0
   -6.8670  -11.8524  -14.6494 O   0  0  0  0  0  0
  -10.9912  -10.4426  -13.8986 O   0  0  0  0  0  0
   -8.5931   -4.7470  -12.5594 O   0  0  0  0  0  0
  -11.2734   -2.3401  -13.1996 O   0  0  0  0  0  0
  -10.3594   -2.1509  -14.1865 C   0  0  0  0  0  0
   -9.1528   -2.0865  -14.0470 O   0  0  0  0  0  0
  -11.0803   -2.1346  -15.5061 C   0  0  0  0  0  0
  -10.7616   -3.3666  -16.3681 C   0  0  0  0  0  0
   -9.7332   -4.2954  -15.7101 C   0  0  0  0  0  0
   -9.0384   -5.1560  -16.7397 C   0  0  0  0  0  0
   -7.8680   -5.0040  -17.0724 O   0  0  0  0  0  0
   -9.8262   -6.1095  -17.2584 O   0  0  0  0  0  0
  -12.0934   -4.1064  -16.5553 C   0  0  0  0  0  0
  -12.1692   -5.2407  -17.0026 O   0  0  0  0  0  0
  -13.1764   -3.3858  -16.2329 O   0  0  0  0  0  0
  -10.2694   -0.8073  -10.8819 O   0  0  0  0  0  0
   -8.8974   -0.9093  -10.7229 C   0  0  0  0  0  0
   -8.1027   -0.0026  -10.9337 O   0  0  0  0  0  0
   -8.4671   -2.3025  -10.2453 C   0  0  0  0  0  0
   -8.2809   -2.4628   -8.7044 C   0  0  0  0  0  0
   -8.7578   -3.7726   -8.0506 C   0  0  0  0  0  0
   -7.9054   -4.9540   -8.4143 C   0  0  0  0  0  0
   -7.2742   -5.0854   -9.4539 O   0  0  0  0  0  0
   -7.8807   -5.8855   -7.4489 O   0  0  0  0  0  0
   -6.8555   -2.1994   -8.2035 C   0  0  0  0  0  0
   -6.5765   -1.2806   -7.4588 O   0  0  0  0  0  0
   -5.9369   -3.1223   -8.5581 O   0  0  0  0  0  0
  -10.4839  -13.9026  -15.5859 H   0  0  0  0  0  0
   -9.6493  -13.8468  -14.1998 H   0  0  0  0  0  0
   -6.5974  -12.6927  -14.2221 H   0  0  0  0  0  0
  -10.8565  -11.3899  -13.7119 H   0  0  0  0  0  0
   -7.7442   -4.3601  -12.8317 H   0  0  0  0  0  0
  -10.7551   -6.0915  -16.9581 H   0  0  0  0  0  0
  -14.0343   -3.8688  -16.3307 H   0  0  0  0  0  0
   -8.5477   -5.6174   -6.7821 H   0  0  0  0  0  0
   -5.1106   -3.1181   -8.0258 H   0  0  0  0  0  0
  1  2  1  0  0  0
  2  3  1  0  0  0
  3  4  1  0  0  0
  4  5  1  0  0  0
  5  6  1  0  0  0
  5  7  1  0  0  0
  7  8  1  0  0  0
  7 39  1  0  0  0
  8  9  1  0  0  0
  8 27  1  0  0  0
  9 10  1  0  0  0
 10 11  1  0  0  0
 10 12  1  0  0  0
 12 13  1  0  0  0
 13 14  1  0  0  0
 13 26  1  0  0  0
 14 15  1  0  0  0
 15 16  1  0  0  0
 16 17  1  0  0  0
 17 18  1  0  0  0
 18 19  1  0  0  0
 18 25  1  0  0  0
 19 20  1  0  0  0
 20 21  1  0  0  0
 20 24  1  0  0  0
 21 22  1  0  0  0
 21 23  1  0  0  0
 23 51  1  0  0  0
 23 52  1  0  0  0
 24 53  1  0  0  0
 25 54  1  0  0  0
 26 55  1  0  0  0
 27 28  1  0  0  0
 28 29  2  0  0  0
 28 30  1  0  0  0
 30 31  1  0  0  0
 31 32  1  0  0  0
 31 36  1  0  0  0
 32 33  1  0  0  0
 33 34  2  0  0  0
 33 35  1  0  0  0
 35 56  1  0  0  0
 36 37  2  0  0  0
 36 38  1  0  0  0
 38 57  1  0  0  0
 39 40  1  0  0  0
 40 41  2  0  0  0
 40 42  1  0  0  0
 42 43  1  0  0  0
 43 44  1  0  0  0
 43 48  1  0  0  0
 44 45  1  0  0  0
 45 46  2  0  0  0
 45 47  1  0  0  0
 47 58  1  0  0  0
 48 49  2  0  0  0
 48 50  1  0  0  0
 50 59  1  0  0  0
M  END
>  <AUTHOR>
    GENERATED BY OPEN BABEL 2.4.1

>  <CHROM.1>
-165.37754877,-178.23563765,-166.91832002,176.37994893,-55.54301421,158.66368401
-64.95096731,122.03629553,137.59987549,53.66124893,-140.21839856,49.50032644
172.63480886,-31.60853932,-141.45174428,72.27139356,-50.52388026,-168.94084771
173.74703548,51.86680697,113.64128472,158.29701509,110.25723727,-26.03539921
-110.98871103,-2.61125050,-157.46656886,-167.57360374,108.68800094,4.04979995
-178.49982410,171.22637050,-95.09187862,140.51812209,70.28242434,115.52675146
-28.48777156,8.33800603,-161.75345838,-9.70115079,-4.99641416,-12.43926364
-1.71378149,1.05184485,-2.37857086

>  <COMPND>
    UNNAMED

>  <MASTER>
        0    0    0    0    0    0    0    0  109    0  109    0

>  <Name>
FB1.pdb

>  <RI>
0

>  <Rbt.Current_Directory>
/home/fc/tossine/FB1_39/p3/0_clust04

>  <Rbt.Executable>
rbdock/0.1.0

>  <Rbt.Library>
librxdock.so/0.1.0

>  <Rbt.Parameter_File>
/cluster/rxdock/data/scripts/dock.prm

>  <Rbt.Receptor>
rx_1.prm

>  <SCORE>
32.9029

>  <SCORE.INTER>
12.8145

>  <SCORE.INTER.CONST>
1

>  <SCORE.INTER.POLAR>
-3.10841

>  <SCORE.INTER.REPUL>
0.101095

>  <SCORE.INTER.ROT>
32

>  <SCORE.INTER.VDW>
-14.5224

>  <SCORE.INTER.norm>
0.256291

>  <SCORE.INTRA>
19.9213

>  <SCORE.INTRA.DIHEDRAL>
23.9524

>  <SCORE.INTRA.DIHEDRAL.0>
47.3121

>  <SCORE.INTRA.POLAR>
0.843336

>  <SCORE.INTRA.POLAR.0>
-1.47808

>  <SCORE.INTRA.REPUL>
0

>  <SCORE.INTRA.REPUL.0>
0

>  <SCORE.INTRA.VDW>
5.0778

>  <SCORE.INTRA.VDW.0>
-2.78316

>  <SCORE.INTRA.norm>
0.398427

>  <SCORE.RESTR>
0.166985

>  <SCORE.RESTR.CAVITY>
0.166985

>  <SCORE.RESTR.norm>
0.00333969

>  <SCORE.SYSTEM>
0

>  <SCORE.SYSTEM.CONST>
0

>  <SCORE.SYSTEM.DIHEDRAL>
0

>  <SCORE.SYSTEM.norm>
0

>  <SCORE.heavy>
50

>  <SCORE.norm>
0.658057

$$$$
