FB1.pdb
  RxDock  10062019583D
librxdock.so/0.1.0
 59 58  0  0  0  0  0  0  0  0999 V2000
   -6.4773   -6.1132  -10.0099 C   0  0  0  0  0  0
   -6.2951   -5.6606  -11.4567 C   0  0  0  0  0  0
   -6.7572   -6.7371  -12.4526 C   0  0  0  0  0  0
   -6.6626   -6.2903  -13.9329 C   0  0  0  0  0  0
   -7.2533   -7.3080  -14.9701 C   0  0  0  0  0  0
   -6.3665   -8.5746  -14.9666 C   0  0  0  0  0  0
   -8.7724   -7.6781  -14.6996 C   0  0  0  0  0  0
   -9.7316   -6.4929  -14.2083 C   0  0  0  0  0  0
   -9.7360   -5.8653  -12.7474 C   0  0  0  0  0  0
  -11.1671   -5.9908  -11.9365 C   0  0  0  0  0  0
  -11.6496   -7.4377  -12.0251 C   0  0  0  0  0  0
  -11.1543   -5.5237  -10.4112 C   0  0  0  0  0  0
  -10.5812   -4.0981   -9.9034 C   0  0  0  0  0  0
   -9.1186   -3.9231   -9.3683 C   0  0  0  0  0  0
   -8.8683   -2.8992   -8.1691 C   0  0  0  0  0  0
   -9.9032   -2.6190   -7.0092 C   0  0  0  0  0  0
   -9.3896   -2.1420   -5.6250 C   0  0  0  0  0  0
   -8.7541   -3.2430   -4.6905 C   0  0  0  0  0  0
   -7.2304   -3.4014   -4.7663 C   0  0  0  0  0  0
   -6.6118   -4.7747   -4.3796 C   0  0  0  0  0  0
   -5.1067   -4.8845   -3.9950 C   0  0  0  0  0  0
   -4.1041   -4.4235   -5.0437 C   0  0  0  0  0  0
   -4.8474   -4.2349   -2.6961 N   0  0  0  0  0  0
   -7.3341   -5.1812   -3.1892 O   0  0  0  0  0  0
   -9.1128   -2.9358   -3.3390 O   0  0  0  0  0  0
  -10.6669   -3.2356  -11.0502 O   0  0  0  0  0  0
   -9.4641   -5.3642  -15.0840 O   0  0  0  0  0  0
  -10.3969   -4.3774  -15.1208 C   0  0  0  0  0  0
  -10.8992   -3.8261  -14.1599 O   0  0  0  0  0  0
  -10.6367   -4.0023  -16.5572 C   0  0  0  0  0  0
  -11.1112   -2.5491  -16.7166 C   0  0  0  0  0  0
  -11.4729   -2.2037  -18.1668 C   0  0  0  0  0  0
  -11.8164   -3.4470  -18.9539 C   0  0  0  0  0  0
  -11.0967   -3.9164  -19.8287 O   0  0  0  0  0  0
  -12.9894   -3.9945  -18.6030 O   0  0  0  0  0  0
  -12.3484   -2.4085  -15.8189 C   0  0  0  0  0  0
  -13.3964   -2.9995  -16.0303 O   0  0  0  0  0  0
  -12.2017   -1.5423  -14.8069 O   0  0  0  0  0  0
   -9.3535   -8.4240  -15.8423 O   0  0  0  0  0  0
   -9.5497   -9.7883  -15.7075 C   0  0  0  0  0  0
  -10.5094  -10.3018  -15.1474 O   0  0  0  0  0  0
   -8.4192  -10.6066  -16.3452 C   0  0  0  0  0  0
   -8.6750  -12.1415  -16.4588 C   0  0  0  0  0  0
   -7.7047  -12.9751  -17.3156 C   0  0  0  0  0  0
   -7.9801  -14.4495  -17.2472 C   0  0  0  0  0  0
   -7.3863  -15.2544  -16.5428 O   0  0  0  0  0  0
   -8.9911  -14.8203  -18.0476 O   0  0  0  0  0  0
   -8.8270  -12.8639  -15.1145 C   0  0  0  0  0  0
   -8.1376  -12.6096  -14.1466 O   0  0  0  0  0  0
   -9.8550  -13.7349  -15.0377 O   0  0  0  0  0  0
   -3.9493   -4.5547   -2.3360 H   0  0  0  0  0  0
   -5.5369   -4.5704   -2.0197 H   0  0  0  0  0  0
   -7.1705   -6.1454   -3.1187 H   0  0  0  0  0  0
   -8.7752   -3.6481   -2.7653 H   0  0  0  0  0  0
  -10.0105   -3.5350  -11.7014 H   0  0  0  0  0  0
  -13.4487   -3.5557  -17.8613 H   0  0  0  0  0  0
  -12.9445   -1.5457  -14.1534 H   0  0  0  0  0  0
   -9.1681  -15.7658  -17.8575 H   0  0  0  0  0  0
   -9.9949  -14.1421  -14.1541 H   0  0  0  0  0  0
  1  2  1  0  0  0
  2  3  1  0  0  0
  3  4  1  0  0  0
  4  5  1  0  0  0
  5  6  1  0  0  0
  5  7  1  0  0  0
  7  8  1  0  0  0
  7 39  1  0  0  0
  8  9  1  0  0  0
  8 27  1  0  0  0
  9 10  1  0  0  0
 10 11  1  0  0  0
 10 12  1  0  0  0
 12 13  1  0  0  0
 13 14  1  0  0  0
 13 26  1  0  0  0
 14 15  1  0  0  0
 15 16  1  0  0  0
 16 17  1  0  0  0
 17 18  1  0  0  0
 18 19  1  0  0  0
 18 25  1  0  0  0
 19 20  1  0  0  0
 20 21  1  0  0  0
 20 24  1  0  0  0
 21 22  1  0  0  0
 21 23  1  0  0  0
 23 51  1  0  0  0
 23 52  1  0  0  0
 24 53  1  0  0  0
 25 54  1  0  0  0
 26 55  1  0  0  0
 27 28  1  0  0  0
 28 29  2  0  0  0
 28 30  1  0  0  0
 30 31  1  0  0  0
 31 32  1  0  0  0
 31 36  1  0  0  0
 32 33  1  0  0  0
 33 34  2  0  0  0
 33 35  1  0  0  0
 35 56  1  0  0  0
 36 37  2  0  0  0
 36 38  1  0  0  0
 38 57  1  0  0  0
 39 40  1  0  0  0
 40 41  2  0  0  0
 40 42  1  0  0  0
 42 43  1  0  0  0
 43 44  1  0  0  0
 43 48  1  0  0  0
 44 45  1  0  0  0
 45 46  2  0  0  0
 45 47  1  0  0  0
 47 58  1  0  0  0
 48 49  2  0  0  0
 48 50  1  0  0  0
 50 59  1  0  0  0
M  END
>  <AUTHOR>
    GENERATED BY OPEN BABEL 2.4.1

>  <CHROM.1>
176.84730429,-174.39655495,-67.03735524,38.68194432,-74.61428091,104.85065019
-119.96523400,161.96634066,49.22650466,51.04729437,-95.41591352,-144.08706481
-69.48775867,33.36273320,153.16448713,-77.14719088,93.92925981,-154.71775918
176.05953491,-160.37678390,-58.50936739,161.70981182,163.03329766,49.28979825
-152.96043740,-174.99432523,23.10904495,-66.23025343,-108.79655424,-2.99682653
-171.59622788,81.64202687,-169.86408515,168.91603325,174.79351831,-40.24773484
-98.75473290,-173.31655991,-175.26435068,-9.15190201,-6.42141030,-12.56411810
-1.24760021,1.07974963,-2.34059029

>  <COMPND>
    UNNAMED

>  <MASTER>
        0    0    0    0    0    0    0    0  109    0  109    0

>  <Name>
FB1.pdb

>  <RI>
0

>  <Rbt.Current_Directory>
/home/fc/tossine/FB1_39/p3/0_clust04

>  <Rbt.Executable>
rbdock/0.1.0

>  <Rbt.Library>
librxdock.so/0.1.0

>  <Rbt.Parameter_File>
/cluster/rxdock/data/scripts/dock.prm

>  <Rbt.Receptor>
rx_0.prm

>  <SCORE>
32.1072

>  <SCORE.INTER>
6.71347

>  <SCORE.INTER.CONST>
1

>  <SCORE.INTER.POLAR>
-2.17071

>  <SCORE.INTER.REPUL>
0.392171

>  <SCORE.INTER.ROT>
32

>  <SCORE.INTER.VDW>
-25.267

>  <SCORE.INTER.norm>
0.134269

>  <SCORE.INTRA>
25.1777

>  <SCORE.INTRA.DIHEDRAL>
47.0055

>  <SCORE.INTRA.DIHEDRAL.0>
47.3121

>  <SCORE.INTRA.POLAR>
0.51682

>  <SCORE.INTRA.POLAR.0>
-1.47808

>  <SCORE.INTRA.REPUL>
0

>  <SCORE.INTRA.REPUL.0>
0

>  <SCORE.INTRA.VDW>
-0.0822175

>  <SCORE.INTRA.VDW.0>
-2.78316

>  <SCORE.INTRA.norm>
0.503555

>  <SCORE.RESTR>
0.215984

>  <SCORE.RESTR.CAVITY>
0.215984

>  <SCORE.RESTR.norm>
0.00431968

>  <SCORE.SYSTEM>
0

>  <SCORE.SYSTEM.CONST>
0

>  <SCORE.SYSTEM.DIHEDRAL>
0

>  <SCORE.SYSTEM.norm>
0

>  <SCORE.heavy>
50

>  <SCORE.norm>
0.642144

$$$$
