FB1.pdb
  RxDock  10062021493D
librxdock.so/0.1.0
 59 58  0  0  0  0  0  0  0  0999 V2000
  -11.1509   -8.5458  -12.0676 C   0  0  0  0  0  0
  -10.0392   -7.5563  -11.7265 C   0  0  0  0  0  0
  -10.4778   -6.1022  -11.9664 C   0  0  0  0  0  0
  -11.6554   -5.6555  -11.0645 C   0  0  0  0  0  0
  -11.2660   -5.3332   -9.5796 C   0  0  0  0  0  0
  -11.2493   -6.6585   -8.7834 C   0  0  0  0  0  0
   -9.8823   -4.5694   -9.4392 C   0  0  0  0  0  0
   -9.3138   -3.8503  -10.7530 C   0  0  0  0  0  0
   -9.5591   -2.3282  -11.1418 C   0  0  0  0  0  0
   -9.8046   -2.0475  -12.7487 C   0  0  0  0  0  0
   -8.4470   -1.8384  -13.4176 C   0  0  0  0  0  0
  -10.6246   -3.1638  -13.5402 C   0  0  0  0  0  0
  -10.6384   -3.3078  -15.1520 C   0  0  0  0  0  0
  -11.5318   -4.3604  -15.8937 C   0  0  0  0  0  0
  -11.0286   -5.8745  -15.9512 C   0  0  0  0  0  0
   -9.5132   -6.3113  -15.8654 C   0  0  0  0  0  0
   -8.4009   -5.2827  -16.2004 C   0  0  0  0  0  0
   -6.9124   -5.7545  -15.9748 C   0  0  0  0  0  0
   -6.6423   -6.5652  -14.7010 C   0  0  0  0  0  0
   -7.4023   -6.1729  -13.4023 C   0  0  0  0  0  0
   -6.9903   -6.7821  -12.0296 C   0  0  0  0  0  0
   -7.0904   -8.2958  -11.9027 C   0  0  0  0  0  0
   -5.6544   -6.3061  -11.6231 N   0  0  0  0  0  0
   -7.1789   -4.7466  -13.2623 O   0  0  0  0  0  0
   -6.5221   -6.5410  -17.1057 O   0  0  0  0  0  0
  -11.0866   -2.0296  -15.6334 O   0  0  0  0  0  0
   -7.8672   -3.9775  -10.6922 O   0  0  0  0  0  0
   -7.2585   -3.5573   -9.5528 C   0  0  0  0  0  0
   -7.7764   -2.9265   -8.6510 O   0  0  0  0  0  0
   -5.8524   -4.0905   -9.5399 C   0  0  0  0  0  0
   -5.1064   -3.7569   -8.2382 C   0  0  0  0  0  0
   -3.8717   -4.6417   -8.0240 C   0  0  0  0  0  0
   -4.2670   -6.0800   -7.7821 C   0  0  0  0  0  0
   -4.9087   -6.7509   -8.5832 O   0  0  0  0  0  0
   -3.8462   -6.5586   -6.6020 O   0  0  0  0  0  0
   -4.6842   -2.2862   -8.3590 C   0  0  0  0  0  0
   -3.5334   -1.9384   -8.5762 O   0  0  0  0  0  0
   -5.6758   -1.4077   -8.1570 O   0  0  0  0  0  0
   -9.8895   -3.6591   -8.2683 O   0  0  0  0  0  0
  -10.9964   -2.8510   -8.0685 C   0  0  0  0  0  0
  -11.7190   -2.4267   -8.9608 O   0  0  0  0  0  0
  -11.2294   -2.5363   -6.5849 C   0  0  0  0  0  0
   -9.9641   -2.1152   -5.7750 C   0  0  0  0  0  0
  -10.1628   -1.2287   -4.5320 C   0  0  0  0  0  0
  -10.2503    0.2334   -4.8622 C   0  0  0  0  0  0
  -11.0785    1.0169   -4.4184 O   0  0  0  0  0  0
   -9.2870    0.6267   -5.7094 O   0  0  0  0  0  0
   -9.0557   -3.2794   -5.3604 C   0  0  0  0  0  0
   -8.3624   -3.8895   -6.1502 O   0  0  0  0  0  0
   -8.9910   -3.5198   -4.0340 O   0  0  0  0  0  0
   -4.9480   -6.7597  -12.2009 H   0  0  0  0  0  0
   -5.4665   -6.6325  -10.6725 H   0  0  0  0  0  0
   -6.2575   -4.6721  -12.9355 H   0  0  0  0  0  0
   -6.6200   -5.9926  -17.9058 H   0  0  0  0  0  0
  -10.3388   -1.4107  -15.5842 H   0  0  0  0  0  0
   -4.1477   -7.4622   -6.3875 H   0  0  0  0  0  0
   -5.5345   -0.5251   -8.5811 H   0  0  0  0  0  0
   -9.4192    1.5865   -5.8597 H   0  0  0  0  0  0
   -8.5679   -4.3705   -3.7819 H   0  0  0  0  0  0
  1  2  1  0  0  0
  2  3  1  0  0  0
  3  4  1  0  0  0
  4  5  1  0  0  0
  5  6  1  0  0  0
  5  7  1  0  0  0
  7  8  1  0  0  0
  7 39  1  0  0  0
  8  9  1  0  0  0
  8 27  1  0  0  0
  9 10  1  0  0  0
 10 11  1  0  0  0
 10 12  1  0  0  0
 12 13  1  0  0  0
 13 14  1  0  0  0
 13 26  1  0  0  0
 14 15  1  0  0  0
 15 16  1  0  0  0
 16 17  1  0  0  0
 17 18  1  0  0  0
 18 19  1  0  0  0
 18 25  1  0  0  0
 19 20  1  0  0  0
 20 21  1  0  0  0
 20 24  1  0  0  0
 21 22  1  0  0  0
 21 23  1  0  0  0
 23 51  1  0  0  0
 23 52  1  0  0  0
 24 53  1  0  0  0
 25 54  1  0  0  0
 26 55  1  0  0  0
 27 28  1  0  0  0
 28 29  2  0  0  0
 28 30  1  0  0  0
 30 31  1  0  0  0
 31 32  1  0  0  0
 31 36  1  0  0  0
 32 33  1  0  0  0
 33 34  2  0  0  0
 33 35  1  0  0  0
 35 56  1  0  0  0
 36 37  2  0  0  0
 36 38  1  0  0  0
 38 57  1  0  0  0
 39 40  1  0  0  0
 40 41  2  0  0  0
 40 42  1  0  0  0
 42 43  1  0  0  0
 43 44  1  0  0  0
 43 48  1  0  0  0
 44 45  1  0  0  0
 45 46  2  0  0  0
 45 47  1  0  0  0
 47 58  1  0  0  0
 48 49  2  0  0  0
 48 50  1  0  0  0
 50 59  1  0  0  0
M  END
>  <AUTHOR>
    GENERATED BY OPEN BABEL 2.4.1

>  <CHROM.1>
63.19308532,76.62793477,-84.13065113,18.13386117,93.45658738,-45.47653951
-141.35082085,-52.82130452,-87.75343029,-162.59883669,-175.90292912,-79.40298042
77.86041069,-26.05054938,-20.85185852,174.98662585,-41.39341884,-37.39542907
58.17157353,-169.01611465,-60.88381026,-76.06117547,-72.93921610,-10.35303731
-175.77472775,161.99901659,-67.00605626,-105.72720923,59.32559895,175.33032545
-155.91757219,-29.32977950,45.78348356,153.93128177,-84.19898478,71.99078645
134.18453184,-179.57038300,167.66562251,-8.48051005,-4.14190250,-10.31777395
1.60331982,0.42591094,-1.96292611

>  <COMPND>
    UNNAMED

>  <MASTER>
        0    0    0    0    0    0    0    0  109    0  109    0

>  <Name>
FB1.pdb

>  <RI>
0

>  <Rbt.Current_Directory>
/home/fc/tossine/FB1_39/p3/0_clust04

>  <Rbt.Executable>
rbdock/0.1.0

>  <Rbt.Library>
librxdock.so/0.1.0

>  <Rbt.Parameter_File>
/cluster/rxdock/data/scripts/dock.prm

>  <Rbt.Receptor>
rx_2.prm

>  <SCORE>
52.025

>  <SCORE.INTER>
35.2438

>  <SCORE.INTER.CONST>
1

>  <SCORE.INTER.POLAR>
-2.75374

>  <SCORE.INTER.REPUL>
0.685047

>  <SCORE.INTER.ROT>
32

>  <SCORE.INTER.VDW>
3.78125

>  <SCORE.INTER.norm>
0.704875

>  <SCORE.INTRA>
11.9057

>  <SCORE.INTRA.DIHEDRAL>
19.6473

>  <SCORE.INTRA.DIHEDRAL.0>
47.3121

>  <SCORE.INTRA.POLAR>
0.246988

>  <SCORE.INTRA.POLAR.0>
-1.47808

>  <SCORE.INTRA.REPUL>
0.0164565

>  <SCORE.INTRA.REPUL.0>
0

>  <SCORE.INTRA.VDW>
1.16001

>  <SCORE.INTRA.VDW.0>
-2.78316

>  <SCORE.INTRA.norm>
0.238114

>  <SCORE.RESTR>
4.87553

>  <SCORE.RESTR.CAVITY>
4.87553

>  <SCORE.RESTR.norm>
0.0975106

>  <SCORE.SYSTEM>
0

>  <SCORE.SYSTEM.CONST>
0

>  <SCORE.SYSTEM.DIHEDRAL>
0

>  <SCORE.SYSTEM.norm>
0

>  <SCORE.heavy>
50

>  <SCORE.norm>
1.0405

$$$$
