FB1.pdb
  RxDock  09132003493D
librxdock.so/0.1.0
 59 58  0  0  0  0  0  0  0  0999 V2000
   -2.3509    6.1292   10.8983 C   0  0  0  0  0  0
   -2.0855    7.4523   10.1841 C   0  0  0  0  0  0
   -2.3698    7.3525    8.6763 C   0  0  0  0  0  0
   -1.3383    6.4878    7.9094 C   0  0  0  0  0  0
   -1.4400    4.9453    8.1755 C   0  0  0  0  0  0
   -2.9314    4.5816    8.3598 C   0  0  0  0  0  0
   -0.7768    4.0612    7.0369 C   0  0  0  0  0  0
   -1.5787    3.9359    5.6558 C   0  0  0  0  0  0
   -1.3225    4.8280    4.3648 C   0  0  0  0  0  0
   -2.6664    5.5465    3.7331 C   0  0  0  0  0  0
   -2.5323    7.0591    3.9014 C   0  0  0  0  0  0
   -2.9963    5.2049    2.2102 C   0  0  0  0  0  0
   -2.8459    6.2580    0.9907 C   0  0  0  0  0  0
   -1.7499    6.1070   -0.1193 C   0  0  0  0  0  0
   -1.6907    7.2027   -1.2791 C   0  0  0  0  0  0
   -2.7274    7.2962   -2.4670 C   0  0  0  0  0  0
   -2.2215    7.2154   -3.9316 C   0  0  0  0  0  0
   -3.2700    7.5562   -5.0601 C   0  0  0  0  0  0
   -2.8190    7.3060   -6.5045 C   0  0  0  0  0  0
   -3.6779    7.8975   -7.6581 C   0  0  0  0  0  0
   -3.0679    8.0961   -9.0772 C   0  0  0  0  0  0
   -3.9754    7.7731  -10.2560 C   0  0  0  0  0  0
   -2.4848    9.4443   -9.2146 N   0  0  0  0  0  0
   -4.7538    6.9424   -7.8422 O   0  0  0  0  0  0
   -4.4513    6.7861   -4.8126 O   0  0  0  0  0  0
   -4.1000    6.1944    0.2908 O   0  0  0  0  0  0
   -1.3833    2.5714    5.1948 O   0  0  0  0  0  0
   -2.0710    1.5965    5.8443 C   0  0  0  0  0  0
   -2.4215    1.6171    7.0089 O   0  0  0  0  0  0
   -2.4207    0.5203    4.8540 C   0  0  0  0  0  0
   -3.7345   -0.1978    5.2019 C   0  0  0  0  0  0
   -4.9520    0.4392    4.5197 C   0  0  0  0  0  0
   -4.9846    1.9327    4.7467 C   0  0  0  0  0  0
   -4.2110    2.7176    4.2090 O   0  0  0  0  0  0
   -5.9465    2.3232    5.5959 O   0  0  0  0  0  0
   -3.5628   -1.6463    4.7241 C   0  0  0  0  0  0
   -2.4972   -2.0976    4.3326 O   0  0  0  0  0  0
   -4.6930   -2.3664    4.7245 O   0  0  0  0  0  0
    0.6410    4.4403    6.8222 O   0  0  0  0  0  0
    1.4481    3.5855    6.0901 C   0  0  0  0  0  0
    1.2850    3.3165    4.9071 O   0  0  0  0  0  0
    2.5908    2.9993    6.9297 C   0  0  0  0  0  0
    2.1686    1.9680    8.0219 C   0  0  0  0  0  0
    3.2474    1.0202    8.5772 C   0  0  0  0  0  0
    4.2509    0.6026    7.5414 C   0  0  0  0  0  0
    4.3115    1.0259    6.3952 O   0  0  0  0  0  0
    5.1253   -0.3013    8.0090 O   0  0  0  0  0  0
    1.4377    2.5766    9.2250 C   0  0  0  0  0  0
    0.2662    2.3600    9.4646 O   0  0  0  0  0  0
    2.2093    3.2905   10.0713 O   0  0  0  0  0  0
   -1.8395    9.4504  -10.0033 H   0  0  0  0  0  0
   -1.9020    9.6331   -8.3960 H   0  0  0  0  0  0
   -4.3005    6.0908   -8.0174 H   0  0  0  0  0  0
   -4.8137    7.0542   -3.9482 H   0  0  0  0  0  0
   -4.7435    6.7367    0.7770 H   0  0  0  0  0  0
   -6.3498    1.6089    6.1256 H   0  0  0  0  0  0
   -5.4746   -1.9026    5.1154 H   0  0  0  0  0  0
    4.7894   -0.5916    8.8832 H   0  0  0  0  0  0
    1.7255    3.7551   10.7898 H   0  0  0  0  0  0
  1  2  1  0  0  0
  2  3  1  0  0  0
  3  4  1  0  0  0
  4  5  1  0  0  0
  5  6  1  0  0  0
  5  7  1  0  0  0
  7  8  1  0  0  0
  7 39  1  0  0  0
  8  9  1  0  0  0
  8 27  1  0  0  0
  9 10  1  0  0  0
 10 11  1  0  0  0
 10 12  1  0  0  0
 12 13  1  0  0  0
 13 14  1  0  0  0
 13 26  1  0  0  0
 14 15  1  0  0  0
 15 16  1  0  0  0
 16 17  1  0  0  0
 17 18  1  0  0  0
 18 19  1  0  0  0
 18 25  1  0  0  0
 19 20  1  0  0  0
 20 21  1  0  0  0
 20 24  1  0  0  0
 21 22  1  0  0  0
 21 23  1  0  0  0
 23 51  1  0  0  0
 23 52  1  0  0  0
 24 53  1  0  0  0
 25 54  1  0  0  0
 26 55  1  0  0  0
 27 28  1  0  0  0
 28 29  2  0  0  0
 28 30  1  0  0  0
 30 31  1  0  0  0
 31 32  1  0  0  0
 31 36  1  0  0  0
 32 33  1  0  0  0
 33 34  2  0  0  0
 33 35  1  0  0  0
 35 56  1  0  0  0
 36 37  2  0  0  0
 36 38  1  0  0  0
 38 57  1  0  0  0
 39 40  1  0  0  0
 40 41  2  0  0  0
 40 42  1  0  0  0
 42 43  1  0  0  0
 43 44  1  0  0  0
 43 48  1  0  0  0
 44 45  1  0  0  0
 45 46  2  0  0  0
 45 47  1  0  0  0
 47 58  1  0  0  0
 48 49  2  0  0  0
 48 50  1  0  0  0
 50 59  1  0  0  0
M  END
>  <AUTHOR>
    GENERATED BY OPEN BABEL 2.4.1

>  <CHROM.1>
-70.52420868,71.87517255,35.31766136,-74.55414302,96.03630619,165.75367022
-128.37918965,74.43017390,113.72625738,-109.58201007,111.09107024,179.93678129
80.29420992,-74.13613162,-122.33621095,-170.06337153,-172.60527136,-167.22659627
62.01714888,159.78456521,140.69656151,-56.48627207,161.51798787,-29.23232280
-149.49819047,92.21222625,-50.51340025,9.05750706,72.05138823,14.63439544
-5.74009974,64.23573629,69.99680864,160.66750317,-35.26865518,112.38055868
5.65399638,10.06016169,174.03279464,-1.66160984,4.06908874,3.31424532,-1.22156626
-0.83224626,-0.96436036

>  <COMPND>
    UNNAMED

>  <MASTER>
        0    0    0    0    0    0    0    0  109    0  109    0

>  <Name>
FB1.pdb

>  <RI>
0

>  <Rbt.Current_Directory>
/home/fc/tossine/FB1_39/p3/0_clust04

>  <Rbt.Executable>
rbdock/0.1.0

>  <Rbt.Library>
librxdock.so/0.1.0

>  <Rbt.Parameter_File>
/cluster/rxdock/data/scripts/dock.prm

>  <Rbt.Receptor>
rx_4.prm

>  <SCORE>
56.3882

>  <SCORE.INTER>
9.94725

>  <SCORE.INTER.CONST>
1

>  <SCORE.INTER.POLAR>
-0.881569

>  <SCORE.INTER.REPUL>
1.23545

>  <SCORE.INTER.ROT>
32

>  <SCORE.INTER.VDW>
-30.6327

>  <SCORE.INTER.norm>
0.198945

>  <SCORE.INTRA>
36.9458

>  <SCORE.INTRA.DIHEDRAL>
45.9468

>  <SCORE.INTRA.DIHEDRAL.0>
47.3121

>  <SCORE.INTRA.POLAR>
1.47808

>  <SCORE.INTRA.POLAR.0>
-1.47808

>  <SCORE.INTRA.REPUL>
0

>  <SCORE.INTRA.REPUL.0>
0

>  <SCORE.INTRA.VDW>
8.94698

>  <SCORE.INTRA.VDW.0>
-2.78316

>  <SCORE.INTRA.norm>
0.738917

>  <SCORE.RESTR>
9.49514

>  <SCORE.RESTR.CAVITY>
9.49514

>  <SCORE.RESTR.norm>
0.189903

>  <SCORE.SYSTEM>
0

>  <SCORE.SYSTEM.CONST>
0

>  <SCORE.SYSTEM.DIHEDRAL>
0

>  <SCORE.SYSTEM.norm>
0

>  <SCORE.heavy>
50

>  <SCORE.norm>
1.12776

$$$$
