FB1.pdb
  RxDock  10062021483D
librxdock.so/0.1.0
 59 58  0  0  0  0  0  0  0  0999 V2000
   -2.4775   -5.4238   -8.3880 C   0  0  0  0  0  0
   -1.9825   -4.0488   -7.9459 C   0  0  0  0  0  0
   -2.7245   -3.5519   -6.6941 C   0  0  0  0  0  0
   -4.2400   -3.3275   -6.9230 C   0  0  0  0  0  0
   -4.6152   -1.9443   -7.5603 C   0  0  0  0  0  0
   -3.8189   -1.7838   -8.8759 C   0  0  0  0  0  0
   -6.1714   -1.7650   -7.8136 C   0  0  0  0  0  0
   -6.8617   -2.7831   -8.8397 C   0  0  0  0  0  0
   -6.6716   -4.3617   -8.8298 C   0  0  0  0  0  0
   -5.7518   -4.9632  -10.0601 C   0  0  0  0  0  0
   -5.5998   -6.4702   -9.8601 C   0  0  0  0  0  0
   -6.2758   -4.6699  -11.5380 C   0  0  0  0  0  0
   -7.5788   -5.3698  -12.1946 C   0  0  0  0  0  0
   -7.7003   -6.9225  -12.3689 C   0  0  0  0  0  0
   -6.8030   -7.6321  -13.4826 C   0  0  0  0  0  0
   -6.7967   -7.2275  -15.0093 C   0  0  0  0  0  0
   -8.1435   -7.0034  -15.7465 C   0  0  0  0  0  0
   -9.2645   -6.2312  -14.9488 C   0  0  0  0  0  0
   -9.0945   -4.7109  -14.8380 C   0  0  0  0  0  0
  -10.3700   -3.8220  -14.8724 C   0  0  0  0  0  0
  -10.3083   -2.3318  -14.4242 C   0  0  0  0  0  0
  -11.3486   -1.3990  -15.0283 C   0  0  0  0  0  0
  -10.2961   -2.2256  -12.9528 N   0  0  0  0  0  0
  -10.7498   -3.7778  -16.2715 O   0  0  0  0  0  0
  -10.5214   -6.5037  -15.5778 O   0  0  0  0  0  0
   -8.6693   -5.0024  -11.3329 O   0  0  0  0  0  0
   -8.2957   -2.5925   -8.6986 O   0  0  0  0  0  0
   -8.9965   -2.3232   -9.8306 C   0  0  0  0  0  0
   -8.5773   -2.3937  -10.9702 O   0  0  0  0  0  0
  -10.4187   -2.0183   -9.4487 C   0  0  0  0  0  0
  -11.1735   -3.2587   -8.9444 C   0  0  0  0  0  0
  -10.6768   -4.5554   -9.5964 C   0  0  0  0  0  0
  -11.6389   -5.6938   -9.3477 C   0  0  0  0  0  0
  -12.2025   -6.3135  -10.2433 O   0  0  0  0  0  0
  -11.8192   -5.9665   -8.0470 O   0  0  0  0  0  0
  -10.9370   -3.3089   -7.4286 C   0  0  0  0  0  0
  -11.8236   -3.1235   -6.6088 O   0  0  0  0  0  0
   -9.6627   -3.5251   -7.0745 O   0  0  0  0  0  0
   -6.9157   -1.6783   -6.5335 O   0  0  0  0  0  0
   -6.9901   -2.8086   -5.7367 C   0  0  0  0  0  0
   -6.7873   -3.9507   -6.1275 O   0  0  0  0  0  0
   -7.3594   -2.4761   -4.2849 C   0  0  0  0  0  0
   -8.5833   -3.2494   -3.7032 C   0  0  0  0  0  0
   -8.4218   -3.9346   -2.3340 C   0  0  0  0  0  0
   -7.5136   -5.1294   -2.3795 C   0  0  0  0  0  0
   -6.2923   -5.0954   -2.4423 O   0  0  0  0  0  0
   -8.1873   -6.2885   -2.3240 O   0  0  0  0  0  0
   -9.8845   -2.4391   -3.6535 C   0  0  0  0  0  0
  -10.8739   -2.7388   -4.2922 O   0  0  0  0  0  0
   -9.9002   -1.4222   -2.7663 O   0  0  0  0  0  0
  -10.2040   -1.2455  -12.6893 H   0  0  0  0  0  0
   -9.4476   -2.6740  -12.6000 H   0  0  0  0  0  0
  -10.0255   -3.2818  -16.7082 H   0  0  0  0  0  0
  -10.6923   -5.8019  -16.2326 H   0  0  0  0  0  0
   -9.4942   -5.0851  -11.8400 H   0  0  0  0  0  0
  -12.6380   -6.4536   -7.8330 H   0  0  0  0  0  0
   -9.4987   -3.5026   -6.0991 H   0  0  0  0  0  0
   -9.0555   -6.0899   -1.9140 H   0  0  0  0  0  0
   -9.0236   -1.1730   -2.3980 H   0  0  0  0  0  0
  1  2  1  0  0  0
  2  3  1  0  0  0
  3  4  1  0  0  0
  4  5  1  0  0  0
  5  6  1  0  0  0
  5  7  1  0  0  0
  7  8  1  0  0  0
  7 39  1  0  0  0
  8  9  1  0  0  0
  8 27  1  0  0  0
  9 10  1  0  0  0
 10 11  1  0  0  0
 10 12  1  0  0  0
 12 13  1  0  0  0
 13 14  1  0  0  0
 13 26  1  0  0  0
 14 15  1  0  0  0
 15 16  1  0  0  0
 16 17  1  0  0  0
 17 18  1  0  0  0
 18 19  1  0  0  0
 18 25  1  0  0  0
 19 20  1  0  0  0
 20 21  1  0  0  0
 20 24  1  0  0  0
 21 22  1  0  0  0
 21 23  1  0  0  0
 23 51  1  0  0  0
 23 52  1  0  0  0
 24 53  1  0  0  0
 25 54  1  0  0  0
 26 55  1  0  0  0
 27 28  1  0  0  0
 28 29  2  0  0  0
 28 30  1  0  0  0
 30 31  1  0  0  0
 31 32  1  0  0  0
 31 36  1  0  0  0
 32 33  1  0  0  0
 33 34  2  0  0  0
 33 35  1  0  0  0
 35 56  1  0  0  0
 36 37  2  0  0  0
 36 38  1  0  0  0
 38 57  1  0  0  0
 39 40  1  0  0  0
 40 41  2  0  0  0
 40 42  1  0  0  0
 42 43  1  0  0  0
 43 44  1  0  0  0
 43 48  1  0  0  0
 44 45  1  0  0  0
 45 46  2  0  0  0
 45 47  1  0  0  0
 47 58  1  0  0  0
 48 49  2  0  0  0
 48 50  1  0  0  0
 50 59  1  0  0  0
M  END
>  <AUTHOR>
    GENERATED BY OPEN BABEL 2.4.1

>  <CHROM.1>
-63.72214679,-83.19623998,54.84785138,-62.46382350,47.65196736,-68.31159201
-107.70243192,126.03612052,176.71315558,-71.49849202,-59.53732844,-71.84627097
158.06285644,-55.37474350,-46.20415615,41.09786318,76.63018394,144.34293271
-92.60802947,165.07097177,154.03106852,-66.67965560,176.92698465,10.10897959
-69.85653164,-30.73326712,-166.13011581,112.16912918,120.06920950,159.25791088
176.43253590,-19.01162330,126.53747804,130.43646361,-70.22603631,116.36453623
75.97972316,-22.25638607,13.59697638,-8.21830010,-4.04107974,-9.10170689
-1.38580551,0.12504751,-1.74165745

>  <COMPND>
    UNNAMED

>  <MASTER>
        0    0    0    0    0    0    0    0  109    0  109    0

>  <Name>
FB1.pdb

>  <RI>
0

>  <Rbt.Current_Directory>
/home/fc/tossine/FB1_39/p3/0_clust04

>  <Rbt.Executable>
rbdock/0.1.0

>  <Rbt.Library>
librxdock.so/0.1.0

>  <Rbt.Parameter_File>
/cluster/rxdock/data/scripts/dock.prm

>  <Rbt.Receptor>
rx_2.prm

>  <SCORE>
34.6644

>  <SCORE.INTER>
16.391

>  <SCORE.INTER.CONST>
1

>  <SCORE.INTER.POLAR>
-1.77331

>  <SCORE.INTER.REPUL>
0.0467195

>  <SCORE.INTER.ROT>
32

>  <SCORE.INTER.VDW>
-15.2134

>  <SCORE.INTER.norm>
0.327819

>  <SCORE.INTRA>
14.6108

>  <SCORE.INTRA.DIHEDRAL>
13.6039

>  <SCORE.INTRA.DIHEDRAL.0>
47.3121

>  <SCORE.INTRA.POLAR>
0.436943

>  <SCORE.INTRA.POLAR.0>
-1.47808

>  <SCORE.INTRA.REPUL>
0.671662

>  <SCORE.INTRA.REPUL.0>
0

>  <SCORE.INTRA.VDW>
2.96491

>  <SCORE.INTRA.VDW.0>
-2.78316

>  <SCORE.INTRA.norm>
0.292216

>  <SCORE.RESTR>
3.66268

>  <SCORE.RESTR.CAVITY>
3.66268

>  <SCORE.RESTR.norm>
0.0732535

>  <SCORE.SYSTEM>
0

>  <SCORE.SYSTEM.CONST>
0

>  <SCORE.SYSTEM.DIHEDRAL>
0

>  <SCORE.SYSTEM.norm>
0

>  <SCORE.heavy>
50

>  <SCORE.norm>
0.693288

$$$$
