FB1.pdb
  RxDock  10062022243D
librxdock.so/0.1.0
 59 58  0  0  0  0  0  0  0  0999 V2000
  -10.5745   -1.5002   -3.7075 C   0  0  0  0  0  0
  -10.6527   -2.1709   -5.0770 C   0  0  0  0  0  0
   -9.3968   -1.8933   -5.9195 C   0  0  0  0  0  0
   -8.4829   -3.1322   -6.0924 C   0  0  0  0  0  0
   -7.4238   -3.0174   -7.2437 C   0  0  0  0  0  0
   -6.5308   -1.7872   -6.9612 C   0  0  0  0  0  0
   -6.5453   -4.3258   -7.4287 C   0  0  0  0  0  0
   -5.9414   -4.5941   -8.8880 C   0  0  0  0  0  0
   -6.7412   -4.4343  -10.2529 C   0  0  0  0  0  0
   -6.1977   -5.3725  -11.4961 C   0  0  0  0  0  0
   -6.3295   -6.8395  -11.0904 C   0  0  0  0  0  0
   -6.9009   -5.1432  -12.9095 C   0  0  0  0  0  0
   -8.4987   -4.9888  -13.1139 C   0  0  0  0  0  0
   -9.3062   -3.7762  -12.5362 C   0  0  0  0  0  0
  -10.7955   -4.0343  -12.0218 C   0  0  0  0  0  0
  -11.6350   -2.9988  -11.1747 C   0  0  0  0  0  0
  -11.2608   -2.7431   -9.6908 C   0  0  0  0  0  0
  -11.7149   -1.3627   -9.0765 C   0  0  0  0  0  0
  -13.1097   -0.8666   -9.4775 C   0  0  0  0  0  0
  -13.2302    0.5299  -10.1510 C   0  0  0  0  0  0
  -12.2834    0.9283  -11.3216 C   0  0  0  0  0  0
  -12.2836    2.3966  -11.7235 C   0  0  0  0  0  0
  -10.9102    0.4498  -11.0729 N   0  0  0  0  0  0
  -14.5629    0.5484  -10.7231 O   0  0  0  0  0  0
  -11.6653   -1.4763   -7.6502 O   0  0  0  0  0  0
   -8.6841   -4.9189  -14.5378 O   0  0  0  0  0  0
   -4.8062   -3.6975   -9.0291 O   0  0  0  0  0  0
   -3.5977   -4.1631   -8.6191 C   0  0  0  0  0  0
   -3.3720   -5.2617   -8.1484 O   0  0  0  0  0  0
   -2.5554   -3.1271   -8.9379 C   0  0  0  0  0  0
   -2.1149   -2.3319   -7.6985 C   0  0  0  0  0  0
   -2.0828   -3.1916   -6.4284 C   0  0  0  0  0  0
   -1.5072   -2.4210   -5.2629 C   0  0  0  0  0  0
   -0.4615   -1.7833   -5.3217 O   0  0  0  0  0  0
   -2.2527   -2.4985   -4.1507 O   0  0  0  0  0  0
   -0.7075   -1.8063   -8.0127 C   0  0  0  0  0  0
    0.2280   -2.5367   -8.3024 O   0  0  0  0  0  0
   -0.5741   -0.4780   -7.8950 O   0  0  0  0  0  0
   -5.5091   -4.4288   -6.3725 O   0  0  0  0  0  0
   -5.6685   -5.3857   -5.3840 C   0  0  0  0  0  0
   -5.0054   -6.4107   -5.2937 O   0  0  0  0  0  0
   -6.7826   -5.0222   -4.3937 C   0  0  0  0  0  0
   -6.5835   -3.6877   -3.6100 C   0  0  0  0  0  0
   -7.2616   -3.5483   -2.2349 C   0  0  0  0  0  0
   -6.3026   -3.1687   -1.1437 C   0  0  0  0  0  0
   -5.5446   -3.9328   -0.5622 O   0  0  0  0  0  0
   -6.3381   -1.8572   -0.8627 O   0  0  0  0  0  0
   -5.1203   -3.2610   -3.4388 C   0  0  0  0  0  0
   -4.2727   -3.9872   -2.9583 O   0  0  0  0  0  0
   -4.8038   -2.0558   -3.9571 O   0  0  0  0  0  0
  -10.2678    0.9419  -11.6923 H   0  0  0  0  0  0
  -10.8498   -0.5309  -11.3559 H   0  0  0  0  0  0
  -14.7295    1.4922  -10.9299 H   0  0  0  0  0  0
  -12.4034   -2.0456   -7.3645 H   0  0  0  0  0  0
   -8.0714   -5.5493  -14.9521 H   0  0  0  0  0  0
   -1.8373   -2.1363   -3.3447 H   0  0  0  0  0  0
    0.2985   -0.1249   -8.1993 H   0  0  0  0  0  0
   -6.2214   -1.3839   -1.7134 H   0  0  0  0  0  0
   -3.8415   -1.8662   -4.0213 H   0  0  0  0  0  0
  1  2  1  0  0  0
  2  3  1  0  0  0
  3  4  1  0  0  0
  4  5  1  0  0  0
  5  6  1  0  0  0
  5  7  1  0  0  0
  7  8  1  0  0  0
  7 39  1  0  0  0
  8  9  1  0  0  0
  8 27  1  0  0  0
  9 10  1  0  0  0
 10 11  1  0  0  0
 10 12  1  0  0  0
 12 13  1  0  0  0
 13 14  1  0  0  0
 13 26  1  0  0  0
 14 15  1  0  0  0
 15 16  1  0  0  0
 16 17  1  0  0  0
 17 18  1  0  0  0
 18 19  1  0  0  0
 18 25  1  0  0  0
 19 20  1  0  0  0
 20 21  1  0  0  0
 20 24  1  0  0  0
 21 22  1  0  0  0
 21 23  1  0  0  0
 23 51  1  0  0  0
 23 52  1  0  0  0
 24 53  1  0  0  0
 25 54  1  0  0  0
 26 55  1  0  0  0
 27 28  1  0  0  0
 28 29  2  0  0  0
 28 30  1  0  0  0
 30 31  1  0  0  0
 31 32  1  0  0  0
 31 36  1  0  0  0
 32 33  1  0  0  0
 33 34  2  0  0  0
 33 35  1  0  0  0
 35 56  1  0  0  0
 36 37  2  0  0  0
 36 38  1  0  0  0
 38 57  1  0  0  0
 39 40  1  0  0  0
 40 41  2  0  0  0
 40 42  1  0  0  0
 42 43  1  0  0  0
 43 44  1  0  0  0
 43 48  1  0  0  0
 44 45  1  0  0  0
 45 46  2  0  0  0
 45 47  1  0  0  0
 47 58  1  0  0  0
 48 49  2  0  0  0
 48 50  1  0  0  0
 50 59  1  0  0  0
M  END
>  <AUTHOR>
    GENERATED BY OPEN BABEL 2.4.1

>  <CHROM.1>
108.73245444,163.85748148,58.60735448,153.28137876,-44.27800270,107.82266986
-153.35186398,89.39147113,61.04802522,-44.32577044,65.58382270,-145.24766444
39.40944613,168.02623067,-72.13156031,156.74771090,40.01493601,-122.95028311
-72.27471499,47.27091450,-167.97420707,165.20865877,-163.59592529,0.26575240
103.16061376,35.46064680,173.95305714,-57.64141319,-48.70369755,170.39340875
-173.10007641,107.57098443,-60.33308601,-153.84765758,126.13402318,-53.94397822
-79.77103717,-52.21957743,-167.42104889,-6.87747515,-2.90105459,-7.56787089
2.54300999,0.27846733,-1.69438286

>  <COMPND>
    UNNAMED

>  <MASTER>
        0    0    0    0    0    0    0    0  109    0  109    0

>  <Name>
FB1.pdb

>  <RI>
0

>  <Rbt.Current_Directory>
/home/fc/tossine/FB1_39/p3/0_clust04

>  <Rbt.Executable>
rbdock/0.1.0

>  <Rbt.Library>
librxdock.so/0.1.0

>  <Rbt.Parameter_File>
/cluster/rxdock/data/scripts/dock.prm

>  <Rbt.Receptor>
rx_3.prm

>  <SCORE>
48.3702

>  <SCORE.INTER>
10.6156

>  <SCORE.INTER.CONST>
1

>  <SCORE.INTER.POLAR>
-1.39202

>  <SCORE.INTER.REPUL>
0.505711

>  <SCORE.INTER.ROT>
32

>  <SCORE.INTER.VDW>
-24.58

>  <SCORE.INTER.norm>
0.212313

>  <SCORE.INTRA>
28.8553

>  <SCORE.INTRA.DIHEDRAL>
57.9081

>  <SCORE.INTRA.DIHEDRAL.0>
47.3121

>  <SCORE.INTRA.POLAR>
0.533478

>  <SCORE.INTRA.POLAR.0>
-1.47808

>  <SCORE.INTRA.REPUL>
0.00610733

>  <SCORE.INTRA.REPUL.0>
0

>  <SCORE.INTRA.VDW>
-1.94313

>  <SCORE.INTRA.VDW.0>
-2.78316

>  <SCORE.INTRA.norm>
0.577106

>  <SCORE.RESTR>
8.89922

>  <SCORE.RESTR.CAVITY>
8.89922

>  <SCORE.RESTR.norm>
0.177984

>  <SCORE.SYSTEM>
0

>  <SCORE.SYSTEM.CONST>
0

>  <SCORE.SYSTEM.DIHEDRAL>
0

>  <SCORE.SYSTEM.norm>
0

>  <SCORE.heavy>
50

>  <SCORE.norm>
0.967403

$$$$
