FB1.pdb
  RxDock  10062021023D
librxdock.so/0.1.0
 59 58  0  0  0  0  0  0  0  0999 V2000
   -7.0717   -5.1779  -17.5670 C   0  0  0  0  0  0
   -7.8702   -6.4346  -17.2287 C   0  0  0  0  0  0
   -8.0790   -6.5856  -15.7128 C   0  0  0  0  0  0
   -8.9944   -5.4943  -15.1038 C   0  0  0  0  0  0
   -9.8283   -5.9509  -13.8562 C   0  0  0  0  0  0
  -10.8604   -7.0042  -14.3210 C   0  0  0  0  0  0
   -8.9369   -6.5147  -12.6706 C   0  0  0  0  0  0
   -9.0070   -5.7323  -11.2745 C   0  0  0  0  0  0
   -7.8937   -5.7827  -10.1404 C   0  0  0  0  0  0
   -6.3452   -5.5769  -10.6706 C   0  0  0  0  0  0
   -6.3872   -5.1521  -12.1376 C   0  0  0  0  0  0
   -5.4489   -4.5499   -9.8418 C   0  0  0  0  0  0
   -4.1330   -4.9691   -8.9986 C   0  0  0  0  0  0
   -3.0978   -3.9142   -8.4774 C   0  0  0  0  0  0
   -3.6466   -2.6446   -7.6797 C   0  0  0  0  0  0
   -4.6639   -2.7243   -6.4742 C   0  0  0  0  0  0
   -4.1449   -3.0914   -5.0588 C   0  0  0  0  0  0
   -5.2353   -3.4765   -3.9855 C   0  0  0  0  0  0
   -4.7285   -3.7157   -2.5577 C   0  0  0  0  0  0
   -4.6183   -2.4952   -1.6003 C   0  0  0  0  0  0
   -5.8904   -1.7002   -1.1819 C   0  0  0  0  0  0
   -7.0999   -2.5266   -0.7676 C   0  0  0  0  0  0
   -5.5654   -0.6904   -0.1567 N   0  0  0  0  0  0
   -4.0949   -3.0440   -0.3639 O   0  0  0  0  0  0
   -6.2114   -2.4297   -3.9522 O   0  0  0  0  0  0
   -4.6404   -5.6122   -7.8172 O   0  0  0  0  0  0
   -9.1206   -4.3214  -11.6047 O   0  0  0  0  0  0
  -10.3685   -3.7848  -11.5978 C   0  0  0  0  0  0
  -11.3844   -4.3210  -11.9976 O   0  0  0  0  0  0
  -10.3071   -2.4458  -10.9160 C   0  0  0  0  0  0
  -11.6323   -2.0688  -10.2348 C   0  0  0  0  0  0
  -11.4463   -1.6708   -8.7650 C   0  0  0  0  0  0
  -10.7790   -2.7769   -7.9810 C   0  0  0  0  0  0
  -11.2173   -3.9201   -7.9135 O   0  0  0  0  0  0
   -9.6535   -2.3896   -7.3628 O   0  0  0  0  0  0
  -12.1947   -0.8842  -11.0326 C   0  0  0  0  0  0
  -13.2968   -0.8981  -11.5596 O   0  0  0  0  0  0
  -11.3550    0.1539  -11.1471 O   0  0  0  0  0  0
   -9.1358   -7.9744  -12.4985 O   0  0  0  0  0  0
   -8.2778   -8.8387  -13.1580 C   0  0  0  0  0  0
   -7.1388   -8.5574  -13.5072 O   0  0  0  0  0  0
   -8.9132  -10.2123  -13.4105 C   0  0  0  0  0  0
   -8.5321  -10.8972  -14.7597 C   0  0  0  0  0  0
   -7.0660  -11.3182  -14.9684 C   0  0  0  0  0  0
   -6.8468  -12.0629  -16.2536 C   0  0  0  0  0  0
   -7.2502  -11.7180  -17.3558 O   0  0  0  0  0  0
   -6.1221  -13.1791  -16.0828 O   0  0  0  0  0  0
   -9.4064  -12.1007  -15.1331 C   0  0  0  0  0  0
  -10.1689  -12.0946  -16.0793 O   0  0  0  0  0  0
   -9.1981  -13.2168  -14.4036 O   0  0  0  0  0  0
   -4.6635   -0.2698   -0.3762 H   0  0  0  0  0  0
   -5.4237   -1.1662    0.7371 H   0  0  0  0  0  0
   -4.7286   -3.7514   -0.1203 H   0  0  0  0  0  0
   -5.7577   -1.5980   -3.7219 H   0  0  0  0  0  0
   -3.8997   -6.0633   -7.3787 H   0  0  0  0  0  0
   -9.3792   -1.4685   -7.5354 H   0  0  0  0  0  0
  -11.6625    0.8640  -11.7635 H   0  0  0  0  0  0
   -5.8346  -13.1872  -15.1455 H   0  0  0  0  0  0
   -8.5635  -13.1193  -13.6593 H   0  0  0  0  0  0
  1  2  1  0  0  0
  2  3  1  0  0  0
  3  4  1  0  0  0
  4  5  1  0  0  0
  5  6  1  0  0  0
  5  7  1  0  0  0
  7  8  1  0  0  0
  7 39  1  0  0  0
  8  9  1  0  0  0
  8 27  1  0  0  0
  9 10  1  0  0  0
 10 11  1  0  0  0
 10 12  1  0  0  0
 12 13  1  0  0  0
 13 14  1  0  0  0
 13 26  1  0  0  0
 14 15  1  0  0  0
 15 16  1  0  0  0
 16 17  1  0  0  0
 17 18  1  0  0  0
 18 19  1  0  0  0
 18 25  1  0  0  0
 19 20  1  0  0  0
 20 21  1  0  0  0
 20 24  1  0  0  0
 21 22  1  0  0  0
 21 23  1  0  0  0
 23 51  1  0  0  0
 23 52  1  0  0  0
 24 53  1  0  0  0
 25 54  1  0  0  0
 26 55  1  0  0  0
 27 28  1  0  0  0
 28 29  2  0  0  0
 28 30  1  0  0  0
 30 31  1  0  0  0
 31 32  1  0  0  0
 31 36  1  0  0  0
 32 33  1  0  0  0
 33 34  2  0  0  0
 33 35  1  0  0  0
 35 56  1  0  0  0
 36 37  2  0  0  0
 36 38  1  0  0  0
 38 57  1  0  0  0
 39 40  1  0  0  0
 40 41  2  0  0  0
 40 42  1  0  0  0
 42 43  1  0  0  0
 43 44  1  0  0  0
 43 48  1  0  0  0
 44 45  1  0  0  0
 45 46  2  0  0  0
 45 47  1  0  0  0
 47 58  1  0  0  0
 48 49  2  0  0  0
 48 50  1  0  0  0
 50 59  1  0  0  0
M  END
>  <AUTHOR>
    GENERATED BY OPEN BABEL 2.4.1

>  <CHROM.1>
67.11361167,149.54399146,-67.02504119,118.77544212,-158.17108120,92.94792267
47.09240143,97.43247159,9.27283045,115.19190617,165.47285168,49.82622999
167.06866588,49.51930428,80.02541553,-166.35494280,-174.70112658,87.69622688
-59.00562045,63.33215352,45.46808992,-56.05558900,38.91351100,-39.21931903
-151.49657990,127.83096403,-57.02124513,122.58456613,-56.22321234,-3.41021547
171.87339872,25.15464968,143.74510732,65.38483535,175.37847422,112.47861056
48.35635519,-5.40216458,5.03532870,-7.89903484,-5.49076459,-10.34905176,1.80217978
0.73322086,-2.29272256

>  <COMPND>
    UNNAMED

>  <MASTER>
        0    0    0    0    0    0    0    0  109    0  109    0

>  <Name>
FB1.pdb

>  <RI>
0

>  <Rbt.Current_Directory>
/home/fc/tossine/FB1_39/p3/0_clust04

>  <Rbt.Executable>
rbdock/0.1.0

>  <Rbt.Library>
librxdock.so/0.1.0

>  <Rbt.Parameter_File>
/cluster/rxdock/data/scripts/dock.prm

>  <Rbt.Receptor>
rx_1.prm

>  <SCORE>
16.1825

>  <SCORE.INTER>
-8.19128

>  <SCORE.INTER.CONST>
1

>  <SCORE.INTER.POLAR>
-4.25905

>  <SCORE.INTER.REPUL>
0.587103

>  <SCORE.INTER.ROT>
32

>  <SCORE.INTER.VDW>
-34.046

>  <SCORE.INTER.norm>
-0.163826

>  <SCORE.INTRA>
23.7469

>  <SCORE.INTRA.DIHEDRAL>
26.2192

>  <SCORE.INTRA.DIHEDRAL.0>
47.3121

>  <SCORE.INTRA.POLAR>
1.47808

>  <SCORE.INTRA.POLAR.0>
-1.47808

>  <SCORE.INTRA.REPUL>
0

>  <SCORE.INTRA.REPUL.0>
0

>  <SCORE.INTRA.VDW>
5.61183

>  <SCORE.INTRA.VDW.0>
-2.78316

>  <SCORE.INTRA.norm>
0.474938

>  <SCORE.RESTR>
0.626833

>  <SCORE.RESTR.CAVITY>
0.626833

>  <SCORE.RESTR.norm>
0.0125367

>  <SCORE.SYSTEM>
0

>  <SCORE.SYSTEM.CONST>
0

>  <SCORE.SYSTEM.DIHEDRAL>
0

>  <SCORE.SYSTEM.norm>
0

>  <SCORE.heavy>
50

>  <SCORE.norm>
0.323649

$$$$
