FB1.pdb
  RxDock  10062023003D
librxdock.so/0.1.0
 59 58  0  0  0  0  0  0  0  0999 V2000
   -3.9801   -2.7936    0.1275 C   0  0  0  0  0  0
   -5.1484   -1.8223   -0.0232 C   0  0  0  0  0  0
   -5.8968   -2.0333   -1.3498 C   0  0  0  0  0  0
   -6.9773   -3.1411   -1.2799 C   0  0  0  0  0  0
   -7.4030   -3.7384   -2.6664 C   0  0  0  0  0  0
   -8.4706   -4.8289   -2.4181 C   0  0  0  0  0  0
   -7.9332   -2.6478   -3.6898 C   0  0  0  0  0  0
   -7.0882   -2.4438   -5.0354 C   0  0  0  0  0  0
   -7.4335   -1.3990   -6.1831 C   0  0  0  0  0  0
   -6.3558   -1.3494   -7.4311 C   0  0  0  0  0  0
   -5.1758   -0.4711   -7.0184 C   0  0  0  0  0  0
   -5.8178   -2.7579   -7.9519 C   0  0  0  0  0  0
   -4.3003   -3.0229   -8.4476 C   0  0  0  0  0  0
   -3.8460   -4.3876   -9.0700 C   0  0  0  0  0  0
   -4.8721   -5.1702  -10.0101 C   0  0  0  0  0  0
   -6.4432   -5.0416   -9.9116 C   0  0  0  0  0  0
   -7.3415   -5.9517  -10.7904 C   0  0  0  0  0  0
   -7.6874   -5.4186  -12.2345 C   0  0  0  0  0  0
   -8.5720   -4.1675  -12.3031 C   0  0  0  0  0  0
   -9.2753   -3.6895  -11.0011 C   0  0  0  0  0  0
   -9.9249   -2.2761  -10.9257 C   0  0  0  0  0  0
   -8.9727   -1.0894  -10.9736 C   0  0  0  0  0  0
  -10.9944   -2.1350  -11.9321 N   0  0  0  0  0  0
  -10.3738   -4.6181  -10.8146 O   0  0  0  0  0  0
   -6.4557   -5.1423  -12.9101 O   0  0  0  0  0  0
   -4.0721   -2.0464   -9.4776 O   0  0  0  0  0  0
   -5.7413   -2.0895   -4.6196 O   0  0  0  0  0  0
   -4.8603   -3.1092   -4.4483 C   0  0  0  0  0  0
   -4.0044   -3.1835   -3.5874 O   0  0  0  0  0  0
   -5.1835   -4.1896   -5.4432 C   0  0  0  0  0  0
   -4.0927   -5.2700   -5.5166 C   0  0  0  0  0  0
   -4.0400   -6.1399   -4.2541 C   0  0  0  0  0  0
   -2.6391   -6.6454   -3.9986 C   0  0  0  0  0  0
   -1.6274   -6.0358   -4.3281 O   0  0  0  0  0  0
   -2.6047   -7.8306   -3.3718 O   0  0  0  0  0  0
   -4.4374   -6.1353   -6.7366 C   0  0  0  0  0  0
   -5.4944   -6.0434   -7.3422 O   0  0  0  0  0  0
   -3.5008   -7.0390   -7.0561 O   0  0  0  0  0  0
   -9.3791   -2.8305   -3.9656 O   0  0  0  0  0  0
  -10.0617   -1.8104   -4.6070 C   0  0  0  0  0  0
   -9.5868   -0.7136   -4.8717 O   0  0  0  0  0  0
  -11.5024   -2.2034   -4.9595 C   0  0  0  0  0  0
  -12.2755   -1.1984   -5.8688 C   0  0  0  0  0  0
  -12.2034   -1.3995   -7.3935 C   0  0  0  0  0  0
  -11.1747   -2.4135   -7.8035 C   0  0  0  0  0  0
  -11.3855   -3.4100   -8.4810 O   0  0  0  0  0  0
   -9.9467   -2.1078   -7.3576 O   0  0  0  0  0  0
  -13.7545   -1.0174   -5.5053 C   0  0  0  0  0  0
  -14.6203   -0.8282   -6.3367 O   0  0  0  0  0  0
  -14.0557   -1.1886   -4.2010 O   0  0  0  0  0  0
  -10.7704   -2.7130  -12.7409 H   0  0  0  0  0  0
  -10.9871   -1.1751  -12.2841 H   0  0  0  0  0  0
  -10.9466   -4.4834  -11.5989 H   0  0  0  0  0  0
   -6.5496   -5.4206  -13.8397 H   0  0  0  0  0  0
   -3.1136   -1.9831   -9.6249 H   0  0  0  0  0  0
   -3.2960   -8.4651   -3.6421 H   0  0  0  0  0  0
   -2.8927   -7.2793   -6.3137 H   0  0  0  0  0  0
   -9.5095   -1.5928   -8.0683 H   0  0  0  0  0  0
  -13.2831   -1.2494   -3.5963 H   0  0  0  0  0  0
  1  2  1  0  0  0
  2  3  1  0  0  0
  3  4  1  0  0  0
  4  5  1  0  0  0
  5  6  1  0  0  0
  5  7  1  0  0  0
  7  8  1  0  0  0
  7 39  1  0  0  0
  8  9  1  0  0  0
  8 27  1  0  0  0
  9 10  1  0  0  0
 10 11  1  0  0  0
 10 12  1  0  0  0
 12 13  1  0  0  0
 13 14  1  0  0  0
 13 26  1  0  0  0
 14 15  1  0  0  0
 15 16  1  0  0  0
 16 17  1  0  0  0
 17 18  1  0  0  0
 18 19  1  0  0  0
 18 25  1  0  0  0
 19 20  1  0  0  0
 20 21  1  0  0  0
 20 24  1  0  0  0
 21 22  1  0  0  0
 21 23  1  0  0  0
 23 51  1  0  0  0
 23 52  1  0  0  0
 24 53  1  0  0  0
 25 54  1  0  0  0
 26 55  1  0  0  0
 27 28  1  0  0  0
 28 29  2  0  0  0
 28 30  1  0  0  0
 30 31  1  0  0  0
 31 32  1  0  0  0
 31 36  1  0  0  0
 32 33  1  0  0  0
 33 34  2  0  0  0
 33 35  1  0  0  0
 35 56  1  0  0  0
 36 37  2  0  0  0
 36 38  1  0  0  0
 38 57  1  0  0  0
 39 40  1  0  0  0
 40 41  2  0  0  0
 40 42  1  0  0  0
 42 43  1  0  0  0
 43 44  1  0  0  0
 43 48  1  0  0  0
 44 45  1  0  0  0
 45 46  2  0  0  0
 45 47  1  0  0  0
 47 58  1  0  0  0
 48 49  2  0  0  0
 48 50  1  0  0  0
 50 59  1  0  0  0
M  END
>  <AUTHOR>
    GENERATED BY OPEN BABEL 2.4.1

>  <CHROM.1>
85.06387168,-159.48599775,179.56077219,116.91337922,-179.36922922,166.59842417
177.34406234,90.91489490,-81.99530808,-142.83327379,-174.46989999,36.63869308
163.50148060,-26.57030465,-174.30879383,-87.65202128,-66.69170021,-11.55858282
140.88590599,166.63715553,-67.45033704,-62.86034558,-30.37477808,-142.66053665
169.20189374,69.98248803,-150.09289430,-10.03365559,29.80877261,37.76804081
21.99067268,-6.24967404,-171.24509113,90.93930789,-10.54530738,-145.09297998
124.07396572,-92.51850439,10.60699346,-7.37732966,-3.38164038,-6.58711186
0.57520427,-0.42578685,1.39276720

>  <COMPND>
    UNNAMED

>  <MASTER>
        0    0    0    0    0    0    0    0  109    0  109    0

>  <Name>
FB1.pdb

>  <RI>
0

>  <Rbt.Current_Directory>
/home/fc/tossine/FB1_39/p3/0_clust04

>  <Rbt.Executable>
rbdock/0.1.0

>  <Rbt.Library>
librxdock.so/0.1.0

>  <Rbt.Parameter_File>
/cluster/rxdock/data/scripts/dock.prm

>  <Rbt.Receptor>
rx_4.prm

>  <SCORE>
77.048

>  <SCORE.INTER>
28.8118

>  <SCORE.INTER.CONST>
1

>  <SCORE.INTER.POLAR>
-3.107

>  <SCORE.INTER.REPUL>
0.426469

>  <SCORE.INTER.ROT>
32

>  <SCORE.INTER.VDW>
-0.156754

>  <SCORE.INTER.norm>
0.576236

>  <SCORE.INTRA>
43.1966

>  <SCORE.INTRA.DIHEDRAL>
58.2397

>  <SCORE.INTRA.DIHEDRAL.0>
47.3121

>  <SCORE.INTRA.POLAR>
1.45217

>  <SCORE.INTRA.POLAR.0>
-1.47808

>  <SCORE.INTRA.REPUL>
0

>  <SCORE.INTRA.REPUL.0>
0

>  <SCORE.INTRA.VDW>
9.13932

>  <SCORE.INTRA.VDW.0>
-2.78316

>  <SCORE.INTRA.norm>
0.863931

>  <SCORE.RESTR>
5.0397

>  <SCORE.RESTR.CAVITY>
5.0397

>  <SCORE.RESTR.norm>
0.100794

>  <SCORE.SYSTEM>
0

>  <SCORE.SYSTEM.CONST>
0

>  <SCORE.SYSTEM.DIHEDRAL>
0

>  <SCORE.SYSTEM.norm>
0

>  <SCORE.heavy>
50

>  <SCORE.norm>
1.54096

$$$$
