FB1.pdb
  RxDock  10062021063D
librxdock.so/0.1.0
 59 58  0  0  0  0  0  0  0  0999 V2000
  -11.6397   -5.9021  -10.9949 C   0  0  0  0  0  0
  -11.0289   -4.6432  -10.3839 C   0  0  0  0  0  0
  -10.9372   -4.7406   -8.8521 C   0  0  0  0  0  0
  -10.2022   -3.5430   -8.2001 C   0  0  0  0  0  0
   -8.6549   -3.4986   -8.4540 C   0  0  0  0  0  0
   -7.9673   -2.9755   -7.1717 C   0  0  0  0  0  0
   -8.0453   -4.8955   -8.8953 C   0  0  0  0  0  0
   -7.7925   -5.1146  -10.4619 C   0  0  0  0  0  0
   -8.2744   -6.3779  -11.2987 C   0  0  0  0  0  0
   -7.1638   -6.9788  -12.3602 C   0  0  0  0  0  0
   -5.8893   -7.3176  -11.5889 C   0  0  0  0  0  0
   -7.6227   -8.2438  -13.2169 C   0  0  0  0  0  0
   -8.4036   -8.1473  -14.6310 C   0  0  0  0  0  0
   -8.6609   -6.7826  -15.3573 C   0  0  0  0  0  0
   -9.6512   -6.7661  -16.6096 C   0  0  0  0  0  0
   -9.3568   -7.4849  -17.9848 C   0  0  0  0  0  0
   -8.8204   -8.9408  -17.9872 C   0  0  0  0  0  0
   -9.8860  -10.0856  -17.7793 C   0  0  0  0  0  0
   -9.3667  -11.3950  -17.1723 C   0  0  0  0  0  0
   -7.8428  -11.6931  -17.2559 C   0  0  0  0  0  0
   -7.2943  -13.1114  -16.9199 C   0  0  0  0  0  0
   -5.7837  -13.2873  -16.9882 C   0  0  0  0  0  0
   -7.8225  -13.5865  -15.6270 N   0  0  0  0  0  0
   -7.5022  -11.4792  -18.6495 O   0  0  0  0  0  0
  -10.9249   -9.5745  -16.9372 O   0  0  0  0  0  0
   -7.6053   -8.9153  -15.5471 O   0  0  0  0  0  0
   -8.4062   -3.9819  -11.1349 O   0  0  0  0  0  0
   -8.0815   -3.7898  -12.4398 C   0  0  0  0  0  0
   -7.4031   -4.5279  -13.1286 O   0  0  0  0  0  0
   -8.7871   -2.5552  -12.9291 C   0  0  0  0  0  0
  -10.2968   -2.5851  -12.6416 C   0  0  0  0  0  0
  -10.7293   -1.4950  -11.6527 C   0  0  0  0  0  0
  -12.2211   -1.5352  -11.4154 C   0  0  0  0  0  0
  -12.7471   -2.1757  -10.5116 O   0  0  0  0  0  0
  -12.9214   -0.7984  -12.2903 O   0  0  0  0  0  0
  -10.9882   -2.3709  -13.9951 C   0  0  0  0  0  0
  -11.3791   -1.2789  -14.3789 O   0  0  0  0  0  0
  -11.1741   -3.4923  -14.7048 O   0  0  0  0  0  0
   -6.8489   -5.2368   -8.0877 O   0  0  0  0  0  0
   -5.6561   -4.5932   -8.3724 C   0  0  0  0  0  0
   -5.5613   -3.5525   -9.0098 O   0  0  0  0  0  0
   -4.4417   -5.3323   -7.7952 C   0  0  0  0  0  0
   -4.4169   -5.4852   -6.2426 C   0  0  0  0  0  0
   -5.6838   -5.0993   -5.4575 C   0  0  0  0  0  0
   -5.7093   -3.6516   -5.0598 C   0  0  0  0  0  0
   -5.1533   -2.7385   -5.6544 O   0  0  0  0  0  0
   -6.4428   -3.4351   -3.9574 O   0  0  0  0  0  0
   -3.9794   -6.8684   -5.7450 C   0  0  0  0  0  0
   -3.7114   -7.7857   -6.4955 O   0  0  0  0  0  0
   -3.8054   -6.9759   -4.4110 O   0  0  0  0  0  0
   -7.0433  -13.8248  -15.0150 H   0  0  0  0  0  0
   -8.3165  -14.4685  -15.7802 H   0  0  0  0  0  0
   -6.5334  -11.6238  -18.6917 H   0  0  0  0  0  0
  -11.4354   -8.9192  -17.4476 H   0  0  0  0  0  0
   -6.7515   -8.4635  -15.6538 H   0  0  0  0  0  0
  -13.8827   -0.7560  -12.1239 H   0  0  0  0  0  0
  -11.6963   -3.3697  -15.5361 H   0  0  0  0  0  0
   -6.8482   -4.2946   -3.7159 H   0  0  0  0  0  0
   -3.6669   -7.8903   -4.0782 H   0  0  0  0  0  0
  1  2  1  0  0  0
  2  3  1  0  0  0
  3  4  1  0  0  0
  4  5  1  0  0  0
  5  6  1  0  0  0
  5  7  1  0  0  0
  7  8  1  0  0  0
  7 39  1  0  0  0
  8  9  1  0  0  0
  8 27  1  0  0  0
  9 10  1  0  0  0
 10 11  1  0  0  0
 10 12  1  0  0  0
 12 13  1  0  0  0
 13 14  1  0  0  0
 13 26  1  0  0  0
 14 15  1  0  0  0
 15 16  1  0  0  0
 16 17  1  0  0  0
 17 18  1  0  0  0
 18 19  1  0  0  0
 18 25  1  0  0  0
 19 20  1  0  0  0
 20 21  1  0  0  0
 20 24  1  0  0  0
 21 22  1  0  0  0
 21 23  1  0  0  0
 23 51  1  0  0  0
 23 52  1  0  0  0
 24 53  1  0  0  0
 25 54  1  0  0  0
 26 55  1  0  0  0
 27 28  1  0  0  0
 28 29  2  0  0  0
 28 30  1  0  0  0
 30 31  1  0  0  0
 31 32  1  0  0  0
 31 36  1  0  0  0
 32 33  1  0  0  0
 33 34  2  0  0  0
 33 35  1  0  0  0
 35 56  1  0  0  0
 36 37  2  0  0  0
 36 38  1  0  0  0
 38 57  1  0  0  0
 39 40  1  0  0  0
 40 41  2  0  0  0
 40 42  1  0  0  0
 42 43  1  0  0  0
 43 44  1  0  0  0
 43 48  1  0  0  0
 44 45  1  0  0  0
 45 46  2  0  0  0
 45 47  1  0  0  0
 47 58  1  0  0  0
 48 49  2  0  0  0
 48 50  1  0  0  0
 50 59  1  0  0  0
M  END
>  <AUTHOR>
    GENERATED BY OPEN BABEL 2.4.1

>  <CHROM.1>
174.56317474,-70.88210621,-143.18898516,99.10356444,-130.00340619,-76.40204658
-136.96266784,166.24578838,56.26403846,87.57080346,6.00153407,-169.63393106
-65.58075163,-66.49724655,45.94174309,80.33224119,-153.78059154,-20.40091439
70.65731257,-167.78688757,-178.07240337,177.26758690,-124.11453022,5.72164338
-52.03836709,114.87017855,178.82503111,-96.27625369,91.86759754,-175.96115372
174.38837499,18.15507442,-61.18097671,9.59463099,-88.95789328,-2.08808306
27.59963328,-4.27695197,170.62051238,-8.22088815,-5.95530744,-11.71016725
1.33991654,-0.80961631,0.86240572

>  <COMPND>
    UNNAMED

>  <MASTER>
        0    0    0    0    0    0    0    0  109    0  109    0

>  <Name>
FB1.pdb

>  <RI>
0

>  <Rbt.Current_Directory>
/home/fc/tossine/FB1_39/p3/0_clust04

>  <Rbt.Executable>
rbdock/0.1.0

>  <Rbt.Library>
librxdock.so/0.1.0

>  <Rbt.Parameter_File>
/cluster/rxdock/data/scripts/dock.prm

>  <Rbt.Receptor>
rx_1.prm

>  <SCORE>
16.8108

>  <SCORE.INTER>
-3.82565

>  <SCORE.INTER.CONST>
1

>  <SCORE.INTER.POLAR>
-3.66989

>  <SCORE.INTER.REPUL>
0.0432369

>  <SCORE.INTER.ROT>
32

>  <SCORE.INTER.VDW>
-28.9642

>  <SCORE.INTER.norm>
-0.0765131

>  <SCORE.INTRA>
20.5852

>  <SCORE.INTRA.DIHEDRAL>
20.8292

>  <SCORE.INTRA.DIHEDRAL.0>
47.3121

>  <SCORE.INTRA.POLAR>
1.47808

>  <SCORE.INTRA.POLAR.0>
-1.47808

>  <SCORE.INTRA.REPUL>
0

>  <SCORE.INTRA.REPUL.0>
0

>  <SCORE.INTRA.VDW>
5.14515

>  <SCORE.INTRA.VDW.0>
-2.78316

>  <SCORE.INTRA.norm>
0.411705

>  <SCORE.RESTR>
0.0512359

>  <SCORE.RESTR.CAVITY>
0.0512359

>  <SCORE.RESTR.norm>
0.00102472

>  <SCORE.SYSTEM>
0

>  <SCORE.SYSTEM.CONST>
0

>  <SCORE.SYSTEM.DIHEDRAL>
0

>  <SCORE.SYSTEM.norm>
0

>  <SCORE.heavy>
50

>  <SCORE.norm>
0.336216

$$$$
