FB1.pdb
  RxDock  10062021033D
librxdock.so/0.1.0
 59 58  0  0  0  0  0  0  0  0999 V2000
   -9.9580  -12.2732  -14.4780 C   0  0  0  0  0  0
  -11.0799  -11.3192  -14.0747 C   0  0  0  0  0  0
  -10.5768   -9.8722  -13.9426 C   0  0  0  0  0  0
  -10.6156   -9.0809  -15.2738 C   0  0  0  0  0  0
   -9.4537   -9.4118  -16.2742 C   0  0  0  0  0  0
   -9.8427   -8.8662  -17.6677 C   0  0  0  0  0  0
   -8.0436   -8.8460  -15.8166 C   0  0  0  0  0  0
   -7.9306   -7.2619  -15.6074 C   0  0  0  0  0  0
   -7.2716   -6.5501  -14.3475 C   0  0  0  0  0  0
   -7.7911   -7.1008  -12.8818 C   0  0  0  0  0  0
   -6.7706   -6.6924  -11.8207 C   0  0  0  0  0  0
   -9.2480   -6.6326  -12.4310 C   0  0  0  0  0  0
   -9.5314   -5.4536  -11.3595 C   0  0  0  0  0  0
   -8.7500   -4.0952  -11.3787 C   0  0  0  0  0  0
   -8.6869   -3.2387  -10.0328 C   0  0  0  0  0  0
   -8.4810   -3.8577   -8.5944 C   0  0  0  0  0  0
   -7.9900   -2.9510   -7.4349 C   0  0  0  0  0  0
   -6.5521   -2.3211   -7.5923 C   0  0  0  0  0  0
   -5.9069   -1.7729   -6.3133 C   0  0  0  0  0  0
   -6.0122   -2.6195   -5.0131 C   0  0  0  0  0  0
   -5.8644   -4.1690   -5.0635 C   0  0  0  0  0  0
   -4.4854   -4.7068   -5.4190 C   0  0  0  0  0  0
   -6.3666   -4.7855   -3.8209 N   0  0  0  0  0  0
   -4.9101   -2.1638   -4.1875 O   0  0  0  0  0  0
   -5.6895   -3.3216   -8.1440 O   0  0  0  0  0  0
  -10.9096   -5.0966  -11.5588 O   0  0  0  0  0  0
   -7.1770   -6.7549  -16.7421 O   0  0  0  0  0  0
   -7.4652   -5.4951  -17.1606 C   0  0  0  0  0  0
   -6.7449   -4.7758  -17.8264 O   0  0  0  0  0  0
   -8.8740   -5.1674  -16.7493 C   0  0  0  0  0  0
   -9.9228   -5.8159  -17.6669 C   0  0  0  0  0  0
  -11.3551   -5.6222  -17.1527 C   0  0  0  0  0  0
  -11.5496   -6.2965  -15.8144 C   0  0  0  0  0  0
  -10.8692   -6.0487  -14.8248 O   0  0  0  0  0  0
  -12.5441   -7.1964  -15.8090 O   0  0  0  0  0  0
   -9.7605   -5.1410  -19.0359 C   0  0  0  0  0  0
   -9.4001   -5.7414  -20.0369 O   0  0  0  0  0  0
   -9.9999   -3.8224  -19.0344 O   0  0  0  0  0  0
   -7.5175   -9.5980  -14.6515 O   0  0  0  0  0  0
   -7.0932  -10.9020  -14.8457 C   0  0  0  0  0  0
   -6.8630  -11.7005  -13.9470 O   0  0  0  0  0  0
   -6.9387  -11.2504  -16.3320 C   0  0  0  0  0  0
   -7.6254  -12.5737  -16.7924 C   0  0  0  0  0  0
   -8.2588  -12.6098  -18.1953 C   0  0  0  0  0  0
   -7.5586  -11.7163  -19.1781 C   0  0  0  0  0  0
   -7.4715  -10.4986  -19.0991 O   0  0  0  0  0  0
   -6.9964  -12.4020  -20.1850 O   0  0  0  0  0  0
   -6.7507  -13.8263  -16.6580 C   0  0  0  0  0  0
   -7.0829  -14.9129  -17.0888 O   0  0  0  0  0  0
   -5.5292  -13.6250  -16.1206 O   0  0  0  0  0  0
   -6.5060   -5.7831   -3.9755 H   0  0  0  0  0  0
   -7.3001   -4.4160   -3.6271 H   0  0  0  0  0  0
   -5.0805   -1.2075   -4.0545 H   0  0  0  0  0  0
   -4.8179   -2.9160   -8.3062 H   0  0  0  0  0  0
  -11.4526   -5.8828  -11.3814 H   0  0  0  0  0  0
  -13.0031   -7.3151  -16.6626 H   0  0  0  0  0  0
  -10.3007   -3.4613  -18.1638 H   0  0  0  0  0  0
   -6.4587  -11.7610  -20.6962 H   0  0  0  0  0  0
   -5.3801  -12.7309  -15.7405 H   0  0  0  0  0  0
  1  2  1  0  0  0
  2  3  1  0  0  0
  3  4  1  0  0  0
  4  5  1  0  0  0
  5  6  1  0  0  0
  5  7  1  0  0  0
  7  8  1  0  0  0
  7 39  1  0  0  0
  8  9  1  0  0  0
  8 27  1  0  0  0
  9 10  1  0  0  0
 10 11  1  0  0  0
 10 12  1  0  0  0
 12 13  1  0  0  0
 13 14  1  0  0  0
 13 26  1  0  0  0
 14 15  1  0  0  0
 15 16  1  0  0  0
 16 17  1  0  0  0
 17 18  1  0  0  0
 18 19  1  0  0  0
 18 25  1  0  0  0
 19 20  1  0  0  0
 20 21  1  0  0  0
 20 24  1  0  0  0
 21 22  1  0  0  0
 21 23  1  0  0  0
 23 51  1  0  0  0
 23 52  1  0  0  0
 24 53  1  0  0  0
 25 54  1  0  0  0
 26 55  1  0  0  0
 27 28  1  0  0  0
 28 29  2  0  0  0
 28 30  1  0  0  0
 30 31  1  0  0  0
 31 32  1  0  0  0
 31 36  1  0  0  0
 32 33  1  0  0  0
 33 34  2  0  0  0
 33 35  1  0  0  0
 35 56  1  0  0  0
 36 37  2  0  0  0
 36 38  1  0  0  0
 38 57  1  0  0  0
 39 40  1  0  0  0
 40 41  2  0  0  0
 40 42  1  0  0  0
 42 43  1  0  0  0
 43 44  1  0  0  0
 43 48  1  0  0  0
 44 45  1  0  0  0
 45 46  2  0  0  0
 45 47  1  0  0  0
 47 58  1  0  0  0
 48 49  2  0  0  0
 48 50  1  0  0  0
 50 59  1  0  0  0
M  END
>  <AUTHOR>
    GENERATED BY OPEN BABEL 2.4.1

>  <CHROM.1>
87.51043708,-77.56025763,164.26016734,-59.04502096,132.83800393,70.36085692
-49.57446106,149.22173894,161.03588808,-101.88365097,43.71808590,-157.75760033
60.65918776,40.57386536,160.64166047,-63.36850988,-163.02692212,43.51042265
175.73299577,39.68441244,67.88049187,59.89592423,164.13413056,159.31018923
-77.86330393,173.13690686,-62.99747439,115.36749622,57.13847853,1.03836952
-3.33824987,-166.55578765,-130.38853838,143.90243726,30.48627570,-172.72476700
-63.01062641,-171.90334516,9.37321995,-8.18685838,-7.35376592,-13.81540163
-1.89215342,-1.12331621,0.70878579

>  <COMPND>
    UNNAMED

>  <MASTER>
        0    0    0    0    0    0    0    0  109    0  109    0

>  <Name>
FB1.pdb

>  <RI>
0

>  <Rbt.Current_Directory>
/home/fc/tossine/FB1_39/p3/0_clust04

>  <Rbt.Executable>
rbdock/0.1.0

>  <Rbt.Library>
librxdock.so/0.1.0

>  <Rbt.Parameter_File>
/cluster/rxdock/data/scripts/dock.prm

>  <Rbt.Receptor>
rx_1.prm

>  <SCORE>
20.7538

>  <SCORE.INTER>
-1.39992

>  <SCORE.INTER.CONST>
1

>  <SCORE.INTER.POLAR>
-2.77143

>  <SCORE.INTER.REPUL>
0.636526

>  <SCORE.INTER.ROT>
32

>  <SCORE.INTER.VDW>
-32.5597

>  <SCORE.INTER.norm>
-0.0279983

>  <SCORE.INTRA>
18.4608

>  <SCORE.INTRA.DIHEDRAL>
9.58897

>  <SCORE.INTRA.DIHEDRAL.0>
47.3121

>  <SCORE.INTRA.POLAR>
1.47808

>  <SCORE.INTRA.POLAR.0>
-1.47808

>  <SCORE.INTRA.REPUL>
0

>  <SCORE.INTRA.REPUL.0>
0

>  <SCORE.INTRA.VDW>
8.64083

>  <SCORE.INTRA.VDW.0>
-2.78316

>  <SCORE.INTRA.norm>
0.369215

>  <SCORE.RESTR>
3.69295

>  <SCORE.RESTR.CAVITY>
3.69295

>  <SCORE.RESTR.norm>
0.073859

>  <SCORE.SYSTEM>
0

>  <SCORE.SYSTEM.CONST>
0

>  <SCORE.SYSTEM.DIHEDRAL>
0

>  <SCORE.SYSTEM.norm>
0

>  <SCORE.heavy>
50

>  <SCORE.norm>
0.415076

$$$$
