FB1.pdb
  RxDock  10062022593D
librxdock.so/0.1.0
 59 58  0  0  0  0  0  0  0  0999 V2000
   -2.1670   -8.1598   -3.0692 C   0  0  0  0  0  0
   -1.4352   -6.8277   -3.2155 C   0  0  0  0  0  0
   -1.3751   -6.3691   -4.6819 C   0  0  0  0  0  0
   -2.6630   -5.6517   -5.1579 C   0  0  0  0  0  0
   -3.3585   -6.2996   -6.4057 C   0  0  0  0  0  0
   -3.5198   -7.8141   -6.1397 C   0  0  0  0  0  0
   -4.7531   -5.6356   -6.7691 C   0  0  0  0  0  0
   -5.0242   -4.1614   -6.2038 C   0  0  0  0  0  0
   -5.6633   -2.9659   -7.0348 C   0  0  0  0  0  0
   -6.6735   -1.9812   -6.1797 C   0  0  0  0  0  0
   -6.7262   -0.6207   -6.8728 C   0  0  0  0  0  0
   -8.1564   -2.5230   -5.9513 C   0  0  0  0  0  0
   -9.0305   -3.2800   -7.0833 C   0  0  0  0  0  0
  -10.5227   -2.9058   -7.3824 C   0  0  0  0  0  0
  -10.8608   -1.3953   -7.7740 C   0  0  0  0  0  0
  -12.3251   -0.8247   -7.9319 C   0  0  0  0  0  0
  -13.1112   -0.3768   -6.6714 C   0  0  0  0  0  0
  -12.5522    0.8817   -5.9015 C   0  0  0  0  0  0
  -12.6155    0.8246   -4.3701 C   0  0  0  0  0  0
  -11.5384   -0.0078   -3.6182 C   0  0  0  0  0  0
  -11.0436   -1.3671   -4.1950 C   0  0  0  0  0  0
   -9.9740   -2.0946   -3.3925 C   0  0  0  0  0  0
  -12.1816   -2.2593   -4.4873 N   0  0  0  0  0  0
  -10.3633    0.8423   -3.5999 O   0  0  0  0  0  0
  -11.1881    1.0695   -6.2936 O   0  0  0  0  0  0
   -8.3291   -3.0385   -8.3147 O   0  0  0  0  0  0
   -5.9103   -4.3205   -5.0627 O   0  0  0  0  0  0
   -5.3952   -4.0385   -3.8378 C   0  0  0  0  0  0
   -5.0126   -4.8480   -3.0145 O   0  0  0  0  0  0
   -5.2794   -2.5453   -3.7024 C   0  0  0  0  0  0
   -5.2045   -2.0895   -2.2364 C   0  0  0  0  0  0
   -6.3162   -2.6992   -1.3728 C   0  0  0  0  0  0
   -6.9454   -1.6565   -0.4783 C   0  0  0  0  0  0
   -8.0907   -1.2422   -0.6210 O   0  0  0  0  0  0
   -6.1294   -1.2244    0.4946 O   0  0  0  0  0  0
   -3.8313   -2.5442   -1.7229 C   0  0  0  0  0  0
   -2.9970   -3.0810   -2.4357 O   0  0  0  0  0  0
   -3.6390   -2.3487   -0.4111 O   0  0  0  0  0  0
   -5.0287   -5.7309   -8.2234 O   0  0  0  0  0  0
   -6.3420   -5.6368   -8.6529 C   0  0  0  0  0  0
   -7.3185   -5.9349   -7.9776 O   0  0  0  0  0  0
   -6.4500   -5.1095  -10.0898 C   0  0  0  0  0  0
   -7.8926   -4.7777  -10.5829 C   0  0  0  0  0  0
   -8.0447   -3.8537  -11.8050 C   0  0  0  0  0  0
   -9.0338   -2.7459  -11.5833 C   0  0  0  0  0  0
   -8.9195   -1.8395  -10.7698 O   0  0  0  0  0  0
  -10.0915   -2.8306  -12.4045 O   0  0  0  0  0  0
   -8.7802   -6.0040  -10.8291 C   0  0  0  0  0  0
   -9.9938   -5.9604  -10.7845 O   0  0  0  0  0  0
   -8.1290   -7.1240  -11.2072 O   0  0  0  0  0  0
  -12.9215   -2.0909   -3.8071 H   0  0  0  0  0  0
  -11.8893   -3.2256   -4.3248 H   0  0  0  0  0  0
  -10.3039    1.2005   -4.5107 H   0  0  0  0  0  0
  -10.6884    0.2689   -6.0490 H   0  0  0  0  0  0
   -8.5150   -2.1260   -8.5927 H   0  0  0  0  0  0
   -6.5517   -0.6655    1.1748 H   0  0  0  0  0  0
   -4.3342   -1.7985    0.0277 H   0  0  0  0  0  0
  -10.6637   -2.0594  -12.2066 H   0  0  0  0  0  0
   -8.6166   -7.9640  -11.0566 H   0  0  0  0  0  0
  1  2  1  0  0  0
  2  3  1  0  0  0
  3  4  1  0  0  0
  4  5  1  0  0  0
  5  6  1  0  0  0
  5  7  1  0  0  0
  7  8  1  0  0  0
  7 39  1  0  0  0
  8  9  1  0  0  0
  8 27  1  0  0  0
  9 10  1  0  0  0
 10 11  1  0  0  0
 10 12  1  0  0  0
 12 13  1  0  0  0
 13 14  1  0  0  0
 13 26  1  0  0  0
 14 15  1  0  0  0
 15 16  1  0  0  0
 16 17  1  0  0  0
 17 18  1  0  0  0
 18 19  1  0  0  0
 18 25  1  0  0  0
 19 20  1  0  0  0
 20 21  1  0  0  0
 20 24  1  0  0  0
 21 22  1  0  0  0
 21 23  1  0  0  0
 23 51  1  0  0  0
 23 52  1  0  0  0
 24 53  1  0  0  0
 25 54  1  0  0  0
 26 55  1  0  0  0
 27 28  1  0  0  0
 28 29  2  0  0  0
 28 30  1  0  0  0
 30 31  1  0  0  0
 31 32  1  0  0  0
 31 36  1  0  0  0
 32 33  1  0  0  0
 33 34  2  0  0  0
 33 35  1  0  0  0
 35 56  1  0  0  0
 36 37  2  0  0  0
 36 38  1  0  0  0
 38 57  1  0  0  0
 39 40  1  0  0  0
 40 41  2  0  0  0
 40 42  1  0  0  0
 42 43  1  0  0  0
 43 44  1  0  0  0
 43 48  1  0  0  0
 44 45  1  0  0  0
 45 46  2  0  0  0
 45 47  1  0  0  0
 47 58  1  0  0  0
 48 49  2  0  0  0
 48 50  1  0  0  0
 50 59  1  0  0  0
M  END
>  <AUTHOR>
    GENERATED BY OPEN BABEL 2.4.1

>  <CHROM.1>
82.40812127,-122.76161155,50.09959417,20.32334784,136.27594876,158.11195151
143.04542336,111.83327157,156.22004290,-41.29982332,-132.93214335,56.43521530
-76.44773517,-172.27499836,82.31756255,66.57375144,-140.99946859,78.62627714
-60.34140689,-38.75010326,179.19677877,-44.61679776,-33.16943224,-101.55130902
159.16064160,-50.07681607,-135.14566687,4.00232783,110.92189331,-170.22860877
-10.10888135,-26.43744162,-171.54843626,161.14286898,-131.24871329,155.27595801
64.64118023,-178.39641930,159.01532758,-7.38194564,-3.24854181,-5.94829692
-0.45047143,0.58803047,-2.00169220

>  <COMPND>
    UNNAMED

>  <MASTER>
        0    0    0    0    0    0    0    0  109    0  109    0

>  <Name>
FB1.pdb

>  <RI>
0

>  <Rbt.Current_Directory>
/home/fc/tossine/FB1_39/p3/0_clust04

>  <Rbt.Executable>
rbdock/0.1.0

>  <Rbt.Library>
librxdock.so/0.1.0

>  <Rbt.Parameter_File>
/cluster/rxdock/data/scripts/dock.prm

>  <Rbt.Receptor>
rx_4.prm

>  <SCORE>
55.7575

>  <SCORE.INTER>
19.0816

>  <SCORE.INTER.CONST>
1

>  <SCORE.INTER.POLAR>
-2.07317

>  <SCORE.INTER.REPUL>
0.819147

>  <SCORE.INTER.ROT>
32

>  <SCORE.INTER.VDW>
-15.3654

>  <SCORE.INTER.norm>
0.381632

>  <SCORE.INTRA>
30.1746

>  <SCORE.INTRA.DIHEDRAL>
56.708

>  <SCORE.INTRA.DIHEDRAL.0>
47.3121

>  <SCORE.INTRA.POLAR>
0.255617

>  <SCORE.INTRA.POLAR.0>
-1.47808

>  <SCORE.INTRA.REPUL>
0.0276164

>  <SCORE.INTRA.REPUL.0>
0

>  <SCORE.INTRA.VDW>
0.813375

>  <SCORE.INTRA.VDW.0>
-2.78316

>  <SCORE.INTRA.norm>
0.603491

>  <SCORE.RESTR>
6.5013

>  <SCORE.RESTR.CAVITY>
6.5013

>  <SCORE.RESTR.norm>
0.130026

>  <SCORE.SYSTEM>
0

>  <SCORE.SYSTEM.CONST>
0

>  <SCORE.SYSTEM.DIHEDRAL>
0

>  <SCORE.SYSTEM.norm>
0

>  <SCORE.heavy>
50

>  <SCORE.norm>
1.11515

$$$$
