FB1.pdb
  RxDock  10062019563D
librxdock.so/0.1.0
 59 58  0  0  0  0  0  0  0  0999 V2000
  -10.9179   -4.9428  -21.7344 C   0  0  0  0  0  0
  -10.3807   -3.6803  -21.0645 C   0  0  0  0  0  0
  -10.6656   -3.6721  -19.5536 C   0  0  0  0  0  0
  -10.2036   -4.9621  -18.8310 C   0  0  0  0  0  0
  -10.3201   -4.9225  -17.2673 C   0  0  0  0  0  0
  -11.8131   -4.7703  -16.8954 C   0  0  0  0  0  0
   -9.6834   -6.1880  -16.5525 C   0  0  0  0  0  0
   -9.3335   -6.0428  -14.9961 C   0  0  0  0  0  0
   -7.8666   -5.9146  -14.3961 C   0  0  0  0  0  0
   -7.3951   -7.1644  -13.4281 C   0  0  0  0  0  0
   -6.5368   -8.1209  -14.2543 C   0  0  0  0  0  0
   -6.6178   -6.7655  -12.0934 C   0  0  0  0  0  0
   -6.2771   -5.2435  -11.6619 C   0  0  0  0  0  0
   -6.6825   -4.6548  -10.2672 C   0  0  0  0  0  0
   -6.1037   -5.3531   -8.9532 C   0  0  0  0  0  0
   -6.7883   -5.2777   -7.5319 C   0  0  0  0  0  0
   -6.9180   -3.9065   -6.8175 C   0  0  0  0  0  0
   -8.3436   -3.2310   -6.8404 C   0  0  0  0  0  0
   -8.5009   -1.9482   -6.0145 C   0  0  0  0  0  0
   -9.9161   -1.5816   -5.4842 C   0  0  0  0  0  0
  -11.1841   -1.8892   -6.3344 C   0  0  0  0  0  0
  -11.8122   -0.7107   -7.0651 C   0  0  0  0  0  0
  -10.9371   -3.0119   -7.2591 N   0  0  0  0  0  0
  -10.0724   -2.3713   -4.2776 O   0  0  0  0  0  0
   -8.6717   -2.9379   -8.2028 O   0  0  0  0  0  0
   -4.8424   -5.1605  -11.7016 O   0  0  0  0  0  0
  -10.0163   -4.8450  -14.5361 O   0  0  0  0  0  0
  -10.0566   -4.6346  -13.1947 C   0  0  0  0  0  0
   -9.4958   -5.3000  -12.3449 O   0  0  0  0  0  0
  -10.8325   -3.3731  -12.9339 C   0  0  0  0  0  0
  -11.0157   -3.0922  -11.4339 C   0  0  0  0  0  0
  -12.1408   -2.0869  -11.1564 C   0  0  0  0  0  0
  -11.9816   -0.8439  -12.0006 C   0  0  0  0  0  0
  -12.2075   -0.8087  -13.2054 O   0  0  0  0  0  0
  -11.5690    0.2257  -11.3045 O   0  0  0  0  0  0
  -11.3489   -4.4447  -10.7890 C   0  0  0  0  0  0
  -12.1392   -5.2390  -11.2758 O   0  0  0  0  0  0
  -10.7370   -4.6643   -9.6171 O   0  0  0  0  0  0
  -10.4712   -7.4133  -16.8316 O   0  0  0  0  0  0
   -9.8269   -8.6380  -16.7762 C   0  0  0  0  0  0
   -8.7059   -8.8149  -16.3176 O   0  0  0  0  0  0
  -10.6791   -9.7729  -17.3594 C   0  0  0  0  0  0
  -10.0620  -10.5254  -18.5790 C   0  0  0  0  0  0
  -10.3322  -12.0355  -18.7094 C   0  0  0  0  0  0
   -9.7075  -12.8405  -17.6067 C   0  0  0  0  0  0
  -10.3010  -13.3263  -16.6536 O   0  0  0  0  0  0
   -8.3864  -13.0034  -17.7752 O   0  0  0  0  0  0
  -10.3688   -9.8911  -19.9413 C   0  0  0  0  0  0
  -11.3511   -9.2049  -20.1439 O   0  0  0  0  0  0
   -9.4170  -10.0545  -20.8840 O   0  0  0  0  0  0
  -11.7184   -3.0875   -7.9090 H   0  0  0  0  0  0
  -10.9529   -3.8840   -6.7256 H   0  0  0  0  0  0
   -9.9471   -3.2982   -4.5716 H   0  0  0  0  0  0
   -8.0029   -2.3196   -8.5505 H   0  0  0  0  0  0
   -4.4842   -5.8917  -11.1710 H   0  0  0  0  0  0
  -11.4793    0.0871  -10.3420 H   0  0  0  0  0  0
  -10.3250   -3.8609   -9.2128 H   0  0  0  0  0  0
   -8.1485  -12.5345  -18.6028 H   0  0  0  0  0  0
   -9.6350   -9.6857  -21.7687 H   0  0  0  0  0  0
  1  2  1  0  0  0
  2  3  1  0  0  0
  3  4  1  0  0  0
  4  5  1  0  0  0
  5  6  1  0  0  0
  5  7  1  0  0  0
  7  8  1  0  0  0
  7 39  1  0  0  0
  8  9  1  0  0  0
  8 27  1  0  0  0
  9 10  1  0  0  0
 10 11  1  0  0  0
 10 12  1  0  0  0
 12 13  1  0  0  0
 13 14  1  0  0  0
 13 26  1  0  0  0
 14 15  1  0  0  0
 15 16  1  0  0  0
 16 17  1  0  0  0
 17 18  1  0  0  0
 18 19  1  0  0  0
 18 25  1  0  0  0
 19 20  1  0  0  0
 20 21  1  0  0  0
 20 24  1  0  0  0
 21 22  1  0  0  0
 21 23  1  0  0  0
 23 51  1  0  0  0
 23 52  1  0  0  0
 24 53  1  0  0  0
 25 54  1  0  0  0
 26 55  1  0  0  0
 27 28  1  0  0  0
 28 29  2  0  0  0
 28 30  1  0  0  0
 30 31  1  0  0  0
 31 32  1  0  0  0
 31 36  1  0  0  0
 32 33  1  0  0  0
 33 34  2  0  0  0
 33 35  1  0  0  0
 35 56  1  0  0  0
 36 37  2  0  0  0
 36 38  1  0  0  0
 38 57  1  0  0  0
 39 40  1  0  0  0
 40 41  2  0  0  0
 40 42  1  0  0  0
 42 43  1  0  0  0
 43 44  1  0  0  0
 43 48  1  0  0  0
 44 45  1  0  0  0
 45 46  2  0  0  0
 45 47  1  0  0  0
 47 58  1  0  0  0
 48 49  2  0  0  0
 48 50  1  0  0  0
 50 59  1  0  0  0
M  END
>  <AUTHOR>
    GENERATED BY OPEN BABEL 2.4.1

>  <CHROM.1>
51.81767048,173.03171581,63.04280296,161.21854729,-107.16379101,154.15523430
-115.58812263,169.12647646,98.64675873,-0.22119484,126.10170914,60.14942815
-52.14014730,-155.84326620,-64.01758051,103.26993667,174.04210363,-153.79569059
-60.91019103,-35.59654228,-102.59261509,-57.34821262,-170.35129977,5.61625637
176.26870654,-162.26603295,-50.66818232,-43.88375085,73.29269728,-3.76096007
13.72504724,11.71989218,119.79804327,144.97124749,-65.69066786,-25.78266697
103.98722545,0.37724325,177.10552967,-9.63844388,-5.57941768,-13.39455862
1.62832695,1.02268503,-2.15321053

>  <COMPND>
    UNNAMED

>  <MASTER>
        0    0    0    0    0    0    0    0  109    0  109    0

>  <Name>
FB1.pdb

>  <RI>
0

>  <Rbt.Current_Directory>
/home/fc/tossine/FB1_39/p3/0_clust04

>  <Rbt.Executable>
rbdock/0.1.0

>  <Rbt.Library>
librxdock.so/0.1.0

>  <Rbt.Parameter_File>
/cluster/rxdock/data/scripts/dock.prm

>  <Rbt.Receptor>
rx_0.prm

>  <SCORE>
25.8363

>  <SCORE.INTER>
6.80711

>  <SCORE.INTER.CONST>
1

>  <SCORE.INTER.POLAR>
-2.33887

>  <SCORE.INTER.REPUL>
1.26521

>  <SCORE.INTER.ROT>
32

>  <SCORE.INTER.VDW>
-28.9668

>  <SCORE.INTER.norm>
0.136142

>  <SCORE.INTRA>
17.7735

>  <SCORE.INTRA.DIHEDRAL>
23.7522

>  <SCORE.INTRA.DIHEDRAL.0>
47.3121

>  <SCORE.INTRA.POLAR>
0.0323858

>  <SCORE.INTRA.POLAR.0>
-1.47808

>  <SCORE.INTRA.REPUL>
0

>  <SCORE.INTRA.REPUL.0>
0

>  <SCORE.INTRA.VDW>
5.78724

>  <SCORE.INTRA.VDW.0>
-2.78316

>  <SCORE.INTRA.norm>
0.355469

>  <SCORE.RESTR>
1.25573

>  <SCORE.RESTR.CAVITY>
1.25573

>  <SCORE.RESTR.norm>
0.0251147

>  <SCORE.SYSTEM>
0

>  <SCORE.SYSTEM.CONST>
0

>  <SCORE.SYSTEM.DIHEDRAL>
0

>  <SCORE.SYSTEM.norm>
0

>  <SCORE.heavy>
50

>  <SCORE.norm>
0.516726

$$$$
