FB1.pdb
  RxDock  09132002023D
librxdock.so/0.1.0
 59 58  0  0  0  0  0  0  0  0999 V2000
  -11.5952   -3.0172  -18.2300 C   0  0  0  0  0  0
  -11.3549   -4.4923  -17.9173 C   0  0  0  0  0  0
  -10.1929   -4.6827  -16.9285 C   0  0  0  0  0  0
   -9.8598   -6.1690  -16.6460 C   0  0  0  0  0  0
   -8.6420   -6.4030  -15.6855 C   0  0  0  0  0  0
   -7.4876   -5.4755  -16.1303 C   0  0  0  0  0  0
   -8.9914   -6.1795  -14.1539 C   0  0  0  0  0  0
   -8.4395   -7.2689  -13.1171 C   0  0  0  0  0  0
   -8.3058   -7.0529  -11.5475 C   0  0  0  0  0  0
   -6.8459   -6.4738  -11.0430 C   0  0  0  0  0  0
   -5.8667   -6.5406  -12.2137 C   0  0  0  0  0  0
   -6.8475   -5.0009  -10.4303 C   0  0  0  0  0  0
   -6.8407   -4.6774   -8.8448 C   0  0  0  0  0  0
   -6.9834   -3.2209   -8.2839 C   0  0  0  0  0  0
   -6.3632   -2.8980   -6.8486 C   0  0  0  0  0  0
   -4.8171   -2.7508   -6.5612 C   0  0  0  0  0  0
   -4.3311   -2.4778   -5.1132 C   0  0  0  0  0  0
   -4.3393   -3.7060   -4.1229 C   0  0  0  0  0  0
   -3.5980   -4.9634   -4.5939 C   0  0  0  0  0  0
   -3.8327   -6.2913   -3.8193 C   0  0  0  0  0  0
   -3.0310   -7.5746   -4.1878 C   0  0  0  0  0  0
   -3.1287   -8.0429   -5.6330 C   0  0  0  0  0  0
   -1.6223   -7.4533   -3.7668 N   0  0  0  0  0  0
   -3.4531   -5.9911   -2.4519 O   0  0  0  0  0  0
   -3.7657   -3.2775   -2.8831 O   0  0  0  0  0  0
   -7.9686   -5.3951   -8.3164 O   0  0  0  0  0  0
   -9.3046   -8.4294  -13.2483 O   0  0  0  0  0  0
   -8.7134   -9.6505  -13.1790 C   0  0  0  0  0  0
   -7.8582   -9.9917  -12.3843 O   0  0  0  0  0  0
   -9.3659  -10.5532  -14.1893 C   0  0  0  0  0  0
   -8.6572  -10.5228  -15.5529 C   0  0  0  0  0  0
   -7.3678  -11.3538  -15.5649 C   0  0  0  0  0  0
   -7.6731  -12.8337  -15.5649 C   0  0  0  0  0  0
   -7.9093  -13.4775  -14.5483 O   0  0  0  0  0  0
   -7.6633  -13.3813  -16.7892 O   0  0  0  0  0  0
   -9.6610  -11.0960  -16.5629 C   0  0  0  0  0  0
   -9.8761  -10.5862  -17.6520 O   0  0  0  0  0  0
  -10.3222  -12.1789  -16.1316 O   0  0  0  0  0  0
   -8.6696   -4.7958  -13.7276 O   0  0  0  0  0  0
   -9.6612   -3.8326  -13.8122 C   0  0  0  0  0  0
  -10.7260   -3.9790  -14.3981 O   0  0  0  0  0  0
   -9.2815   -2.5380  -13.0814 C   0  0  0  0  0  0
  -10.0796   -2.2389  -11.7745 C   0  0  0  0  0  0
  -11.5987   -2.0161  -11.8896 C   0  0  0  0  0  0
  -12.1072   -0.9508  -10.9616 C   0  0  0  0  0  0
  -11.6931    0.1987  -10.8996 O   0  0  0  0  0  0
  -13.1122   -1.3837  -10.1851 O   0  0  0  0  0  0
   -9.8547   -3.2510  -10.6442 C   0  0  0  0  0  0
   -9.8033   -4.4504  -10.8325 O   0  0  0  0  0  0
   -9.6085   -2.7175   -9.4293 O   0  0  0  0  0  0
   -1.1375   -8.3271   -3.9667 H   0  0  0  0  0  0
   -1.5923   -7.3623   -2.7488 H   0  0  0  0  0  0
   -3.8274   -6.7281   -1.9246 H   0  0  0  0  0  0
   -3.7669   -4.0351   -2.2695 H   0  0  0  0  0  0
   -7.8336   -5.5056   -7.3603 H   0  0  0  0  0  0
   -7.8741  -14.3342  -16.8210 H   0  0  0  0  0  0
  -10.9415  -12.5725  -16.7952 H   0  0  0  0  0  0
  -13.1910   -2.3488  -10.3389 H   0  0  0  0  0  0
   -9.6004   -1.7351   -9.3961 H   0  0  0  0  0  0
  1  2  1  0  0  0
  2  3  1  0  0  0
  3  4  1  0  0  0
  4  5  1  0  0  0
  5  6  1  0  0  0
  5  7  1  0  0  0
  7  8  1  0  0  0
  7 39  1  0  0  0
  8  9  1  0  0  0
  8 27  1  0  0  0
  9 10  1  0  0  0
 10 11  1  0  0  0
 10 12  1  0  0  0
 12 13  1  0  0  0
 13 14  1  0  0  0
 13 26  1  0  0  0
 14 15  1  0  0  0
 15 16  1  0  0  0
 16 17  1  0  0  0
 17 18  1  0  0  0
 18 19  1  0  0  0
 18 25  1  0  0  0
 19 20  1  0  0  0
 20 21  1  0  0  0
 20 24  1  0  0  0
 21 22  1  0  0  0
 21 23  1  0  0  0
 23 51  1  0  0  0
 23 52  1  0  0  0
 24 53  1  0  0  0
 25 54  1  0  0  0
 26 55  1  0  0  0
 27 28  1  0  0  0
 28 29  2  0  0  0
 28 30  1  0  0  0
 30 31  1  0  0  0
 31 32  1  0  0  0
 31 36  1  0  0  0
 32 33  1  0  0  0
 33 34  2  0  0  0
 33 35  1  0  0  0
 35 56  1  0  0  0
 36 37  2  0  0  0
 36 38  1  0  0  0
 38 57  1  0  0  0
 39 40  1  0  0  0
 40 41  2  0  0  0
 40 42  1  0  0  0
 42 43  1  0  0  0
 43 44  1  0  0  0
 43 48  1  0  0  0
 44 45  1  0  0  0
 45 46  2  0  0  0
 45 47  1  0  0  0
 47 58  1  0  0  0
 48 49  2  0  0  0
 48 50  1  0  0  0
 50 59  1  0  0  0
M  END
>  <AUTHOR>
    GENERATED BY OPEN BABEL 2.4.1

>  <CHROM.1>
-176.64172889,177.67426537,-45.82796818,135.63929098,161.83406965,91.73878223
-91.55338920,141.26467781,-10.94940535,99.79135917,-173.88612730,-154.12025231
159.75653110,73.70053665,-178.14272756,76.33921065,53.45012313,-166.68141446
-179.84530952,-175.60737934,-56.40610636,164.81975384,176.47065596,43.39289785
91.04999656,77.70069730,73.05684795,134.83420898,-83.82934686,-178.89599103
-177.53014310,-11.60637090,-109.87347046,-62.95603770,-142.34726333,-42.09662842
54.92980561,7.35097580,0.08673923,-7.97902356,-6.08824758,-11.40402059,2.25868590
0.91431978,-2.49654691

>  <COMPND>
    UNNAMED

>  <MASTER>
        0    0    0    0    0    0    0    0  109    0  109    0

>  <Name>
FB1.pdb

>  <RI>
0

>  <Rbt.Current_Directory>
/home/fc/tossine/FB1_39/p3/0_clust04

>  <Rbt.Executable>
rbdock/0.1.0

>  <Rbt.Library>
librxdock.so/0.1.0

>  <Rbt.Parameter_File>
/cluster/rxdock/data/scripts/dock.prm

>  <Rbt.Receptor>
rx_0.prm

>  <SCORE>
16.6638

>  <SCORE.INTER>
2.13577

>  <SCORE.INTER.CONST>
1

>  <SCORE.INTER.POLAR>
-2.42376

>  <SCORE.INTER.REPUL>
0.44103

>  <SCORE.INTER.ROT>
32

>  <SCORE.INTER.VDW>
-29.2286

>  <SCORE.INTER.norm>
0.0427155

>  <SCORE.INTRA>
13.9295

>  <SCORE.INTRA.DIHEDRAL>
21.4631

>  <SCORE.INTRA.DIHEDRAL.0>
47.3121

>  <SCORE.INTRA.POLAR>
0.77975

>  <SCORE.INTRA.POLAR.0>
-1.47808

>  <SCORE.INTRA.REPUL>
0

>  <SCORE.INTRA.REPUL.0>
0

>  <SCORE.INTRA.VDW>
0.546796

>  <SCORE.INTRA.VDW.0>
-2.78316

>  <SCORE.INTRA.norm>
0.27859

>  <SCORE.RESTR>
0.598547

>  <SCORE.RESTR.CAVITY>
0.598547

>  <SCORE.RESTR.norm>
0.0119709

>  <SCORE.SYSTEM>
0

>  <SCORE.SYSTEM.CONST>
0

>  <SCORE.SYSTEM.DIHEDRAL>
0

>  <SCORE.SYSTEM.norm>
0

>  <SCORE.heavy>
50

>  <SCORE.norm>
0.333276

$$$$
