FB1.pdb
  RxDock  10062021053D
librxdock.so/0.1.0
 59 58  0  0  0  0  0  0  0  0999 V2000
  -12.1211    1.3992   -6.2375 C   0  0  0  0  0  0
  -12.8122    0.0692   -6.5290 C   0  0  0  0  0  0
  -11.9939   -1.1238   -6.0080 C   0  0  0  0  0  0
  -10.9247   -1.6244   -7.0109 C   0  0  0  0  0  0
  -11.4953   -2.3522   -8.2778 C   0  0  0  0  0  0
  -11.7041   -1.2987   -9.3901 C   0  0  0  0  0  0
  -10.5808   -3.5438   -8.7892 C   0  0  0  0  0  0
  -10.3068   -3.6233  -10.3655 C   0  0  0  0  0  0
  -11.1086   -4.5391  -11.3886 C   0  0  0  0  0  0
  -11.1675   -6.1403  -10.9963 C   0  0  0  0  0  0
  -12.1134   -6.3144   -9.8093 C   0  0  0  0  0  0
  -11.5911   -7.1362  -12.1683 C   0  0  0  0  0  0
  -10.7883   -7.2876  -13.5652 C   0  0  0  0  0  0
  -11.4462   -7.8967  -14.8506 C   0  0  0  0  0  0
  -10.5516   -8.8259  -15.7915 C   0  0  0  0  0  0
   -9.8995  -10.1894  -15.3330 C   0  0  0  0  0  0
   -8.3988  -10.2254  -14.9405 C   0  0  0  0  0  0
   -7.9312   -9.1912  -13.8447 C   0  0  0  0  0  0
   -8.1052   -7.7075  -14.1925 C   0  0  0  0  0  0
   -7.3193   -6.6572  -13.3573 C   0  0  0  0  0  0
   -6.8391   -6.9924  -11.9142 C   0  0  0  0  0  0
   -5.9030   -5.9855  -11.2607 C   0  0  0  0  0  0
   -7.9853   -7.2941  -11.0358 N   0  0  0  0  0  0
   -6.1035   -6.4222  -14.1125 O   0  0  0  0  0  0
   -8.6570   -9.4643  -12.6412 O   0  0  0  0  0  0
  -10.4247   -5.9454  -13.9298 O   0  0  0  0  0  0
  -10.4816   -2.2741  -10.8769 O   0  0  0  0  0  0
   -9.8217   -1.9579  -12.0214 C   0  0  0  0  0  0
   -8.7169   -1.4550  -12.0993 O   0  0  0  0  0  0
  -10.6434   -2.4275  -13.1900 C   0  0  0  0  0  0
   -9.7791   -2.8339  -14.3942 C   0  0  0  0  0  0
  -10.5581   -3.6596  -15.4261 C   0  0  0  0  0  0
  -11.5584   -2.8029  -16.1668 C   0  0  0  0  0  0
  -12.5810   -2.3590  -15.6560 O   0  0  0  0  0  0
  -11.2206   -2.5699  -17.4437 O   0  0  0  0  0  0
   -9.2953   -1.5224  -15.0280 C   0  0  0  0  0  0
   -9.9329   -0.9163  -15.8756 O   0  0  0  0  0  0
   -8.0875   -1.1189  -14.6104 O   0  0  0  0  0  0
   -9.3259   -3.6309   -8.0034 O   0  0  0  0  0  0
   -8.3964   -4.5971   -8.3508 C   0  0  0  0  0  0
   -8.3658   -5.1787   -9.4275 O   0  0  0  0  0  0
   -7.3888   -4.8690   -7.2260 C   0  0  0  0  0  0
   -6.0780   -4.0240   -7.2721 C   0  0  0  0  0  0
   -5.2209   -3.9483   -5.9953 C   0  0  0  0  0  0
   -5.1176   -5.2641   -5.2794 C   0  0  0  0  0  0
   -4.7534   -6.3206   -5.7771 O   0  0  0  0  0  0
   -5.4568   -5.1718   -3.9845 O   0  0  0  0  0  0
   -5.1351   -4.3723   -8.4305 C   0  0  0  0  0  0
   -4.7675   -3.5549   -9.2512 O   0  0  0  0  0  0
   -4.6478   -5.6307   -8.4226 O   0  0  0  0  0  0
   -8.4263   -8.1585  -11.3471 H   0  0  0  0  0  0
   -8.6974   -6.5725  -11.1685 H   0  0  0  0  0  0
   -6.3818   -5.8450  -14.8547 H   0  0  0  0  0  0
   -8.3199  -10.2983  -12.2653 H   0  0  0  0  0  0
   -9.6378   -5.6971  -13.4164 H   0  0  0  0  0  0
  -10.3915   -2.9928  -17.7390 H   0  0  0  0  0  0
   -7.8857   -1.3373  -13.6669 H   0  0  0  0  0  0
   -5.4934   -6.0880   -3.6372 H   0  0  0  0  0  0
   -4.0455   -5.8522   -9.1671 H   0  0  0  0  0  0
  1  2  1  0  0  0
  2  3  1  0  0  0
  3  4  1  0  0  0
  4  5  1  0  0  0
  5  6  1  0  0  0
  5  7  1  0  0  0
  7  8  1  0  0  0
  7 39  1  0  0  0
  8  9  1  0  0  0
  8 27  1  0  0  0
  9 10  1  0  0  0
 10 11  1  0  0  0
 10 12  1  0  0  0
 12 13  1  0  0  0
 13 14  1  0  0  0
 13 26  1  0  0  0
 14 15  1  0  0  0
 15 16  1  0  0  0
 16 17  1  0  0  0
 17 18  1  0  0  0
 18 19  1  0  0  0
 18 25  1  0  0  0
 19 20  1  0  0  0
 20 21  1  0  0  0
 20 24  1  0  0  0
 21 22  1  0  0  0
 21 23  1  0  0  0
 23 51  1  0  0  0
 23 52  1  0  0  0
 24 53  1  0  0  0
 25 54  1  0  0  0
 26 55  1  0  0  0
 27 28  1  0  0  0
 28 29  2  0  0  0
 28 30  1  0  0  0
 30 31  1  0  0  0
 31 32  1  0  0  0
 31 36  1  0  0  0
 32 33  1  0  0  0
 33 34  2  0  0  0
 33 35  1  0  0  0
 35 56  1  0  0  0
 36 37  2  0  0  0
 36 38  1  0  0  0
 38 57  1  0  0  0
 39 40  1  0  0  0
 40 41  2  0  0  0
 40 42  1  0  0  0
 42 43  1  0  0  0
 43 44  1  0  0  0
 43 48  1  0  0  0
 44 45  1  0  0  0
 45 46  2  0  0  0
 45 47  1  0  0  0
 47 58  1  0  0  0
 48 49  2  0  0  0
 48 50  1  0  0  0
 50 59  1  0  0  0
M  END
>  <AUTHOR>
    GENERATED BY OPEN BABEL 2.4.1

>  <CHROM.1>
-86.30483419,-70.65694261,91.32617959,-134.68313701,-96.97179422,-178.09402934
-53.94350880,154.73735543,72.60804182,59.30316379,-159.82420466,-142.15943977
80.11793459,61.89858587,-100.33686640,53.56238121,-61.09102302,-163.17070389
71.50129097,-23.71837386,171.07663359,76.65049034,66.59109099,-92.27303269
-148.92677745,164.32274775,71.26798861,-87.78373665,-71.14832896,1.26907669
-33.74639361,18.07618641,-91.93608195,163.07402104,40.87838641,122.69601971
53.76301751,171.50731539,179.85823854,-9.07918654,-4.57479669,-11.17337854
1.17807312,-0.87498975,0.98338212

>  <COMPND>
    UNNAMED

>  <MASTER>
        0    0    0    0    0    0    0    0  109    0  109    0

>  <Name>
FB1.pdb

>  <RI>
0

>  <Rbt.Current_Directory>
/home/fc/tossine/FB1_39/p3/0_clust04

>  <Rbt.Executable>
rbdock/0.1.0

>  <Rbt.Library>
librxdock.so/0.1.0

>  <Rbt.Parameter_File>
/cluster/rxdock/data/scripts/dock.prm

>  <Rbt.Receptor>
rx_1.prm

>  <SCORE>
48.7257

>  <SCORE.INTER>
12.3817

>  <SCORE.INTER.CONST>
1

>  <SCORE.INTER.POLAR>
-3.23651

>  <SCORE.INTER.REPUL>
0.662868

>  <SCORE.INTER.ROT>
32

>  <SCORE.INTER.VDW>
-17.3285

>  <SCORE.INTER.norm>
0.247634

>  <SCORE.INTRA>
36.1574

>  <SCORE.INTRA.DIHEDRAL>
40.8259

>  <SCORE.INTRA.DIHEDRAL.0>
47.3121

>  <SCORE.INTRA.POLAR>
-0.358204

>  <SCORE.INTRA.POLAR.0>
-1.47808

>  <SCORE.INTRA.REPUL>
0.0122372

>  <SCORE.INTRA.REPUL.0>
0

>  <SCORE.INTRA.VDW>
16.9012

>  <SCORE.INTRA.VDW.0>
-2.78316

>  <SCORE.INTRA.norm>
0.723148

>  <SCORE.RESTR>
0.186562

>  <SCORE.RESTR.CAVITY>
0.186562

>  <SCORE.RESTR.norm>
0.00373125

>  <SCORE.SYSTEM>
0

>  <SCORE.SYSTEM.CONST>
0

>  <SCORE.SYSTEM.DIHEDRAL>
0

>  <SCORE.SYSTEM.norm>
0

>  <SCORE.heavy>
50

>  <SCORE.norm>
0.974513

$$$$
