@<TRIPOS>MOLECULE
dna.pdb
 1946 2186 0 0 0
SMALL
GASTEIGER

@<TRIPOS>ATOM
      1  O5'       16.3020   17.9970  -14.2570 O.3     1  DA1        -0.2176
      2  C5'       17.5020   17.5260  -13.6470 C.3     1  DA1         0.2140
      3  C4'       18.6520   17.4510  -14.6400 C.3     1  DA1         0.1776
      4  O4'       19.6750   18.4070  -14.2510 O.3     1  DA1        -0.3326
      5  C3'       19.3610   16.1020  -14.6900 C.3     1  DA1         0.1559
      6  O3'       18.7940   15.2580  -15.6960 O.3     1  DA1        -0.3138
      7  C2'       20.8030   16.4990  -15.0030 C.3     1  DA1         0.0865
      8  C1'       20.9330   17.7630  -14.1600 C.3     1  DA1         0.2094
      9  N9        21.2500   17.5320  -12.5410 N.ar    1  DA1        -0.2714
     10  C8        20.4390   17.5290  -11.4360 C.ar    1  DA1         0.1815
     11  N7        21.0730   17.2800  -10.3150 N.ar    1  DA1        -0.2193
     12  C5        22.3900   17.1050  -10.7110 C.ar    1  DA1         0.1518
     13  C6        23.5630   16.8140   -9.9930 C.ar    1  DA1         0.1919
     14  N6        23.5960   16.6430   -8.6690 N.pl3   1  DA1        -0.1054
     15  N1        24.7140   16.7050  -10.6900 N.ar    1  DA1        -0.2040
     16  C2        24.6800   16.8780  -12.0160 C.ar    1  DA1         0.2016
     17  N3        23.6420   17.1550  -12.8020 N.ar    1  DA1        -0.2048
     18  C4        22.5140   17.2560  -12.0790 C.ar    1  DA1         0.1691
     19  P         17.8820   14.0330  -15.2070 P.3     2  DT2         0.2141
     20  OP1       18.2200   13.4340  -16.5130 O.2     2  DT2        -0.5172
     21  OP2       16.6180   14.7790  -15.0480 O.3     2  DT2        -0.4373
     22  O5'       17.9880   12.8660  -14.1260 O.3     2  DT2        -0.3114
     23  C5'       18.7390   11.6990  -14.3960 C.3     2  DT2         0.1811
     24  C4'       18.9790   10.8880  -13.1270 C.3     2  DT2         0.1746
     25  O4'       18.9530   11.7870  -11.9960 O.3     2  DT2        -0.3327
     26  C3'       17.9480    9.8030  -12.7880 C.3     2  DT2         0.1558
     27  O3'       18.3250    8.5450  -13.3370 O.3     2  DT2        -0.3138
     28  C2'       18.0450    9.7090  -11.2760 C.3     2  DT2         0.0866
     29  C1'       18.3120   11.1560  -10.8980 C.3     2  DT2         0.2106
     30  N1        17.0170   11.8220  -10.5380 N.ar    2  DT2        -0.2559
     31  C2        16.5210   11.6230   -9.2640 C.ar    2  DT2         0.3545
     32  O2        17.1060   10.9710   -8.4170 O.2     2  DT2        -0.2443
     33  N3        15.3070   12.2170   -9.0130 N.ar    2  DT2        -0.1533
     34  C4        14.5570   12.9730   -9.8900 C.ar    2  DT2         0.2804
     35  O4        13.4840   13.4430   -9.5190 O.2     2  DT2        -0.2654
     36  C5        15.1390   13.1330  -11.1930 C.ar    2  DT2         0.0534
     37  C6        16.3180   12.5660  -11.4630 C.ar    2  DT2         0.0824
     38  C7        14.3990   13.9390  -12.2190 C.3     2  DT2         0.0377
     39  P         17.3130    7.4610  -13.5880 P.3     3  DA3         0.2141
     40  OP1       17.6440    6.4430  -14.6120 O.2     3  DA3        -0.5172
     41  OP2       16.0350    8.2090  -13.6820 O.3     3  DA3        -0.4373
     42  O5'       17.4200    6.7760  -12.1500 O.3     3  DA3        -0.3114
     43  C5'       18.7050    6.5390  -11.5970 C.3     3  DA3         0.1811
     44  C4'       18.6280    5.8670  -10.2440 C.3     3  DA3         0.1746
     45  O4'       18.1400    6.8070   -9.2430 O.3     3  DA3        -0.3327
     46  C3'       17.6470    4.7020  -10.2370 C.3     3  DA3         0.1558
     47  O3'       18.2120    3.4270   -9.9300 O.3     3  DA3        -0.3138
     48  C2'       16.3650    5.2140   -9.5770 C.3     3  DA3         0.0865
     49  C1'       16.8860    6.3880   -8.7500 C.3     3  DA3         0.2094
     50  N9        16.1350    7.2680   -8.5860 N.ar    3  DA3        -0.2714
     51  C8        15.5220    7.5710   -9.7740 C.ar    3  DA3         0.1815
     52  N7        14.3140    8.0640   -9.6360 N.ar    3  DA3        -0.2193
     53  C5        14.1200    8.0860   -8.2640 C.ar    3  DA3         0.1518
     54  C6        13.0370    8.5000   -7.4680 C.ar    3  DA3         0.1919
     55  N6        11.9000    8.9920   -7.9660 N.pl3   3  DA3        -0.1054
     56  N1        13.1650    8.3890   -6.1290 N.ar    3  DA3        -0.2040
     57  C2        14.3050    7.8960   -5.6310 C.ar    3  DA3         0.2016
     58  N3        15.3910    7.4760   -6.2760 N.ar    3  DA3        -0.2048
     59  C4        15.2320    7.5980   -7.6040 C.ar    3  DA3         0.1691
     60  P         17.3370    2.1010   -9.6350 P.3     4  DC4         0.2141
     61  OP1       18.4860    1.1540   -9.5710 O.3     4  DC4        -0.4373
     62  OP2       16.1140    1.7840  -10.4280 O.2     4  DC4        -0.5172
     63  O5'       16.9370    2.5240   -8.1240 O.3     4  DC4        -0.3114
     64  C5'       17.8370    2.2930   -7.0070 C.3     4  DC4         0.1811
     65  C4'       17.2420    2.5730   -5.6270 C.3     4  DC4         0.1744
     66  O4'       16.6490    3.8880   -5.5680 O.3     4  DC4        -0.3346
     67  C3'       16.0810    1.6960   -5.1850 C.3     4  DC4         0.1555
     68  O3'       16.5040    0.4270   -4.7080 O.3     4  DC4        -0.3139
     69  C2'       15.4760    2.5400   -4.0740 C.3     4  DC4         0.0839
     70  C1'       15.4710    3.8750   -4.7780 C.3     4  DC4         0.2017
     71  N1        14.3520    4.2590   -5.6510 N.am    4  DC4        -0.2191
     72  C2        13.2200    4.8430   -5.0720 C.2     4  DC4         0.3158
     73  O2        13.2040    5.0270   -3.8430 O.2     4  DC4        -0.2520
     74  N3        12.1780    5.1890   -5.8650 N.am    4  DC4        -0.2049
     75  C4        12.2390    4.9720   -7.1800 C.3     4  DC4         0.2276
     76  N4        11.1880    5.3300   -7.9210 N.3     4  DC4        -0.0912
     77  C5        13.3770    4.3810   -7.7860 C.2     4  DC4         0.0433
     78  C6        14.4040    4.0410   -6.9990 C.2     4  DC4         0.0711
     79  P         15.6570   -0.3800   -5.1110 P.3     5  DC5         0.2141
     80  OP1       16.2130   -1.7360   -4.8860 O.3     5  DC5        -0.4373
     81  OP2       14.4580   -0.1940   -5.9640 O.2     5  DC5        -0.5172
     82  O5'       15.3530    0.3090   -3.6970 O.3     5  DC5        -0.3114
     83  C5'       14.6950   -0.4310   -2.6730 C.3     5  DC5         0.1811
     84  C4'       14.1620    0.4660   -1.5730 C.3     5  DC5         0.1744
     85  O4'       14.2900    1.8570   -1.9580 O.3     5  DC5        -0.3346
     86  C3'       12.6790    0.2900   -1.2910 C.3     5  DC5         0.1555
     87  O3'       12.4640   -0.7710   -0.3790 O.3     5  DC5        -0.3139
     88  C2'       12.3040    1.6510   -0.7110 C.3     5  DC5         0.0839
     89  C1'       13.1070    2.5700   -1.6280 C.3     5  DC5         0.2017
     90  N1        12.3610    2.8960   -2.9690 N.am    5  DC5        -0.2178
     91  C2        11.3100    3.8200   -2.9900 C.2     5  DC5         0.3314
     92  O2        10.8410    4.2170   -1.9100 O.2     5  DC5        -0.2503
     93  N3        10.8340    4.2510   -4.1830 N.am    5  DC5        -0.1529
     94  C4        11.3670    3.7960   -5.3180 C.3     5  DC5         0.2317
     95  N4        10.8660    4.2500   -6.4690 N.3     5  DC5        -0.1434
     96  C5        12.4330    2.8600   -5.3180 C.2     5  DC5         0.0462
     97  C6        12.8990    2.4370   -4.1380 C.2     5  DC5         0.0714
     98  P         11.6590   -1.4960   -0.7940 P.3     6  DA6         0.2141
     99  OP1       11.9530   -2.9270   -1.0680 O.3     6  DA6        -0.4373
    100  OP2       11.0300   -0.6530   -1.8560 O.2     6  DA6        -0.5172
    101  O5'       10.7420   -1.3900    0.4980 O.3     6  DA6        -0.3114
    102  C5'       10.3420   -0.1050    0.9530 C.3     6  DA6         0.1811
    103  C4'        9.9720   -0.1330    2.4060 C.3     6  DA6         0.1744
    104  O4'       10.1400    1.2250    2.8490 O.3     6  DA6        -0.3349
    105  C3'        8.5170   -0.5090    2.6500 C.3     6  DA6         0.1555
    106  O3'        8.4350   -1.8570    3.1370 O.3     6  DA6        -0.3139
    107  C2'        8.0400    0.5320    3.6670 C.3     6  DA6         0.0835
    108  C1'        8.9230    1.7340    3.3280 C.3     6  DA6         0.1974
    109  N9         8.3910    2.7760    2.4970 N.pl3   6  DA6        -0.2458
    110  C8         8.6540    3.0760    1.1850 C.2     6  DA6         0.1669
    111  N7         7.9590    4.0880    0.7240 N.2     6  DA6        -0.2207
    112  C5         7.1850    4.4790    1.8050 C.2     6  DA6         0.1920
    113  C6         6.2330    5.5010    1.9660 C.2     6  DA6         0.4332
    114  N6         5.8860    6.3480    0.9950 N.pl3   6  DA6         0.2176
    115  N1         5.6420    5.6220    3.1750 N.4     6  DA6         0.0117
    116  C2         5.9910    4.7720    4.1480 C.2     6  DA6         0.3350
    117  N3         6.8720    3.7750    4.1170 N.2     6  DA6        -0.2009
    118  C4         7.4400    3.6800    2.9040 C.3     6  DA6         0.2335
    119  P          7.5260   -2.4990    2.6230 P.3     7  DG7         0.2141
    120  OP1        7.0730   -3.5410    3.5990 O.3     7  DG7        -0.4373
    121  OP2        7.4600   -3.0100    1.2230 O.2     7  DG7        -0.5172
    122  O5'        6.5770   -1.2300    2.7420 O.3     7  DG7        -0.3114
    123  C5'        5.9800   -0.9060    4.0210 C.3     7  DG7         0.1811
    124  C4'        5.1770    0.3700    3.9730 C.3     7  DG7         0.1746
    125  O4'        5.8770    1.3890    3.1890 O.3     7  DG7        -0.3327
    126  C3'        3.8790    0.1850    3.2250 C.3     7  DG7         0.1558
    127  O3'        2.8430   -0.3080    4.1160 O.3     7  DG7        -0.3138
    128  C2'        3.5540    1.6040    2.7870 C.3     7  DG7         0.0865
    129  C1'        4.9250    2.1520    2.4580 C.3     7  DG7         0.2094
    130  N9         5.1680    2.0250    1.0230 N.ar    7  DG7        -0.2713
    131  C8         6.0480    1.1580    0.4220 C.ar    7  DG7         0.1816
    132  N7         6.1680    1.3550   -0.8630 N.ar    7  DG7        -0.2173
    133  C5         5.3210    2.4150   -1.1280 C.ar    7  DG7         0.1748
    134  C6         5.0250    3.0770   -2.3470 C.ar    7  DG7         0.3023
    135  O6         5.4770    2.8440   -3.4750 O.2     7  DG7        -0.2633
    136  N1         4.1030    4.1050   -2.1710 N.ar    7  DG7        -0.1709
    137  C2         3.5370    4.4530   -0.9680 C.ar    7  DG7         0.2606
    138  N2         2.6690    5.4730   -0.9960 N.pl3   7  DG7        -0.0859
    139  N3         3.8010    3.8460    0.1730 N.ar    7  DG7        -0.1918
    140  C4         4.6930    2.8440    0.0250 C.ar    7  DG7         0.1722
    141  P          1.5920   -1.2070    3.5210 P.3     8  DC8         0.2141
    142  OP1        0.6250   -1.7090    4.5250 O.3     8  DC8        -0.4373
    143  OP2        2.1860   -2.1530    2.5420 O.2     8  DC8        -0.5172
    144  O5'        0.9050   -0.0180    2.7140 O.3     8  DC8        -0.3114
    145  C5'        0.0400    0.8860    3.3690 C.3     8  DC8         0.1812
    146  C4'       -0.2710    2.0600    2.4730 C.3     8  DC8         0.1775
    147  O4'        0.9860    2.5160    1.9030 O.3     8  DC8        -0.3326
    148  C3'       -1.0590    1.7330    1.2140 C.3     8  DC8         0.1859
    149  O3'       -2.4450    1.6750    1.4930 O.3     8  DC8        -0.2202
    150  C2'       -0.7700    2.9680    0.3770 C.3     8  DC8         0.0895
    151  C1'        0.7170    3.1620    0.6630 C.3     8  DC8         0.2107
    152  N1         1.6160    2.9440   -0.0940 N.ar    8  DC8        -0.2556
    153  C2         1.4530    3.5340   -1.3520 C.ar    8  DC8         0.3531
    154  O2         0.7170    4.5310   -1.4540 O.2     8  DC8        -0.2443
    155  N3         2.0990    3.0040   -2.4180 N.ar    8  DC8        -0.1739
    156  C4         2.8780    1.9330   -2.2610 C.ar    8  DC8         0.1759
    157  N4         3.4940    1.4460   -3.3410 N.pl3   8  DC8        -0.1070
    158  C5         3.0560    1.3200   -0.9950 C.ar    8  DC8         0.0566
    159  C6         2.4170    1.8470    0.0550 C.ar    8  DC8         0.0849
    160  P         -2.9460    0.1830    1.6900 P.3     9  DT9         0.4149
    161  OP1       -4.2070   -0.3960    2.2100 O.2     9  DT9        -0.2668
    162  OP2       -1.8470   -0.6510    1.1590 O.3     9  DT9        -0.1481
    163  O5'       -3.3050    1.1550    0.4820 O.3     9  DT9        -0.2177
    164  C5'       -4.3920    2.0310    0.7140 C.3     9  DT9         0.2140
    165  C4'       -4.6010    2.9190   -0.4740 C.3     9  DT9         0.1776
    166  O4'       -3.3530    3.5910   -0.7610 O.3     9  DT9        -0.3326
    167  C3'       -4.9280    2.1850   -1.7620 C.3     9  DT9         0.1559
    168  O3'       -6.2940    1.8180   -1.8510 O.3     9  DT9        -0.3138
    169  C2'       -4.4750    3.1780   -2.8170 C.3     9  DT9         0.0866
    170  C1'       -3.2240    3.7680   -2.1530 C.3     9  DT9         0.2106
    171  N1        -2.1160    3.1190   -2.7220 N.ar    9  DT9        -0.2559
    172  C2        -1.4520    3.6430   -3.8150 C.ar    9  DT9         0.3545
    173  O2        -1.8060    4.6620   -4.3810 O.2     9  DT9        -0.2443
    174  N3        -0.3520    2.9290   -4.2240 N.ar    9  DT9        -0.1533
    175  C4         0.1390    1.7680   -3.6640 C.ar    9  DT9         0.2804
    176  O4         1.1400    1.2410   -4.1430 O.2     9  DT9        -0.2654
    177  C5        -0.6060    1.2860   -2.5350 C.ar    9  DT9         0.0534
    178  C6        -1.6790    1.9620   -2.1150 C.ar    9  DT9         0.0824
    179  C7        -0.1510    0.0280   -1.8560 C.3     9  DT9         0.0377
    180  P         -6.9390    0.9230   -3.1740 P.3    10  DT10        0.2141
    181  OP1       -8.0320    0.0050   -3.5750 O.2    10  DT10       -0.5172
    182  OP2       -5.6140    0.3520   -2.8190 O.3    10  DT10       -0.4373
    183  O5'       -6.6920    1.9610   -4.3520 O.3    10  DT10       -0.3114
    184  C5'       -7.6230    3.0270   -4.5960 C.3    10  DT10        0.1811
    185  C4'       -7.3630    3.6240   -5.9480 C.3    10  DT10        0.1746
    186  O4'       -6.0130    4.1290   -5.9730 O.3    10  DT10       -0.3327
    187  C3'       -7.4320    2.6140   -7.0720 C.3    10  DT10        0.1558
    188  O3'       -8.7660    2.5780   -7.5590 O.3    10  DT10       -0.3138
    189  C2'       -6.4650    3.1650   -8.1150 C.3    10  DT10        0.0866
    190  C1'       -5.4540    3.9310   -7.2540 C.3    10  DT10        0.2106
    191  N1        -4.0800    3.3480   -7.1000 N.ar   10  DT10       -0.2559
    192  C2        -3.0320    3.9230   -7.7940 C.ar   10  DT10        0.3545
    193  O2        -3.1530    4.9340   -8.4630 O.2    10  DT10       -0.2443
    194  N3        -1.8300    3.2680   -7.6770 N.ar   10  DT10       -0.1533
    195  C4        -1.5770    2.1220   -6.9530 C.ar   10  DT10        0.2804
    196  O4        -0.4420    1.6510   -6.9440 O.2    10  DT10       -0.2654
    197  C5        -2.7150    1.5850   -6.2620 C.ar   10  DT10        0.0534
    198  C6        -3.8960    2.2020   -6.3580 C.ar   10  DT10        0.0824
    199  C7        -2.5410    0.3380   -5.4470 C.3    10  DT10        0.0377
    200  P         -9.3940    1.2480   -8.5230 P.3    11  DA11        0.2141
    201  OP1      -10.8010    1.4440   -8.9390 O.2    11  DA11       -0.5172
    202  OP2       -8.8380   -0.1150   -8.4530 O.3    11  DA11       -0.4373
    203  O5'       -8.4800    2.0930   -9.5210 O.3    11  DA11       -0.3114
    204  C5'       -8.8930    3.3970  -10.0030 C.3    11  DA11        0.1811
    205  C4'       -8.0230    3.8150  -11.1690 C.3    11  DA11        0.1746
    206  O4'       -6.6650    4.0340  -10.7080 O.3    11  DA11       -0.3327
    207  C3'       -7.9040    2.7660  -12.2650 C.3    11  DA11        0.1558
    208  O3'       -8.9770    2.8950  -13.1920 O.3    11  DA11       -0.3138
    209  C2'       -6.5480    3.0760  -12.8930 C.3    11  DA11        0.0865
    210  C1'       -5.7470    3.5690  -11.6810 C.3    11  DA11        0.2094
    211  N9        -4.9050    2.5300  -11.0700 N.ar   11  DA11       -0.2714
    212  C8        -5.1770    1.7610   -9.9690 C.ar   11  DA11        0.1815
    213  N7        -4.2570    0.8630   -9.7100 N.ar   11  DA11       -0.2193
    214  C5        -3.3160    1.0540  -10.7090 C.ar   11  DA11        0.1518
    215  C6        -2.0960    0.4160  -10.9950 C.ar   11  DA11        0.1919
    216  N6        -1.5970   -0.5850  -10.2660 N.pl3  11  DA11       -0.1054
    217  N1        -1.4000    0.8480  -12.0680 N.ar   11  DA11       -0.2040
    218  C2        -1.9000    1.8510  -12.7970 C.ar   11  DA11        0.2016
    219  N3        -3.0330    2.5300  -12.6280 N.ar   11  DA11       -0.2048
    220  C4        -3.7020    2.0770  -11.5550 C.ar   11  DA11        0.1691
    221  P         -9.5790    1.5330  -14.0980 P.3    12  DT12        0.2141
    222  OP1      -10.6270    1.9380  -15.0560 O.2    12  DT12       -0.5172
    223  OP2       -9.8300    0.4020  -13.1840 O.3    12  DT12       -0.4373
    224  O5'       -8.2180    1.1150  -14.8360 O.3    12  DT12       -0.3114
    225  C5'       -7.5330    2.0440  -15.6590 C.3    12  DT12        0.1811
    226  C4'       -6.3000    1.4480  -16.2940 C.3    12  DT12        0.1746
    227  O4'       -5.1930    1.5080  -15.3620 O.3    12  DT12       -0.3327
    228  C3'       -6.3520   -0.0220  -16.6980 C.3    12  DT12        0.1558
    229  O3'       -7.0310   -0.2560  -17.9170 O.3    12  DT12       -0.3138
    230  C2'       -4.8750   -0.3650  -16.7870 C.3    12  DT12        0.0866
    231  C1'       -4.3250    0.4210  -15.6010 C.3    12  DT12        0.2106
    232  N1        -4.1640   -0.4540  -14.4380 N.ar   12  DT12       -0.2559
    233  C2        -3.0330   -1.2490  -14.4440 C.ar   12  DT12        0.3545
    234  O2        -2.1850   -1.1910  -15.3170 O.2    12  DT12       -0.2443
    235  N3        -2.9310   -2.1210  -13.3870 N.ar   12  DT12       -0.1533
    236  C4        -3.8250   -2.2750  -12.3490 C.ar   12  DT12        0.2804
    237  O4        -3.5950   -3.1010  -11.4690 O.2    12  DT12       -0.2654
    238  C5        -4.9730   -1.4150  -12.4140 C.ar   12  DT12        0.0534
    239  C6        -5.0980   -0.5570  -13.4310 C.ar   12  DT12        0.0824
    240  C7        -6.0050   -1.5070  -11.3290 C.3    12  DT12        0.0377
    241  P         -8.1030   -1.4120  -18.0180 P.3    13  DT13        0.2141
    242  OP1       -9.2170   -1.3310  -18.9670 O.2    13  DT13       -0.5172
    243  OP2       -8.1210   -2.4170  -16.8860 O.3    13  DT13       -0.4373
    244  O5'       -6.7720   -1.6990  -18.8570 O.3    13  DT13       -0.3114
    245  C5'       -6.7700   -2.6480  -19.9260 C.3    13  DT13        0.1811
    246  C4'       -5.3530   -3.0460  -20.2310 C.3    13  DT13        0.1746
    247  O4'       -4.6420   -2.5930  -19.0680 O.3    13  DT13       -0.3327
    248  C3'       -4.9320   -4.4910  -20.1960 C.3    13  DT13        0.1558
    249  O3'       -5.2010   -5.2020  -21.4310 O.3    13  DT13       -0.3138
    250  C2'       -3.4410   -4.3140  -19.9530 C.3    13  DT13        0.0866
    251  C1'       -3.4670   -3.3410  -18.8230 C.3    13  DT13        0.2106
    252  N1        -3.5220   -3.7540  -17.5190 N.ar   13  DT13       -0.2559
    253  C2        -2.4350   -4.2910  -16.8570 C.ar   13  DT13        0.3545
    254  O2        -1.4430   -4.7030  -17.4320 O.2    13  DT13       -0.2443
    255  N3        -2.5490   -4.3300  -15.4880 N.ar   13  DT13       -0.1533
    256  C4        -3.6180   -3.8960  -14.7320 C.ar   13  DT13        0.2804
    257  O4        -3.5740   -3.9970  -13.5080 O.2    13  DT13       -0.2654
    258  C5        -4.7080   -3.3520  -15.4920 C.ar   13  DT13        0.0534
    259  C6        -4.6230   -3.3020  -16.8240 C.ar   13  DT13        0.0824
    260  C7        -5.9180   -2.8530  -14.7600 C.3    13  DT13        0.0377
    261  P         -5.6400   -6.6750  -21.1960 P.3    14  DC14        0.2141
    262  OP1       -6.1030   -7.1950  -22.5050 O.2    14  DC14       -0.5172
    263  OP2       -6.6730   -6.5100  -20.1020 O.3    14  DC14       -0.4373
    264  O5'       -4.5110   -7.6570  -20.6050 O.3    14  DC14       -0.3114
    265  C5'       -3.4930   -8.1500  -21.4980 C.3    14  DC14        0.1811
    266  C4'       -2.3320   -8.8020  -20.7250 C.3    14  DC14        0.1746
    267  O4'       -1.7450   -7.8550  -19.8000 O.3    14  DC14       -0.3327
    268  C3'       -2.6890   -9.9870  -19.8360 C.3    14  DC14        0.1558
    269  O3'       -2.8240  -11.1320  -20.6880 O.3    14  DC14       -0.3138
    270  C2'       -1.4440  -10.0440  -18.9700 C.3    14  DC14        0.0866
    271  C1'       -1.2610   -8.5710  -18.6630 C.3    14  DC14        0.2106
    272  N1        -2.0200   -8.2430  -17.4750 N.ar   14  DC14       -0.2556
    273  C2        -1.4820   -8.5530  -16.2210 C.ar   14  DC14        0.3531
    274  O2        -0.4440   -9.2340  -16.1680 O.2    14  DC14       -0.2443
    275  N3        -2.1050   -8.1030  -15.1060 N.ar   14  DC14       -0.1739
    276  C4        -3.2180   -7.3750  -15.2110 C.ar   14  DC14        0.1759
    277  N4        -3.7970   -6.9530  -14.0850 N.pl3  14  DC14       -0.1070
    278  C5        -3.7800   -7.0510  -16.4730 C.ar   14  DC14        0.0566
    279  C6        -3.1610   -7.4970  -17.5710 C.ar   14  DC14        0.0849
    280  P         -3.7090  -12.1260  -20.3470 P.3    15  DA15        0.2141
    281  OP1       -4.0490  -12.9330  -21.5380 O.2    15  DA15       -0.5172
    282  OP2       -4.7200  -11.2430  -19.7550 O.3    15  DA15       -0.4373
    283  O5'       -3.1110  -13.1320  -19.2790 O.3    15  DA15       -0.3114
    284  C5'       -1.8310  -13.7230  -19.4570 C.3    15  DA15        0.1811
    285  C4'       -1.2430  -14.1160  -18.1120 C.3    15  DA15        0.1746
    286  O4'       -0.9400  -12.9200  -17.3260 O.3    15  DA15       -0.3327
    287  C3'       -2.1350  -14.9200  -17.1970 C.3    15  DA15        0.1558
    288  O3'       -2.2090  -16.2950  -17.5510 O.3    15  DA15       -0.3138
    289  C2'       -1.4430  -14.6830  -15.8510 C.3    15  DA15        0.0865
    290  C1'       -1.1100  -13.2030  -15.9390 C.3    15  DA15        0.2094
    291  N9        -2.1990  -12.3790  -15.3920 N.ar   15  DA15       -0.2714
    292  C8        -3.1270  -11.7290  -16.1640 C.ar   15  DA15        0.1815
    293  N7        -4.0470  -11.1020  -15.4700 N.ar   15  DA15       -0.2193
    294  C5        -3.7000  -11.3580  -14.1530 C.ar   15  DA15        0.1518
    295  C6        -4.2790  -10.9720  -12.9310 C.ar   15  DA15        0.1919
    296  N6        -5.3740  -10.2150  -12.8370 N.pl3  15  DA15       -0.1054
    297  N1        -3.6850  -11.3980  -11.7950 N.ar   15  DA15       -0.2040
    298  C2        -2.5870  -12.1560  -11.8900 C.ar   15  DA15        0.2016
    299  N3        -1.9510  -12.5820  -12.9780 N.ar   15  DA15       -0.2048
    300  C4        -2.5650  -12.1440  -14.0890 C.ar   15  DA15        0.1691
    301  P         -3.6440  -17.1050  -17.4090 P.3    16  DA16        0.2141
    302  OP1       -3.4200  -18.2070  -18.3090 O.2    16  DA16       -0.5172
    303  OP2       -4.9210  -16.3430  -17.4070 O.3    16  DA16       -0.4373
    304  O5'       -3.5870  -17.5070  -15.9090 O.3    16  DA16       -0.3114
    305  C5'       -2.4230  -18.0330  -15.4210 C.3    16  DA16        0.1811
    306  C4'       -2.5900  -17.9820  -13.9170 C.3    16  DA16        0.1746
    307  O4'       -2.4650  -16.6280  -13.4650 O.3    16  DA16       -0.3327
    308  C3'       -4.0050  -18.2710  -13.4920 C.3    16  DA16        0.1558
    309  O3'       -4.3250  -19.6080  -13.5990 O.3    16  DA16       -0.3138
    310  C2'       -4.0080  -17.7250  -12.0650 C.3    16  DA16        0.0865
    311  C1'       -3.2120  -16.4580  -12.2670 C.3    16  DA16        0.2094
    312  N9        -4.1750  -15.4770  -12.4160 N.ar   16  DA16       -0.2714
    313  C8        -4.6470  -15.0120  -13.6160 C.ar   16  DA16        0.1815
    314  N7        -5.6050  -14.1230  -13.4990 N.ar   16  DA16       -0.2193
    315  C5        -5.7740  -13.9960  -12.1300 C.ar   16  DA16        0.1518
    316  C6        -6.6400  -13.2060  -11.3530 C.ar   16  DA16        0.1919
    317  N6        -7.5330  -12.3600  -11.8700 N.pl3  16  DA16       -0.1054
    318  N1        -6.5540  -13.3170  -10.0100 N.ar   16  DA16       -0.2040
    319  C2        -5.6570  -14.1650   -9.4920 C.ar   16  DA16        0.2016
    320  N3        -4.7900  -14.9580  -10.1180 N.ar   16  DA16       -0.2048
    321  C4        -4.9020  -14.8240  -11.4500 C.ar   16  DA16        0.1691
    322  P         -5.6520  -19.9970  -13.8420 P.3    17  DT17        0.2141
    323  OP1       -5.3550  -21.4270  -14.1160 O.3    17  DT17       -0.4373
    324  OP2       -6.4950  -19.2290  -14.7950 O.2    17  DT17       -0.5172
    325  O5'       -6.3070  -19.8790  -12.3920 O.3    17  DT17       -0.3114
    326  C5'       -5.7300  -20.5710  -11.2680 C.3    17  DT17        0.1811
    327  C4'       -6.3230  -20.0700   -9.9710 C.3    17  DT17        0.1746
    328  O4'       -6.0990  -18.6390   -9.8620 O.3    17  DT17       -0.3327
    329  C3'       -7.8280  -20.1880   -9.7960 C.3    17  DT17        0.1558
    330  O3'       -8.2580  -21.4990   -9.4370 O.3    17  DT17       -0.3138
    331  C2'       -8.0800  -19.1790   -8.6850 C.3    17  DT17        0.0866
    332  C1'       -7.1480  -18.0480   -9.1080 C.3    17  DT17        0.2106
    333  N1        -7.8290  -17.0790   -9.9150 N.ar   17  DT17       -0.2559
    334  C2        -8.6230  -16.1370   -9.2900 C.ar   17  DT17        0.3545
    335  O2        -8.7860  -16.1000   -8.0840 O.2    17  DT17       -0.2443
    336  N3        -9.2260  -15.2340  -10.1330 N.ar   17  DT17       -0.1533
    337  C4        -9.1150  -15.1790  -11.5070 C.ar   17  DT17        0.2804
    338  O4        -9.7170  -14.3070  -12.1280 O.2    17  DT17       -0.2654
    339  C5        -8.2740  -16.1910  -12.0810 C.ar   17  DT17        0.0534
    340  C6        -7.6760  -17.0820  -11.2850 C.ar   17  DT17        0.0824
    341  C7        -8.0910  -16.2160  -13.5700 C.3    17  DT17        0.0377
    342  P         -9.8940  -21.9080   -9.6020 P.3    18  DT18        0.2141
    343  OP1       -9.9140  -23.3880   -9.6730 O.3    18  DT18       -0.4373
    344  OP2       -9.9770  -21.1010  -10.8430 O.2    18  DT18       -0.5172
    345  O5'      -11.0900  -21.3580   -8.6860 O.3    18  DT18       -0.3114
    346  C5'      -11.0590  -21.6250   -7.2890 C.3    18  DT18        0.1811
    347  C4'      -11.3270  -20.3980   -6.4470 C.3    18  DT18        0.1746
    348  O4'      -10.4360  -19.3160   -6.8220 O.3    18  DT18       -0.3327
    349  C3'      -12.7090  -19.7800   -6.5760 C.3    18  DT18        0.1558
    350  O3'      -13.7090  -20.4840   -5.8600 O.3    18  DT18       -0.3138
    351  C2'      -12.4730  -18.3610   -6.0730 C.3    18  DT18        0.0866
    352  C1'      -11.0870  -18.0730   -6.6500 C.3    18  DT18        0.2106
    353  N1       -11.1730  -17.3500   -7.8340 N.ar   18  DT18       -0.2559
    354  C2       -11.4080  -15.9880   -7.8020 C.ar   18  DT18        0.3545
    355  O2       -11.4960  -15.3530   -6.7660 O.2    18  DT18       -0.2443
    356  N3       -11.5390  -15.3930   -9.0340 N.ar   18  DT18       -0.1533
    357  C4       -11.4600  -16.0080  -10.2650 C.ar   18  DT18        0.2804
    358  O4       -11.5980  -15.3390  -11.2860 O.2    18  DT18       -0.2654
    359  C5       -11.2150  -17.4220  -10.2140 C.ar   18  DT18        0.0534
    360  C6       -11.0830  -18.0270   -9.0300 C.ar   18  DT18        0.0824
    361  C7       -11.1130  -18.1830  -11.5030 C.3    18  DT18        0.0377
    362  P        -15.3040  -20.2320   -6.2290 P.3    19  DA19        0.2141
    363  OP1      -16.1350  -21.3010   -5.6360 O.3    19  DA19       -0.4373
    364  OP2      -15.1880  -20.1090   -7.6990 O.2    19  DA19       -0.5172
    365  O5'      -15.8640  -18.8080   -5.7570 O.3    19  DA19       -0.3114
    366  C5'      -15.9790  -18.4650   -4.3830 C.3    19  DA19        0.1811
    367  C4'      -16.5970  -17.0990   -4.2350 C.3    19  DA19        0.1746
    368  O4'      -15.6200  -16.0800   -4.5720 O.3    19  DA19       -0.3327
    369  C3'      -17.7590  -16.8210   -5.1750 C.3    19  DA19        0.1558
    370  O3'      -18.9850  -17.3720   -4.7240 O.3    19  DA19       -0.3138
    371  C2'      -17.7410  -15.3000   -5.2880 C.3    19  DA19        0.0865
    372  C1'      -16.2360  -15.0320   -5.2920 C.3    19  DA19        0.2094
    373  N9       -15.6810  -15.0460   -6.7000 N.ar   19  DA19       -0.2714
    374  C8       -15.1220  -16.0960   -7.3810 C.ar   19  DA19        0.1815
    375  N7       -14.7760  -15.8040   -8.6120 N.ar   19  DA19       -0.2193
    376  C5       -15.1330  -14.4720   -8.7500 C.ar   19  DA19        0.1518
    377  C6       -15.0280  -13.5710   -9.8240 C.ar   19  DA19        0.1919
    378  N6       -14.5090  -13.8930  -11.0110 N.pl3  19  DA19       -0.1054
    379  N1       -15.4800  -12.3130   -9.6330 N.ar   19  DA19       -0.2040
    380  C2       -15.9990  -11.9910   -8.4420 C.ar   19  DA19        0.2016
    381  N3       -16.1500  -12.7490   -7.3590 N.ar   19  DA19       -0.2048
    382  C4       -15.6930  -13.9920   -7.5810 C.ar   19  DA19        0.1691
    383  P        -20.2300  -17.7250   -5.8100 P.3    20  DA20        0.2141
    384  OP1      -21.4210  -18.4540   -5.2810 O.3    20  DA20       -0.4373
    385  OP2      -19.4100  -18.3740   -6.8770 O.2    20  DA20       -0.5172
    386  O5'      -20.6860  -16.2940   -6.3820 O.3    20  DA20       -0.3114
    387  C5'      -21.2860  -15.2780   -5.5420 C.3    20  DA20        0.1811
    388  C4'      -21.2730  -13.9190   -6.2360 C.3    20  DA20        0.1746
    389  O4'      -19.8960  -13.5450   -6.4810 O.3    20  DA20       -0.3327
    390  C3'      -21.9170  -13.8340   -7.6190 C.3    20  DA20        0.1558
    391  O3'      -23.3280  -13.6880   -7.6420 O.3    20  DA20       -0.3138
    392  C2'      -21.1920  -12.6640   -8.2700 C.3    20  DA20        0.0865
    393  C1'      -19.7890  -12.8540   -7.7170 C.3    20  DA20        0.2094
    394  N9       -19.0280  -13.6120   -8.6860 N.ar   20  DA20       -0.2714
    395  C8       -18.5990  -14.9120   -8.6240 C.ar   20  DA20        0.1815
    396  N7       -17.9210  -15.2960   -9.6790 N.ar   20  DA20       -0.2193
    397  C5       -17.9050  -14.1720  -10.4900 C.ar   20  DA20        0.1518
    398  C6       -17.3430  -13.9260  -11.7550 C.ar   20  DA20        0.1919
    399  N6       -16.6600  -14.8390  -12.4510 N.pl3  20  DA20       -0.1054
    400  N1       -17.5090  -12.6960  -12.2870 N.ar   20  DA20       -0.2040
    401  C2       -18.1930  -11.7820  -11.5880 C.ar   20  DA20        0.2016
    402  N3       -18.7660  -11.8940  -10.3920 N.ar   20  DA20       -0.2048
    403  C4       -18.5840  -13.1270   -9.8920 C.ar   20  DA20        0.1691
    404  P        -24.2680  -14.6760   -8.6130 P.3    21  DT21        0.2141
    405  OP1      -25.6560  -14.2730   -8.2670 O.3    21  DT21       -0.4373
    406  OP2      -23.9870  -16.0850   -9.0000 O.2    21  DT21       -0.5172
    407  O5'      -23.7650  -13.7410   -9.7970 O.3    21  DT21       -0.3114
    408  C5'      -23.9490  -12.3310   -9.7420 C.3    21  DT21        0.1811
    409  C4'      -23.7100  -11.7370  -11.1020 C.3    21  DT21        0.1746
    410  O4'      -22.2870  -11.7530  -11.4120 O.3    21  DT21       -0.3327
    411  C3'      -24.3300  -12.5460  -12.2210 C.3    21  DT21        0.1558
    412  O3'      -25.7180  -12.2850  -12.3580 O.3    21  DT21       -0.3138
    413  C2'      -23.4950  -12.1100  -13.4150 C.3    21  DT21        0.0866
    414  C1'      -22.0990  -12.0650  -12.7870 C.3    21  DT21        0.2106
    415  N1       -21.3210  -13.4300  -12.7470 N.ar   21  DT21       -0.2559
    416  C2       -20.5330  -13.6830  -13.8530 C.ar   21  DT21        0.3545
    417  O2       -20.4620  -12.9260  -14.8050 O.2    21  DT21       -0.2443
    418  N3       -19.8260  -14.8600  -13.8060 N.ar   21  DT21       -0.1533
    419  C4       -19.8290  -15.7890  -12.7870 C.ar   21  DT21        0.2804
    420  O4       -19.1390  -16.8010  -12.8890 O.2    21  DT21       -0.2654
    421  C5       -20.6730  -15.4560  -11.6740 C.ar   21  DT21        0.0534
    422  C6       -21.3710  -14.3170  -11.6940 C.ar   21  DT21        0.0824
    423  C7       -20.7450  -16.4050  -10.5140 C.3    21  DT21        0.0377
    424  P        -26.6710  -13.4170  -12.9850 P.3    22  DC22        0.2141
    425  OP1      -28.0660  -13.0280  -12.6890 O.2    22  DC22       -0.5172
    426  OP2      -26.1520  -14.7070  -12.4480 O.3    22  DC22       -0.4373
    427  O5'      -26.5090  -13.3980  -14.5780 O.3    22  DC22       -0.3114
    428  C5'      -26.8240  -12.2230  -15.3340 C.3    22  DC22        0.1811
    429  C4'      -26.0190  -12.1550  -16.6230 C.3    22  DC22        0.1746
    430  O4'      -24.6010  -12.2260  -16.3140 O.3    22  DC22       -0.3327
    431  C3'      -26.2010  -13.2460  -17.6700 C.3    22  DC22        0.1558
    432  O3'      -27.3280  -13.0500  -18.5100 O.3    22  DC22       -0.3138
    433  C2'      -24.9170  -13.1540  -18.4830 C.3    22  DC22        0.0866
    434  C1'      -23.8950  -12.7700  -17.4200 C.3    22  DC22        0.2106
    435  N1       -23.2030  -13.9650  -17.0540 N.ar   22  DC22       -0.2556
    436  C2       -22.3080  -14.6110  -17.9140 C.ar   22  DC22        0.3531
    437  O2       -22.1220  -14.1380  -19.0480 O.2    22  DC22       -0.2443
    438  N3       -21.6750  -15.7300  -17.4880 N.ar   22  DC22       -0.1739
    439  C4       -21.9070  -16.2020  -16.2620 C.ar   22  DC22        0.1759
    440  N4       -21.2590  -17.3070  -15.8860 N.pl3  22  DC22       -0.1070
    441  C5       -22.8100  -15.5620  -15.3750 C.ar   22  DC22        0.0566
    442  C6       -23.4340  -14.4580  -15.8000 C.ar   22  DC22        0.0849
    443  P        -27.9150  -14.3070  -19.3590 P.3    23  DG23        0.2141
    444  OP1      -29.0590  -13.6100  -20.0260 O.2    23  DG23       -0.5172
    445  OP2      -28.1870  -15.3680  -18.3510 O.3    23  DG23       -0.4373
    446  O5'      -26.9800  -14.9390  -20.4880 O.3    23  DG23       -0.3114
    447  C5'      -26.7320  -14.2390  -21.7270 C.3    23  DG23        0.1811
    448  C4'      -25.8850  -15.0870  -22.6470 C.3    23  DG23        0.1746
    449  O4'      -24.5700  -15.2600  -22.0680 O.3    23  DG23       -0.3327
    450  C3'      -26.3870  -16.4990  -22.8780 C.3    23  DG23        0.1558
    451  O3'      -27.3670  -16.5480  -23.9040 O.3    23  DG23       -0.3138
    452  C2'      -25.1140  -17.2550  -23.2410 C.3    23  DG23        0.0865
    453  C1'      -24.0780  -16.5550  -22.3680 C.3    23  DG23        0.2094
    454  N9       -23.8270  -17.2420  -21.1050 N.ar   23  DG23       -0.2713
    455  C8       -24.3390  -16.9460  -19.8650 C.ar   23  DG23        0.1816
    456  N7       -24.0350  -17.8340  -18.9570 N.ar   23  DG23       -0.2173
    457  C5       -23.2760  -18.7710  -19.6340 C.ar   23  DG23        0.1748
    458  C6       -22.6630  -19.9660  -19.1780 C.ar   23  DG23        0.3023
    459  O6       -22.6750  -20.4460  -18.0370 O.2    23  DG23       -0.2633
    460  N1       -21.9850  -20.6260  -20.1990 N.ar   23  DG23       -0.1709
    461  C2       -21.9050  -20.1870  -21.4990 C.ar   23  DG23        0.2606
    462  N2       -21.2040  -20.9580  -22.3410 N.pl3  23  DG23       -0.0859
    463  N3       -22.4700  -19.0790  -21.9380 N.ar   23  DG23       -0.1918
    464  C4       -23.1350  -18.4230  -20.9640 C.ar   23  DG23        0.1722
    465  P        -28.4860  -17.8490  -23.9340 P.3    24  DC24        0.2141
    466  OP1      -29.3840  -17.5810  -25.0800 O.2    24  DC24       -0.5172
    467  OP2      -28.9770  -17.9700  -22.5320 O.3    24  DC24       -0.4373
    468  O5'      -27.6900  -19.1840  -24.2580 O.3    24  DC24       -0.3114
    469  C5'      -27.1620  -19.3950  -25.5710 C.3    24  DC24        0.1811
    470  C4'      -26.0490  -20.4400  -25.5670 C.3    24  DC24        0.1746
    471  O4'      -25.0850  -20.1610  -24.5270 O.3    24  DC24       -0.3327
    472  C3'      -26.4960  -21.8500  -25.2130 C.3    24  DC24        0.1558
    473  O3'      -27.0690  -22.4800  -26.3300 O.3    24  DC24       -0.3138
    474  C2'      -25.2000  -22.5070  -24.7640 C.3    24  DC24        0.0866
    475  C1'      -24.5960  -21.3630  -23.9460 C.3    24  DC24        0.2106
    476  N1       -25.0080  -21.3850  -22.5090 N.ar   24  DC24       -0.2556
    477  C2       -24.4370  -22.3200  -21.6380 C.ar   24  DC24        0.3531
    478  O2       -23.7420  -23.2340  -22.1140 O.2    24  DC24       -0.2443
    479  N3       -24.6570  -22.2020  -20.3070 N.ar   24  DC24       -0.1739
    480  C4       -25.4100  -21.2050  -19.8410 C.ar   24  DC24        0.1759
    481  N4       -25.5990  -21.1290  -18.5220 N.pl3  24  DC24       -0.1070
    482  C5       -25.9980  -20.2470  -20.7070 C.ar   24  DC24        0.0566
    483  C6       -25.7780  -20.3670  -22.0210 C.ar   24  DC24        0.0849
    484  P        -28.3840  -22.9700  -26.1310 P.3    25  DA25        0.2141
    485  OP1      -28.7900  -23.3560  -27.5100 O.2    25  DA25       -0.5172
    486  OP2      -29.3360  -22.2090  -25.2720 O.3    25  DA25       -0.4373
    487  O5'      -27.9340  -24.2640  -25.3180 O.3    25  DA25       -0.3114
    488  C5'      -26.9500  -25.1290  -25.8510 C.3    25  DA25        0.1811
    489  C4'      -26.7710  -26.3070  -24.9450 C.3    25  DA25        0.1746
    490  O4'      -25.9650  -25.9180  -23.8040 O.3    25  DA25       -0.3327
    491  C3'      -28.0540  -26.8700  -24.3520 C.3    25  DA25        0.1558
    492  O3'      -28.7320  -27.7880  -25.2160 O.3    25  DA25       -0.3138
    493  C2'      -27.5450  -27.5550  -23.0940 C.3    25  DA25        0.0865
    494  C1'      -26.4220  -26.6050  -22.6510 C.3    25  DA25        0.2094
    495  N9       -26.9690  -25.5730  -21.7150 N.ar   25  DA25       -0.2714
    496  C8       -27.4760  -24.3350  -22.0120 C.ar   25  DA25        0.1815
    497  N7       -27.8810  -23.6640  -20.9600 N.ar   25  DA25       -0.2193
    498  C5       -27.6240  -24.5200  -19.9010 C.ar   25  DA25        0.1518
    499  C6       -27.8270  -24.3980  -18.5150 C.ar   25  DA25        0.1919
    500  N6       -28.3580  -23.3170  -17.9380 N.pl3  25  DA25       -0.1054
    501  N1       -27.4620  -25.4370  -17.7340 N.ar   25  DA25       -0.2040
    502  C2       -26.9290  -26.5190  -18.3130 C.ar   25  DA25        0.2016
    503  N3       -26.6890  -26.7510  -19.6020 N.ar   25  DA25       -0.2048
    504  C4       -27.0640  -25.7000  -20.3510 C.ar   25  DA25        0.1691
    505  P        -30.4030  -27.9930  -25.1360 P.3    26  DT26        0.2141
    506  OP1      -31.1110  -29.0050  -25.9470 O.2    26  DT26       -0.5172
    507  OP2      -30.9570  -26.6240  -25.0270 O.3    26  DT26       -0.4373
    508  O5'      -30.2760  -28.5950  -23.6660 O.3    26  DT26       -0.3114
    509  C5'      -29.7580  -29.9080  -23.4790 C.3    26  DT26        0.1811
    510  C4'      -29.8530  -30.3180  -22.0270 C.3    26  DT26        0.1746
    511  O4'      -28.8790  -29.5870  -21.2290 O.3    26  DT26       -0.3327
    512  C3'      -31.1940  -30.0770  -21.3530 C.3    26  DT26        0.1558
    513  O3'      -32.1300  -31.1140  -21.6410 O.3    26  DT26       -0.3138
    514  C2'      -30.8030  -29.9850  -19.8770 C.3    26  DT26        0.0866
    515  C1'      -29.4320  -29.3040  -19.9590 C.3    26  DT26        0.2106
    516  N1       -29.4590  -27.8510  -19.7810 N.ar   26  DT26       -0.2559
    517  C2       -29.5060  -27.3940  -18.4780 C.ar   26  DT26        0.3545
    518  O2       -29.3540  -28.1210  -17.5130 O.2    26  DT26       -0.2443
    519  N3       -29.7410  -26.0470  -18.3430 N.ar   26  DT26       -0.1533
    520  C4       -29.9290  -25.1310  -19.3580 C.ar   26  DT26        0.2804
    521  O4       -30.1300  -23.9520  -19.0790 O.2    26  DT26       -0.2654
    522  C5       -29.8670  -25.6830  -20.6820 C.ar   26  DT26        0.0534
    523  C6       -29.6390  -26.9900  -20.8420 C.ar   26  DT26        0.0824
    524  C7       -30.0600  -24.7670  -21.8540 C.3    26  DT26        0.0377
    525  P        -33.8650  -30.7860  -21.7300 P.3    27  DT27        0.2141
    526  OP1      -34.7860  -31.8200  -22.2730 O.3    27  DT27       -0.4373
    527  OP2      -33.7980  -29.4530  -22.3830 O.2    27  DT27       -0.5172
    528  O5'      -34.2090  -30.5830  -20.1900 O.3    27  DT27       -0.3114
    529  C5'      -34.1500  -31.6810  -19.2880 C.3    27  DT27        0.1812
    530  C4'      -34.3370  -31.2040  -17.8720 C.3    27  DT27        0.1775
    531  O4'      -33.1880  -30.4170  -17.4660 O.3    27  DT27       -0.3326
    532  C3'      -35.4890  -30.2470  -17.6520 C.3    27  DT27        0.1864
    533  O3'      -36.7350  -30.9200  -17.6160 O.3    27  DT27       -0.2133
    534  C2'      -35.1090  -29.6040  -16.3250 C.3    27  DT27        0.0895
    535  C1'      -33.5950  -29.4630  -16.4920 C.3    27  DT27        0.2107
    536  N1       -33.2490  -28.1320  -16.9270 N.ar   27  DT27       -0.2559
    537  C2       -33.0390  -27.1570  -15.9700 C.ar   27  DT27        0.3545
    538  O2       -33.1950  -27.3510  -14.7780 O.2    27  DT27       -0.2443
    539  N3       -32.6380  -25.9380  -16.4620 N.ar   27  DT27       -0.1533
    540  C4       -32.4320  -25.6050  -17.7840 C.ar   27  DT27        0.2804
    541  O4       -32.0700  -24.4660  -18.0720 O.2    27  DT27       -0.2654
    542  C5       -32.6720  -26.6700  -18.7160 C.ar   27  DT27        0.0534
    543  C6       -33.0620  -27.8650  -18.2650 C.ar   27  DT27        0.0824
    544  C7       -32.4750  -26.4060  -20.1790 C.3    27  DT27        0.0377
    545  P        -38.0750  -30.2120  -18.1670 P.3    28  DA28        0.3939
    546  OP1      -37.6730  -31.6210  -18.3480 O.3    28  DA28       -0.1496
    547  OP2      -39.4060  -29.8020  -18.6580 O.3    28  DA28       -0.1425
    548  O5'      -38.1460  -29.8790  -16.6020 O.3    28  DA28       -0.2926
    549  C5'      -39.3230  -30.3460  -15.9530 C.3    28  DA28        0.1828
    550  C4'      -39.6780  -29.6100  -14.6820 C.3    28  DA28        0.1747
    551  O4'      -38.5700  -29.7760  -13.7590 O.3    28  DA28       -0.3327
    552  C3'      -39.9400  -28.1040  -14.8100 C.3    28  DA28        0.1558
    553  O3'      -41.2790  -27.6920  -14.5130 O.3    28  DA28       -0.3138
    554  C2'      -38.9910  -27.4380  -13.8160 C.3    28  DA28        0.0865
    555  C1'      -38.2370  -28.5620  -13.1220 C.3    28  DA28        0.2094
    556  N9       -36.9530  -27.9930  -13.6280 N.ar   28  DA28       -0.2714
    557  C8       -36.2640  -28.2150  -14.7920 C.ar   28  DA28        0.1815
    558  N7       -35.1840  -27.4790  -14.9160 N.ar   28  DA28       -0.2193
    559  C5       -35.1640  -26.7220  -13.7550 C.ar   28  DA28        0.1518
    560  C6       -34.2720  -25.7450  -13.2790 C.ar   28  DA28        0.1919
    561  N6       -33.1830  -25.3510  -13.9440 N.pl3  28  DA28       -0.1054
    562  N1       -34.5410  -25.1820  -12.0820 N.ar   28  DA28       -0.2040
    563  C2       -35.6320  -25.5780  -11.4160 C.ar   28  DA28        0.2016
    564  N3       -36.5430  -26.4860  -11.7590 N.ar   28  DA28       -0.2048
    565  C4       -36.2470  -27.0260  -12.9530 C.ar   28  DA28        0.1691
    566  P        -41.8130  -26.1620  -15.2590 P.3    29  DC29        0.2141
    567  OP1      -43.2230  -26.2510  -15.7250 O.3    29  DC29       -0.4373
    568  OP2      -40.7480  -25.7520  -16.2150 O.2    29  DC29       -0.5172
    569  O5'      -41.7520  -25.2320  -13.9550 O.3    29  DC29       -0.3114
    570  C5'      -41.7190  -23.8040  -14.0430 C.3    29  DC29        0.1811
    571  C4'      -40.9300  -23.2240  -12.8840 C.3    29  DC29        0.1746
    572  O4'      -39.7810  -24.0720  -12.6390 O.3    29  DC29       -0.3327
    573  C3'      -40.3880  -21.8230  -13.1280 C.3    29  DC29        0.1558
    574  O3'      -41.2650  -20.8230  -12.6090 O.3    29  DC29       -0.3138
    575  C2'      -39.0250  -21.8380  -12.4360 C.3    29  DC29        0.0866
    576  C1'      -38.6000  -23.2930  -12.6360 C.3    29  DC29        0.2106
    577  N1       -37.8370  -23.7190  -13.9560 N.ar   29  DC29       -0.2556
    578  C2       -36.5690  -23.1730  -14.1910 C.ar   29  DC29        0.3531
    579  O2       -36.0650  -22.4380  -13.3240 O.2    29  DC29       -0.2443
    580  N3       -35.9320  -23.4600  -15.3510 N.ar   29  DC29       -0.1739
    581  C4       -36.5120  -24.2520  -16.2530 C.ar   29  DC29        0.1759
    582  N4       -35.8460  -24.5070  -17.3810 N.pl3  29  DC29       -0.1070
    583  C5       -37.7960  -24.8150  -16.0340 C.ar   29  DC29        0.0566
    584  C6       -38.4220  -24.5300  -14.8870 C.ar   29  DC29        0.0849
    585  P        -41.1910  -19.2140  -13.1930 P.3    30  DC30        0.2141
    586  OP1      -42.0700  -18.4200  -12.3000 O.3    30  DC30       -0.4373
    587  OP2      -41.5840  -19.4010  -14.6130 O.2    30  DC30       -0.5172
    588  O5'      -39.7090  -18.6300  -13.1030 O.3    30  DC30       -0.3114
    589  C5'      -38.9600  -18.7300  -11.8680 C.3    30  DC30        0.1812
    590  C4'      -37.4640  -18.6860  -12.1230 C.3    30  DC30        0.1775
    591  O4'      -37.0640  -19.8100  -12.9510 O.3    30  DC30       -0.3326
    592  C3'      -36.9130  -17.4640  -12.8420 C.3    30  DC30        0.1864
    593  O3'      -36.6630  -16.3940  -11.9500 O.3    30  DC30       -0.2133
    594  C2'      -35.6110  -17.9840  -13.4380 C.3    30  DC30        0.0895
    595  C1'      -35.9830  -19.4240  -13.7910 C.3    30  DC30        0.2107
    596  N1       -36.2200  -19.3350  -15.1270 N.ar   30  DC30       -0.2556
    597  C2       -35.2580  -19.0480  -16.1020 C.ar   30  DC30        0.3531
    598  O2       -34.1110  -18.7360  -15.7360 O.2    30  DC30       -0.2443
    599  N3       -35.6030  -19.1160  -17.4090 N.ar   30  DC30       -0.1739
    600  C4       -36.8460  -19.4540  -17.7540 C.ar   30  DC30        0.1759
    601  N4       -37.1400  -19.5080  -19.0560 N.pl3  30  DC30       -0.1070
    602  C5       -37.8360  -19.7490  -16.7820 C.ar   30  DC30        0.0566
    603  C6       -37.4900  -19.6800  -15.4910 C.ar   30  DC30        0.0849
    604  P        -37.1230  -14.7990  -12.8940 P.3    31  DT31        0.3939
    605  OP1      -36.5960  -15.1520  -11.5570 O.3    31  DT31       -0.1496
    606  OP2      -38.3710  -14.0120  -13.0060 O.3    31  DT31       -0.1425
    607  O5'      -36.0190  -13.8980  -13.6300 O.3    31  DT31       -0.2926
    608  C5'      -36.1210  -13.5820  -15.0170 C.3    31  DT31        0.1828
    609  C4'      -35.0830  -14.3230  -15.8240 C.3    31  DT31        0.1747
    610  O4'      -35.4830  -14.3820  -17.2230 O.3    31  DT31       -0.3327
    611  C3'      -33.6720  -13.7310  -15.8060 C.3    31  DT31        0.1558
    612  O3'      -32.7230  -14.8000  -15.8500 O.3    31  DT31       -0.3138
    613  C2'      -33.6280  -12.9830  -17.1360 C.3    31  DT31        0.0866
    614  C1'      -34.3790  -13.9800  -18.0090 C.3    31  DT31        0.2106
    615  N1       -35.0840  -13.7620  -19.2490 N.ar   31  DT31       -0.2559
    616  C2       -36.3890  -13.4970  -19.6180 C.ar   31  DT31        0.3545
    617  O2       -37.3520  -13.8960  -18.9870 O.2    31  DT31       -0.2443
    618  N3       -36.5290  -12.7470  -20.7600 N.ar   31  DT31       -0.1533
    619  C4       -35.5170  -12.2450  -21.5520 C.ar   31  DT31        0.2804
    620  O4       -35.8000  -11.5860  -22.5500 O.2    31  DT31       -0.2654
    621  C5       -34.1910  -12.5630  -21.1030 C.ar   31  DT31        0.0534
    622  C6       -34.0260  -13.2920  -19.9960 C.ar   31  DT31        0.0824
    623  C7       -33.0220  -12.0620  -21.8980 C.3    31  DT31        0.0377
    624  P        -31.3660  -14.9680  -14.4270 P.3    32  DT32        0.2141
    625  OP1      -30.9580  -13.7290  -13.7200 O.3    32  DT32       -0.4373
    626  OP2      -30.4900  -15.5830  -15.4530 O.2    32  DT32       -0.5172
    627  O5'      -31.6020  -16.1240  -13.3440 O.3    32  DT32       -0.3114
    628  C5'      -32.2640  -15.8440  -12.1230 C.3    32  DT32        0.1811
    629  C4'      -32.7450  -17.1060  -11.4630 C.3    32  DT32        0.1746
    630  O4'      -33.6070  -17.8290  -12.3700 O.3    32  DT32       -0.3327
    631  C3'      -31.6820  -18.1290  -11.1270 C.3    32  DT32        0.1558
    632  O3'      -30.9790  -17.8280   -9.9440 O.3    32  DT32       -0.3138
    633  C2'      -32.4590  -19.4320  -11.0420 C.3    32  DT32        0.0866
    634  C1'      -33.5240  -19.2120  -12.1050 C.3    32  DT32        0.2106
    635  N1       -33.0860  -19.9820  -13.2950 N.ar   32  DT32       -0.2559
    636  C2       -33.4190  -21.3150  -13.4370 C.ar   32  DT32        0.3545
    637  O2       -34.0020  -21.9500  -12.5760 O.2    32  DT32       -0.2443
    638  N3       -33.0410  -21.8850  -14.6290 N.ar   32  DT32       -0.1533
    639  C4       -32.3790  -21.2680  -15.6700 C.ar   32  DT32        0.2804
    640  O4       -32.1080  -21.9120  -16.6800 O.2    32  DT32       -0.2654
    641  C5       -32.0680  -19.8850  -15.4460 C.ar   32  DT32        0.0534
    642  C6       -32.4240  -19.3060  -14.2960 C.ar   32  DT32        0.0824
    643  C7       -31.3470  -19.1260  -16.5200 C.3    32  DT32        0.0377
    644  P        -29.3900  -18.0310  -10.0790 P.3    33  DA33        0.2141
    645  OP1      -28.7260  -17.6160   -8.8240 O.3    33  DA33       -0.4373
    646  OP2      -28.8680  -17.5760  -11.4030 O.2    33  DA33       -0.5172
    647  O5'      -29.5310  -19.5930  -10.1530 O.3    33  DA33       -0.3114
    648  C5'      -29.6760  -20.0250   -8.8480 C.3    33  DA33        0.1811
    649  C4'      -29.9720  -21.4940   -8.8690 C.3    33  DA33        0.1746
    650  O4'      -30.8590  -21.7400   -9.9560 O.3    33  DA33       -0.3327
    651  C3'      -28.7760  -22.3100   -9.2120 C.3    33  DA33        0.1558
    652  O3'      -27.9800  -22.4010   -8.0240 O.3    33  DA33       -0.3138
    653  C2'      -29.4570  -23.5690   -9.8050 C.3    33  DA33        0.0865
    654  C1'      -30.6170  -22.9890  -10.5080 C.3    33  DA33        0.2094
    655  N9       -30.3120  -22.6430  -11.9330 N.ar   33  DA33       -0.2714
    656  C8       -29.9710  -21.4000  -12.3980 C.ar   33  DA33        0.1815
    657  N7       -29.7480  -21.3610  -13.6910 N.ar   33  DA33       -0.2193
    658  C5       -29.9560  -22.6680  -14.1020 C.ar   33  DA33        0.1518
    659  C6       -29.8780  -23.2860  -15.3630 C.ar   33  DA33        0.1919
    660  N6       -29.5550  -22.6390  -16.4850 N.pl3  33  DA33       -0.1054
    661  N1       -30.1450  -24.6080  -15.4300 N.ar   33  DA33       -0.2040
    662  C2       -30.4690  -25.2550  -14.3040 C.ar   33  DA33        0.2016
    663  N3       -30.5760  -24.7840  -13.0640 N.ar   33  DA33       -0.2048
    664  C4       -30.3030  -23.4690  -13.0310 C.ar   33  DA33        0.1691
    665  P        -26.4200  -23.0050   -8.3220 P.3    34  DT34        0.2141
    666  OP1      -25.5820  -23.0900   -7.1040 O.3    34  DT34       -0.4373
    667  OP2      -26.4540  -21.7660   -9.1360 O.2    34  DT34       -0.5172
    668  O5'      -26.0320  -24.2390   -9.2580 O.3    34  DT34       -0.3114
    669  C5'      -25.6660  -25.4510   -8.6310 C.3    34  DT34        0.1811
    670  C4'      -26.0810  -26.6210   -9.4940 C.3    34  DT34        0.1746
    671  O4'      -27.1990  -26.2490  -10.3340 O.3    34  DT34       -0.3327
    672  C3'      -25.0270  -27.0330  -10.5010 C.3    34  DT34        0.1558
    673  O3'      -24.0500  -27.8220   -9.8770 O.3    34  DT34       -0.3138
    674  C2'      -25.8570  -27.7920  -11.5320 C.3    34  DT34        0.0866
    675  C1'      -27.0660  -26.8690  -11.6030 C.3    34  DT34        0.2106
    676  N1       -26.9000  -25.6960  -12.6250 N.ar   34  DT34       -0.2559
    677  C2       -27.0020  -25.9700  -13.9750 C.ar   34  DT34        0.3545
    678  O2       -27.0430  -27.1030  -14.4220 O.2    34  DT34       -0.2443
    679  N3       -27.0540  -24.8650  -14.7900 N.ar   34  DT34       -0.1533
    680  C4       -27.0150  -23.5430  -14.3980 C.ar   34  DT34        0.2804
    681  O4       -27.0720  -22.6580  -15.2490 O.2    34  DT34       -0.2654
    682  C5       -26.9080  -23.3410  -12.9810 C.ar   34  DT34        0.0534
    683  C6       -26.8550  -24.3970  -12.1660 C.ar   34  DT34        0.0824
    684  C7       -26.8580  -21.9370  -12.4550 C.3    34  DT34        0.0377
    685  P        -22.5990  -27.4540  -10.1920 P.3    35  DA35        0.2141
    686  OP1      -21.6010  -28.1620   -9.3450 O.3    35  DA35       -0.4373
    687  OP2      -22.5850  -25.9730  -10.2640 O.2    35  DA35       -0.5172
    688  O5'      -22.4640  -28.0340  -11.6680 O.3    35  DA35       -0.3114
    689  C5'      -22.4650  -29.4510  -11.9080 C.3    35  DA35        0.1811
    690  C4'      -22.4570  -29.7240  -13.3910 C.3    35  DA35        0.1746
    691  O4'      -23.6730  -29.2060  -13.9870 O.3    35  DA35       -0.3327
    692  C3'      -21.3460  -29.0530  -14.1830 C.3    35  DA35        0.1558
    693  O3'      -20.1480  -29.8200  -14.1200 O.3    35  DA35       -0.3138
    694  C2'      -21.9240  -29.0420  -15.5920 C.3    35  DA35        0.0865
    695  C1'      -23.4050  -28.7770  -15.3100 C.3    35  DA35        0.2094
    696  N9       -23.8230  -27.3770  -15.3960 N.ar   35  DA35       -0.2714
    697  C8       -23.9580  -26.4420  -14.4030 C.ar   35  DA35        0.1815
    698  N7       -24.2230  -25.2350  -14.8450 N.ar   35  DA35       -0.2193
    699  C5       -24.2640  -25.3880  -16.2220 C.ar   35  DA35        0.1518
    700  C6       -24.5020  -24.4790  -17.2680 C.ar   35  DA35        0.1919
    701  N6       -24.7540  -23.1820  -17.0770 N.pl3  35  DA35       -0.1054
    702  N1       -24.4710  -24.9550  -18.5310 N.ar   35  DA35       -0.2040
    703  C2       -24.2200  -26.2560  -18.7210 C.ar   35  DA35        0.2016
    704  N3       -23.9820  -27.2060  -17.8200 N.ar   35  DA35       -0.2048
    705  C4       -24.0190  -26.7010  -16.5760 C.ar   35  DA35        0.1691
    706  P        -18.7660  -29.0830  -13.6610 P.3    36  DC36        0.2141
    707  OP1      -17.6320  -30.0290  -13.5540 O.2    36  DC36       -0.5172
    708  OP2      -18.9440  -28.0790  -12.5820 O.3    36  DC36       -0.4373
    709  O5'      -18.6520  -28.3620  -15.0890 O.3    36  DC36       -0.3114
    710  C5'      -18.0010  -29.1800  -16.0660 C.3    36  DC36        0.1812
    711  C4'      -18.1100  -28.6530  -17.4560 C.3    36  DC36        0.1775
    712  O4'      -19.4790  -28.3220  -17.7020 O.3    36  DC36       -0.3326
    713  C3'      -17.3800  -27.3540  -17.6900 C.3    36  DC36        0.1859
    714  O3'      -15.9350  -27.4280  -17.7830 O.3    36  DC36       -0.2202
    715  C2'      -18.1250  -26.7530  -18.8560 C.3    36  DC36        0.0895
    716  C1'      -19.5220  -27.1640  -18.5500 C.3    36  DC36        0.2107
    717  N1       -20.1770  -26.0420  -17.9490 N.ar   36  DC36       -0.2556
    718  C2       -20.7740  -25.0320  -18.7130 C.ar   36  DC36        0.3531
    719  O2       -20.6060  -25.0360  -19.9440 O.2    36  DC36       -0.2443
    720  N3       -21.5140  -24.0840  -18.0900 N.ar   36  DC36       -0.1739
    721  C4       -21.6660  -24.1190  -16.7650 C.ar   36  DC36        0.1759
    722  N4       -22.4030  -23.1640  -16.1950 N.pl3  36  DC36       -0.1070
    723  C5       -21.0690  -25.1340  -15.9730 C.ar   36  DC36        0.0566
    724  C6       -20.3400  -26.0680  -16.5930 C.ar   36  DC36        0.0849
    725  P        -14.8690  -26.3040  -17.0320 P.3    37  DC37        0.3302
    726  OP1      -13.4920  -26.7040  -17.5100 O.3    37  DC37       -0.1651
    727  OP2      -14.8430  -25.1220  -16.1270 O.3    37  DC37       -0.1651
    728  O5'      -15.8640  -26.1850  -18.2780 O.3    37  DC37       -0.2177
    729  C5'      -15.2860  -26.6370  -19.5400 C.3    37  DC37        0.2140
    730  C4'      -16.0630  -25.9690  -20.6440 C.3    37  DC37        0.1776
    731  O4'      -17.4510  -26.1630  -20.4170 O.3    37  DC37       -0.3326
    732  C3'      -15.9010  -24.4790  -20.8000 C.3    37  DC37        0.1559
    733  O3'      -14.7200  -24.0200  -21.4690 O.3    37  DC37       -0.3138
    734  C2'      -17.1700  -24.1090  -21.5710 C.3    37  DC37        0.0866
    735  C1'      -18.1930  -25.0560  -20.9590 C.3    37  DC37        0.2106
    736  N1       -18.7780  -24.1740  -19.8470 N.ar   37  DC37       -0.2556
    737  C2       -19.5980  -23.0890  -20.1770 C.ar   37  DC37        0.3531
    738  O2       -19.7990  -22.8350  -21.3770 O.2    37  DC37       -0.2443
    739  N3       -20.1440  -22.3480  -19.1840 N.ar   37  DC37       -0.1739
    740  C4       -19.8990  -22.6560  -17.9090 C.ar   37  DC37        0.1759
    741  N4       -20.4590  -21.8980  -16.9640 N.pl3  37  DC37       -0.1070
    742  C5       -19.0710  -23.7520  -17.5540 C.ar   37  DC37        0.0566
    743  C6       -18.5340  -24.4800  -18.5380 C.ar   37  DC37        0.0849
    744  P        -14.2760  -23.5000  -20.7120 P.3    38  DA38        0.2141
    745  OP1      -12.8080  -23.5080  -20.8970 O.2    38  DA38       -0.5172
    746  OP2      -14.8470  -23.5790  -19.3470 O.3    38  DA38       -0.4373
    747  O5'      -14.8500  -22.1910  -21.4110 O.3    38  DA38       -0.3114
    748  C5'      -14.7920  -22.0360  -22.8420 C.3    38  DA38        0.1811
    749  C4'      -15.4430  -20.7400  -23.2400 C.3    38  DA38        0.1746
    750  O4'      -16.8530  -20.7970  -22.9130 O.3    38  DA38       -0.3327
    751  C3'      -14.9170  -19.5400  -22.4790 C.3    38  DA38        0.1558
    752  O3'      -13.7580  -19.0440  -23.1270 O.3    38  DA38       -0.3138
    753  C2'      -16.0990  -18.5770  -22.5100 C.3    38  DA38        0.0865
    754  C1'      -17.2740  -19.5490  -22.3870 C.3    38  DA38        0.2094
    755  N9       -17.7200  -19.8290  -21.0460 N.ar   38  DA38       -0.2714
    756  C8       -17.0920  -20.6040  -20.1060 C.ar   38  DA38        0.1815
    757  N7       -17.5560  -20.4390  -18.8900 N.ar   38  DA38       -0.2193
    758  C5       -18.5560  -19.4910  -19.0410 C.ar   38  DA38        0.1518
    759  C6       -19.4320  -18.8850  -18.1240 C.ar   38  DA38        0.1919
    760  N6       -19.4400  -19.1590  -16.8170 N.pl3  38  DA38       -0.1054
    761  N1       -20.3100  -17.9770  -18.6020 N.ar   38  DA38       -0.2040
    762  C2       -20.3020  -17.7040  -19.9110 C.ar   38  DA38        0.2016
    763  N3       -19.5290  -18.2070  -20.8710 N.ar   38  DA38       -0.2048
    764  C4       -18.6670  -19.1050  -20.3640 C.ar   38  DA38        0.1691
    765  P        -12.6580  -18.2800  -22.2990 P.3    39  DG39        0.2141
    766  OP1      -11.5140  -17.8650  -23.1600 O.2    39  DG39       -0.5172
    767  OP2      -12.3900  -18.9750  -21.0160 O.3    39  DG39       -0.4373
    768  O5'      -13.5790  -17.0020  -22.0170 O.3    39  DG39       -0.3114
    769  C5'      -13.8070  -16.0360  -23.0510 C.3    39  DG39        0.1811
    770  C4'      -15.0480  -15.1920  -22.7780 C.3    39  DG39        0.1746
    771  O4'      -16.0630  -15.9840  -22.1280 O.3    39  DG39       -0.3327
    772  C3'      -14.9400  -13.9380  -21.9180 C.3    39  DG39        0.1558
    773  O3'      -14.5800  -12.8150  -22.7060 O.3    39  DG39       -0.3138
    774  C2'      -16.3740  -13.7130  -21.4820 C.3    39  DG39        0.0865
    775  C1'      -16.8880  -15.1430  -21.3500 C.3    39  DG39        0.2094
    776  N9       -16.9650  -15.5970  -20.0810 N.ar   39  DG39       -0.2713
    777  C8       -16.2710  -16.6560  -19.5470 C.ar   39  DG39        0.1816
    778  N7       -16.5380  -16.8630  -18.2860 N.ar   39  DG39       -0.2173
    779  C5       -17.4630  -15.8870  -17.9660 C.ar   39  DG39        0.1748
    780  C6       -18.1220  -15.6050  -16.7420 C.ar   39  DG39        0.3023
    781  O6       -18.0100  -16.1920  -15.6590 O.2    39  DG39       -0.2633
    782  N1       -18.9860  -14.5190  -16.8540 N.ar   39  DG39       -0.1709
    783  C2       -19.1910  -13.7950  -18.0040 C.ar   39  DG39        0.2606
    784  N2       -20.0640  -12.7820  -17.9170 N.pl3  39  DG39       -0.0859
    785  N3       -18.5850  -14.0440  -19.1480 N.ar   39  DG39       -0.1918
    786  C4       -17.7410  -15.0930  -19.0630 C.ar   39  DG39        0.1722
    787  P        -13.4020  -11.8410  -22.1800 P.3    40  DC40        0.2141
    788  OP1      -12.5560  -11.0990  -23.1370 O.2    40  DC40       -0.5172
    789  OP2      -12.7680  -12.7800  -21.2250 O.3    40  DC40       -0.4373
    790  O5'      -14.2650  -10.8050  -21.3150 O.3    40  DC40       -0.3114
    791  C5'      -15.2880  -10.0180  -21.9240 C.3    40  DC40        0.1812
    792  C4'      -16.2650   -9.4330  -20.9150 C.3    40  DC40        0.1775
    793  O4'      -17.1600  -10.4490  -20.3850 O.3    40  DC40       -0.3326
    794  C3'      -15.6330   -8.8320  -19.6700 C.3    40  DC40        0.1859
    795  O3'      -15.0690   -7.5630  -19.9520 O.3    40  DC40       -0.2202
    796  C2'      -16.8370   -8.8010  -18.7350 C.3    40  DC40        0.0895
    797  C1'      -17.3860  -10.2010  -19.0050 C.3    40  DC40        0.2107
    798  N1       -16.8030  -11.3060  -18.1560 N.ar   40  DC40       -0.2556
    799  C2       -17.3300  -11.5170  -16.8770 C.ar   40  DC40        0.3531
    800  O2       -18.1990  -10.7370  -16.4530 O.2    40  DC40       -0.2443
    801  N3       -16.8780  -12.5610  -16.1410 N.ar   40  DC40       -0.1739
    802  C4       -15.9420  -13.3710  -16.6380 C.ar   40  DC40        0.1759
    803  N4       -15.5280  -14.3860  -15.8760 N.pl3  40  DC40       -0.1070
    804  C5       -15.3950  -13.1740  -17.9320 C.ar   40  DC40        0.0566
    805  C6       -15.8450  -12.1430  -18.6550 C.ar   40  DC40        0.0849
    806  P        -13.6620   -7.2540  -19.4050 P.3    41  DT41        0.4149
    807  OP1      -12.7540   -6.1410  -19.7650 O.3    41  DT41       -0.1481
    808  OP2      -13.2360   -8.2930  -18.4410 O.2    41  DT41       -0.2668
    809  O5'      -15.0110   -6.6770  -18.7820 O.3    41  DT41       -0.2177
    810  C5'      -14.8890   -5.8750  -17.6270 C.3    41  DT41        0.2140
    811  C4'      -16.0270   -6.0910  -16.6700 C.3    41  DT41        0.1776
    812  O4'      -16.6450   -7.3890  -16.8630 O.3    41  DT41       -0.3326
    813  C3'      -15.5850   -6.0890  -15.2250 C.3    41  DT41        0.1559
    814  O3'      -15.4180   -4.7660  -14.7550 O.3    41  DT41       -0.3138
    815  C2'      -16.6920   -6.8820  -14.5460 C.3    41  DT41        0.0866
    816  C1'      -16.9960   -7.9340  -15.6090 C.3    41  DT41        0.2106
    817  N1       -16.3490   -9.1770  -15.4800 N.ar   41  DT41       -0.2559
    818  C2       -16.6840   -9.8950  -14.3480 C.ar   41  DT41        0.3545
    819  O2       -17.5810   -9.5650  -13.5930 O.2    41  DT41       -0.2443
    820  N3       -15.9260  -11.0200  -14.1290 N.ar   41  DT41       -0.1533
    821  C4       -14.8900  -11.4880  -14.9110 C.ar   41  DT41        0.2804
    822  O4       -14.3030  -12.5170  -14.5840 O.2    41  DT41       -0.2654
    823  C5       -14.6030  -10.6870  -16.0670 C.ar   41  DT41        0.0534
    824  C6       -15.3240   -9.5880  -16.3040 C.ar   41  DT41        0.0824
    825  C7       -13.4920  -11.1130  -16.9810 C.3    41  DT41        0.0377
    826  P        -14.0710   -4.3370  -13.5770 P.3    42  DT42        0.2141
    827  OP1      -13.5900   -2.9430  -13.4560 O.3    42  DT42       -0.4373
    828  OP2      -13.1280   -5.4390  -13.8700 O.2    42  DT42       -0.5172
    829  O5'      -14.7760   -4.7890  -12.2120 O.3    42  DT42       -0.3114
    830  C5'      -15.8880   -4.0570  -11.7160 C.3    42  DT42        0.1811
    831  C4'      -16.6550   -4.8370  -10.6790 C.3    42  DT42        0.1746
    832  O4'      -17.1080   -6.0960  -11.2390 O.3    42  DT42       -0.3327
    833  C3'      -15.8760   -5.2730   -9.4490 C.3    42  DT42        0.1558
    834  O3'      -15.6680   -4.2460   -8.4980 O.3    42  DT42       -0.3138
    835  C2'      -16.7250   -6.4180   -8.9160 C.3    42  DT42        0.0866
    836  C1'      -17.1690   -7.0710  -10.2210 C.3    42  DT42        0.2106
    837  N1       -16.2670   -8.1910  -10.5510 N.ar   42  DT42       -0.2559
    838  C2       -16.2920   -9.3490   -9.7970 C.ar   42  DT42        0.3545
    839  O2       -16.9480   -9.4640   -8.7770 O.2    42  DT42       -0.2443
    840  N3       -15.5150  -10.3740  -10.2810 N.ar   42  DT42       -0.1533
    841  C4       -14.7350  -10.3580  -11.4180 C.ar   42  DT42        0.2804
    842  O4       -14.0920  -11.3590  -11.7260 O.2    42  DT42       -0.2654
    843  C5       -14.7610   -9.1200  -12.1460 C.ar   42  DT42        0.0534
    844  C6       -15.5080   -8.1070  -11.6970 C.ar   42  DT42        0.0824
    845  C7       -13.9430   -9.0020  -13.3980 C.3    42  DT42        0.0377
    846  P        -14.2520   -3.9570   -8.1690 P.3    43  DA43        0.2141
    847  OP1      -13.8900   -2.7230   -7.4360 O.3    43  DA43       -0.4373
    848  OP2      -13.6690   -4.2360   -9.4990 O.2    43  DA43       -0.5172
    849  O5'      -13.8630   -5.2360   -7.2900 O.3    43  DA43       -0.3114
    850  C5'      -14.7060   -5.5630   -6.1960 C.3    43  DA43        0.1811
    851  C4'      -14.3760   -6.9060   -5.5950 C.3    43  DA43        0.1746
    852  O4'      -14.8690   -7.9850   -6.4360 O.3    43  DA43       -0.3327
    853  C3'      -12.9010   -7.2290   -5.4490 C.3    43  DA43        0.1558
    854  O3'      -12.2640   -6.5290   -4.3940 O.3    43  DA43       -0.3138
    855  C2'      -12.9500   -8.7430   -5.2730 C.3    43  DA43        0.0865
    856  C1'      -14.0220   -9.1110   -6.2990 C.3    43  DA43        0.2094
    857  N9       -13.3810   -9.4590   -7.5770 N.ar   43  DA43       -0.2714
    858  C8       -13.2280   -8.6800   -8.6940 C.ar   43  DA43        0.1815
    859  N7       -12.6320   -9.2930   -9.6900 N.ar   43  DA43       -0.2193
    860  C5       -12.3750  -10.5600   -9.1920 C.ar   43  DA43        0.1518
    861  C6       -11.7600  -11.6920   -9.7580 C.ar   43  DA43        0.1919
    862  N6       -11.2760  -11.7260  -11.0010 N.pl3  43  DA43       -0.1054
    863  N1       -11.6610  -12.7990   -8.9920 N.ar   43  DA43       -0.2040
    864  C2       -12.1480  -12.7640   -7.7460 C.ar   43  DA43        0.2016
    865  N3       -12.7460  -11.7630   -7.1050 N.ar   43  DA43       -0.2048
    866  C4       -12.8290  -10.6770   -7.8920 C.ar   43  DA43        0.1691
    867  P        -10.7860   -5.9900   -4.6080 P.3    44  DT44        0.2141
    868  OP1      -10.8940   -5.0300   -3.4840 O.3    44  DT44       -0.4373
    869  OP2      -10.3570   -5.4960   -5.9440 O.2    44  DT44       -0.5172
    870  O5'       -9.8260   -7.1450   -4.0870 O.3    44  DT44       -0.3114
    871  C5'      -10.2990   -8.0690   -3.1040 C.3    44  DT44        0.1811
    872  C4'       -9.6140   -9.4070   -3.2370 C.3    44  DT44        0.1746
    873  O4'      -10.1940  -10.2310   -4.2880 O.3    44  DT44       -0.3327
    874  C3'       -8.1380   -9.3470   -3.5720 C.3    44  DT44        0.1558
    875  O3'       -7.3730   -9.0070   -2.4330 O.3    44  DT44       -0.3138
    876  C2'       -7.8790  -10.7480   -4.1240 C.3    44  DT44        0.0866
    877  C1'       -9.1740  -11.0190   -4.8810 C.3    44  DT44        0.2106
    878  N1        -9.0300  -10.6890   -6.2990 N.ar   44  DT44       -0.2559
    879  C2        -8.5460  -11.6750   -7.1380 C.ar   44  DT44        0.3545
    880  O2        -8.1960  -12.7720   -6.7400 O.2    44  DT44       -0.2443
    881  N3        -8.4840  -11.3300   -8.4660 N.ar   44  DT44       -0.1533
    882  C4        -8.8490  -10.1240   -9.0280 C.ar   44  DT44        0.2804
    883  O4        -8.7360   -9.9630  -10.2400 O.2    44  DT44       -0.2654
    884  C5        -9.3410   -9.1520   -8.0920 C.ar   44  DT44        0.0534
    885  C6        -9.4120   -9.4610   -6.7950 C.ar   44  DT44        0.0824
    886  C7        -9.7640   -7.8080   -8.6060 C.3    44  DT44        0.0377
    887  P         -5.7680   -8.6280   -2.5890 P.3    45  DT45        0.2141
    888  OP1       -5.3010   -8.0930   -1.2900 O.3    45  DT45       -0.4373
    889  OP2       -6.2100   -7.6840   -3.6410 O.2    45  DT45       -0.5172
    890  O5'       -4.6400   -9.5840   -3.1990 O.3    45  DT45       -0.3114
    891  C5'       -4.1270  -10.6710   -2.4380 C.3    45  DT45        0.1811
    892  C4'       -3.6700  -11.7950   -3.3450 C.3    45  DT45        0.1746
    893  O4'       -4.7250  -12.1360   -4.2790 O.3    45  DT45       -0.3327
    894  C3'       -2.4850  -11.4570   -4.2340 C.3    45  DT45        0.1558
    895  O3'       -1.2690  -11.6660   -3.5420 O.3    45  DT45       -0.3138
    896  C2'       -2.6600  -12.4520   -5.3760 C.3    45  DT45        0.0866
    897  C1'       -4.1780  -12.4350   -5.5570 C.3    45  DT45        0.2106
    898  N1        -4.7380  -11.5050   -6.6080 N.ar   45  DT45       -0.2559
    899  C2        -4.4780  -11.7520   -7.9420 C.ar   45  DT45        0.3545
    900  O2        -3.8320  -12.7120   -8.3260 O.2    45  DT45       -0.2443
    901  N3        -5.0010  -10.8310   -8.8170 N.ar   45  DT45       -0.1533
    902  C4        -5.7420   -9.7120   -8.4980 C.ar   45  DT45        0.2804
    903  O4        -6.1440   -8.9780   -9.3970 O.2    45  DT45       -0.2654
    904  C5        -5.9690   -9.5240   -7.0930 C.ar   45  DT45        0.0534
    905  C6        -5.4720  -10.4040   -6.2210 C.ar   45  DT45        0.0824
    906  C7        -6.7650   -8.3340   -6.6450 C.3    45  DT45        0.0377
    907  P         -0.1310  -10.9770   -4.0420 P.3    46  DC46        0.2141
    908  OP1        0.8220  -11.1090   -2.9180 O.3    46  DC46       -0.4373
    909  OP2       -0.3100   -9.6910   -4.7500 O.2    46  DC46       -0.5172
    910  O5'        0.3040  -12.0180   -5.1660 O.3    46  DC46       -0.3114
    911  C5'        1.4370  -11.7260   -5.9590 C.3    46  DC46        0.1811
    912  C4'        1.3200  -12.3690   -7.3110 C.3    46  DC46        0.1746
    913  O4'       -0.0610  -12.3570   -7.7430 O.3    46  DC46       -0.3327
    914  C3'        2.0610  -11.6390   -8.4060 C.3    46  DC46        0.1558
    915  O3'        3.4240  -11.9880   -8.4200 O.3    46  DC46       -0.3138
    916  C2'        1.2990  -12.0440   -9.6550 C.3    46  DC46        0.0866
    917  C1'       -0.1290  -12.0550   -9.1190 C.3    46  DC46        0.2106
    918  N1        -0.7490  -10.5640   -9.4380 N.ar   46  DC46       -0.2556
    919  C2        -1.0290  -10.2570  -10.7750 C.ar   46  DC46        0.3531
    920  O2        -0.5140  -10.9510  -11.6680 O.2    46  DC46       -0.2443
    921  N3        -1.8490   -9.2160  -11.0550 N.ar   46  DC46       -0.1739
    922  C4        -2.3790   -8.4990  -10.0640 C.ar   46  DC46        0.1759
    923  N4        -3.1810   -7.4820  -10.3880 N.pl3  46  DC46       -0.1070
    924  C5        -2.1080   -8.7940   -8.7030 C.ar   46  DC46        0.0566
    925  C6        -1.2970   -9.8220   -8.4310 C.ar   46  DC46        0.0849
    926  P          4.4040  -10.7420   -8.0450 P.3    47  DA47        0.2141
    927  OP1        5.6370  -10.8490   -7.2370 O.3    47  DA47       -0.4373
    928  OP2        3.1470  -10.2950   -7.4060 O.2    47  DA47       -0.5172
    929  O5'        4.6710   -9.8090   -9.3230 O.3    47  DA47       -0.3114
    930  C5'        5.6740  -10.1420  -10.2840 C.3    47  DA47        0.1811
    931  C4'        5.2100   -9.9440  -11.7220 C.3    47  DA47        0.1746
    932  O4'        3.8070  -10.2820  -11.8690 O.3    47  DA47       -0.3327
    933  C3'        5.2950   -8.5270  -12.2700 C.3    47  DA47        0.1558
    934  O3'        6.6260   -8.2300  -12.6570 O.3    47  DA47       -0.3138
    935  C2'        4.3700   -8.6500  -13.4760 C.3    47  DA47        0.0865
    936  C1'        3.2330   -9.4610  -12.8750 C.3    47  DA47        0.2094
    937  N9         2.2520   -8.5070  -12.3090 N.ar   47  DA47       -0.2714
    938  C8         1.9420   -8.4880  -10.9740 C.ar   47  DA47        0.1815
    939  N7         0.9310   -7.7060  -10.6770 N.ar   47  DA47       -0.2193
    940  C5         0.5520   -7.1750  -11.8990 C.ar   47  DA47        0.1518
    941  C6        -0.4630   -6.2730  -12.2650 C.ar   47  DA47        0.1919
    942  N6        -1.3150   -5.7260  -11.3950 N.pl3  47  DA47       -0.1054
    943  N1        -0.5720   -5.9490  -13.5710 N.ar   47  DA47       -0.2040
    944  C2         0.2820   -6.4980  -14.4430 C.ar   47  DA47        0.2016
    945  N3         1.2740   -7.3570  -14.2200 N.ar   47  DA47       -0.2048
    946  C4         1.3570   -7.6580  -12.9140 C.ar   47  DA47        0.1691
    947  P          7.2250   -6.8630  -12.2570 P.3    48  DA48        0.2141
    948  OP1        8.6530   -6.5850  -12.4910 O.2    48  DA48       -0.5172
    949  OP2        6.4870   -6.0230  -11.2890 O.3    48  DA48       -0.4373
    950  O5'        6.4720   -6.8380  -13.6510 O.3    48  DA48       -0.3114
    951  C5'        7.1330   -6.6200  -14.8390 C.3    48  DA48        0.1811
    952  C4'        6.2560   -5.7160  -15.6360 C.3    48  DA48        0.1746
    953  O4'        4.8780   -6.1160  -15.5070 O.3    48  DA48       -0.3327
    954  C3'        6.2040   -4.3120  -15.1170 C.3    48  DA48        0.1558
    955  O3'        7.4180   -3.6290  -15.4080 O.3    48  DA48       -0.3138
    956  C2'        4.9780   -3.7900  -15.8570 C.3    48  DA48        0.0865
    957  C1'        4.0570   -4.9850  -15.7340 C.3    48  DA48        0.2094
    958  N9         3.1740   -4.8530  -14.6400 N.ar   48  DA48       -0.2714
    959  C8         3.4600   -5.1440  -13.3320 C.ar   48  DA48        0.1815
    960  N7         2.5460   -4.7300  -12.4860 N.ar   48  DA48       -0.2193
    961  C5         1.5970   -4.1240  -13.2940 C.ar   48  DA48        0.1518
    962  C6         0.3780   -3.4850  -13.0060 C.ar   48  DA48        0.1919
    963  N6        -0.1100   -3.3470  -11.7710 N.pl3  48  DA48       -0.1054
    964  N1        -0.3300   -2.9880  -14.0420 N.ar   48  DA48       -0.2040
    965  C2         0.1600   -3.1280  -15.2800 C.ar   48  DA48        0.2016
    966  N3         1.2900   -3.7080  -15.6760 N.ar   48  DA48       -0.2048
    967  C4         1.9700   -4.1910  -14.6230 C.ar   48  DA48        0.1691
    968  P          7.9630   -2.6270  -14.4130 P.3    49  DT49        0.2141
    969  OP1        9.2840   -2.5400  -15.0820 O.2    49  DT49       -0.5172
    970  OP2        7.8370   -2.5640  -12.9360 O.3    49  DT49       -0.4373
    971  O5'        7.0230   -1.4510  -14.9540 O.3    49  DT49       -0.3114
    972  C5'        7.0390   -1.2430  -16.3550 C.3    49  DT49        0.1811
    973  C4'        5.8190   -0.5070  -16.8390 C.3    49  DT49        0.1746
    974  O4'        4.6170   -1.2380  -16.4960 O.3    49  DT49       -0.3327
    975  C3'        5.5980    0.8730  -16.2540 C.3    49  DT49        0.1558
    976  O3'        6.3770    1.8580  -16.9020 O.3    49  DT49       -0.3138
    977  C2'        4.1200    1.0690  -16.5120 C.3    49  DT49        0.0866
    978  C1'        3.5770   -0.3300  -16.2220 C.3    49  DT49        0.2106
    979  N1         3.1380   -0.5090  -14.8260 N.ar   49  DT49       -0.2559
    980  C2         1.8430   -0.1700  -14.4810 C.ar   49  DT49        0.3545
    981  O2         1.0690    0.3680  -15.2520 O.2    49  DT49       -0.2443
    982  N3         1.4840   -0.4860  -13.1920 N.ar   49  DT49       -0.1533
    983  C4         2.2720   -1.0910  -12.2360 C.ar   49  DT49        0.2804
    984  O4         1.8080   -1.3110  -11.1200 O.2    49  DT49       -0.2654
    985  C5         3.6030   -1.4110  -12.6710 C.ar   49  DT49        0.0534
    986  C6         3.9780   -1.1150  -13.9180 C.ar   49  DT49        0.0824
    987  C7         4.5380   -2.0720  -11.7020 C.3    49  DT49        0.0377
    988  P          6.5350    3.0480  -16.3560 P.3    50  DT50        0.2141
    989  OP1        7.3160    4.0800  -17.0770 O.2    50  DT50       -0.5172
    990  OP2        7.1360    2.2740  -15.2450 O.3    50  DT50       -0.4373
    991  O5'        5.2530    3.7500  -15.7070 O.3    50  DT50       -0.3114
    992  C5'        4.5650    4.7040  -16.5010 C.3    50  DT50        0.1811
    993  C4'        3.2980    5.2030  -15.8540 C.3    50  DT50        0.1746
    994  O4'        2.4590    4.0920  -15.4380 O.3    50  DT50       -0.3327
    995  C3'        3.4480    6.0190  -14.5790 C.3    50  DT50        0.1558
    996  O3'        3.9120    7.3430  -14.7940 O.3    50  DT50       -0.3138
    997  C2'        2.0320    5.9460  -14.0200 C.3    50  DT50        0.0866
    998  C1'        1.6710    4.4940  -14.3370 C.3    50  DT50        0.2106
    999  N1         1.9410    3.6190  -13.1630 N.ar   50  DT50       -0.2559
   1000  C2         1.0090    3.5490  -12.1450 C.ar   50  DT50        0.3545
   1001  O2         0.0390    4.2830  -12.0810 O.2    50  DT50       -0.2443
   1002  N3         1.2560    2.5850  -11.1970 N.ar   50  DT50       -0.1533
   1003  C4         2.3170    1.7050  -11.1670 C.ar   50  DT50        0.2804
   1004  O4         2.4030    0.8930  -10.2480 O.2    50  DT50       -0.2654
   1005  C5         3.2410    1.8410  -12.2570 C.ar   50  DT50        0.0534
   1006  C6         3.0250    2.7700  -13.1920 C.ar   50  DT50        0.0824
   1007  C7         4.4300    0.9280  -12.3130 C.3    50  DT50        0.0377
   1008  P          4.8680    8.1160  -13.6590 P.3    51  DA51        0.2141
   1009  OP1        5.2670    9.4520  -14.1610 O.2    51  DA51       -0.5172
   1010  OP2        5.8560    7.1980  -13.0480 O.3    51  DA51       -0.4373
   1011  O5'        3.7750    8.3050  -12.5140 O.3    51  DA51       -0.3113
   1012  C5'        2.9430    9.4480  -12.5450 C.3    51  DA51        0.1836
   1013  C4'        1.7740    9.2880  -11.6110 C.3    51  DA51        0.1992
   1014  O4'        1.2640    7.9300  -11.6780 O.3    51  DA51       -0.3301
   1015  C3'        2.0450    9.4850  -10.1270 C.3    51  DA51        0.2381
   1016  O3'        2.1660   10.8470   -9.7530 O.3    51  DA51       -0.2491
   1017  C2'        0.8150    8.8190   -9.5370 C.3    51  DA51        0.1137
   1018  C1'        0.6820    7.5930  -10.4410 C.3    51  DA51        0.2120
   1019  N9         1.3420    6.4160   -9.8390 N.ar   51  DA51       -0.2714
   1020  C8         2.4330    5.6650  -10.1910 C.ar   51  DA51        0.1815
   1021  N7         2.6990    4.6930   -9.3520 N.ar   51  DA51       -0.2193
   1022  C5         1.7170    4.8140   -8.3820 C.ar   51  DA51        0.1518
   1023  C6         1.4450    4.0810   -7.2140 C.ar   51  DA51        0.1919
   1024  N6         2.1710    3.0350   -6.8120 N.pl3  51  DA51       -0.1054
   1025  N1         0.3890    4.4630   -6.4650 N.ar   51  DA51       -0.2040
   1026  C2        -0.3390    5.5110   -6.8690 C.ar   51  DA51        0.2016
   1027  N3        -0.1830    6.2770   -7.9460 N.ar   51  DA51       -0.2048
   1028  C4         0.8740    5.8720   -8.6680 C.ar   51  DA51        0.1691
   1029  P          2.5590   11.1410   -8.3840 P.3    52  DC52        0.4833
   1030  OP1        3.2880   12.2220   -7.6580 O.2    52  DC52       -0.2269
   1031  OP2        3.3140   10.0840   -9.1170 O.3    52  DC52       -0.2491
   1032  O5'        1.5490   10.4130   -7.3850 O.3    52  DC52       -0.2704
   1033  C5'        0.2970   11.0030   -7.0410 C.3    52  DC52        0.1856
   1034  C4'       -0.1180   10.5720   -5.6550 C.3    52  DC52        0.1748
   1035  O4'       -0.3410    9.1390   -5.6440 O.3    52  DC52       -0.3327
   1036  C3'        0.9420   10.8090   -4.5960 C.3    52  DC52        0.1558
   1037  O3'        0.8910   12.1470   -4.1180 O.3    52  DC52       -0.3138
   1038  C2'        0.6230    9.7420   -3.5590 C.3    52  DC52        0.0866
   1039  C1'        0.1900    8.5770   -4.4530 C.3    52  DC52        0.2106
   1040  N1         1.3750    7.7130   -4.9000 N.ar   52  DC52       -0.2556
   1041  C2         1.9060    6.8240   -3.9590 C.ar   52  DC52        0.3531
   1042  O2         1.4210    6.8050   -2.8140 O.2    52  DC52       -0.2443
   1043  N3         2.9290    6.0130   -4.3200 N.ar   52  DC52       -0.1739
   1044  C4         3.4180    6.0680   -5.5600 C.ar   52  DC52        0.1759
   1045  N4         4.4270    5.2510   -5.8700 N.pl3  52  DC52       -0.1070
   1046  C5         2.8940    6.9620   -6.5290 C.ar   52  DC52        0.0566
   1047  C6         1.8840    7.7610   -6.1670 C.ar   52  DC52        0.0849
   1048  P          2.3710   12.8870   -4.0790 P.3    53  DG53        0.2141
   1049  OP1        2.2940   14.0710   -3.1920 O.3    53  DG53       -0.4373
   1050  OP2        3.0390   13.0130   -5.3830 O.2    53  DG53       -0.5172
   1051  O5'        3.0590   11.7050   -3.2440 O.3    53  DG53       -0.3114
   1052  C5'        2.6950   11.5480   -1.8680 C.3    53  DG53        0.1811
   1053  C4'        3.5640   10.5370   -1.1500 C.3    53  DG53        0.1746
   1054  O4'        3.4930    9.2420   -1.7930 O.3    53  DG53       -0.3327
   1055  C3'        5.0400   10.8490   -1.1780 C.3    53  DG53        0.1558
   1056  O3'        5.3220   11.8400   -0.2310 O.3    53  DG53       -0.3138
   1057  C2'        5.6190    9.4920   -0.7970 C.3    53  DG53        0.0865
   1058  C1'        4.7450    8.5850   -1.6470 C.3    53  DG53        0.2094
   1059  N9         5.3480    8.3900   -2.9790 N.ar   53  DG53       -0.2713
   1060  C8         4.8900    8.8180   -4.2010 C.ar   53  DG53        0.1816
   1061  N7         5.6730    8.4850   -5.1900 N.ar   53  DG53       -0.2173
   1062  C5         6.7100    7.7960   -4.5900 C.ar   53  DG53        0.1748
   1063  C6         7.8650    7.1920   -5.1510 C.ar   53  DG53        0.3023
   1064  O6         8.2050    7.1490   -6.3400 O.2    53  DG53       -0.2633
   1065  N1         8.6650    6.5950   -4.1810 N.ar   53  DG53       -0.1709
   1066  C2         8.3860    6.5820   -2.8350 C.ar   53  DG53        0.2606
   1067  N2         9.2770    5.9550   -2.0540 N.pl3  53  DG53       -0.0859
   1068  N3         7.3190    7.1390   -2.2980 N.ar   53  DG53       -0.1918
   1069  C4         6.5280    7.7260   -3.2220 C.ar   53  DG53        0.1722
   1070  P          6.1490   12.9480   -0.6390 P.3    54  DT54        0.2141
   1071  OP1        6.1560   13.9810    0.4390 O.3    54  DT54       -0.4373
   1072  OP2        6.0620   13.3710   -2.0590 O.2    54  DT54       -0.5172
   1073  O5'        7.4560   12.0510   -0.4710 O.3    54  DT54       -0.3114
   1074  C5'        7.8470   11.5810    0.8230 C.3    54  DT54        0.1811
   1075  C4'        9.1600   10.8400    0.7550 C.3    54  DT54        0.1746
   1076  O4'        9.0860    9.8280   -0.2830 O.3    54  DT54       -0.3327
   1077  C3'       10.4110   11.6310    0.4170 C.3    54  DT54        0.1558
   1078  O3'       10.9600   12.2910    1.5540 O.3    54  DT54       -0.3138
   1079  C2'       11.3500   10.5420   -0.0990 C.3    54  DT54        0.0866
   1080  C1'       10.3820    9.5920   -0.8100 C.3    54  DT54        0.2106
   1081  N1        10.1470   10.0340   -2.3650 N.ar   54  DT54       -0.2559
   1082  C2        11.0310    9.4670   -3.2640 C.ar   54  DT54        0.3545
   1083  O2        11.9200    8.7050   -2.9300 O.2    54  DT54       -0.2443
   1084  N3        10.8370    9.8280   -4.5760 N.ar   54  DT54       -0.1533
   1085  C4         9.8700   10.6790   -5.0680 C.ar   54  DT54        0.2804
   1086  O4         9.8210   10.9060   -6.2740 O.2    54  DT54       -0.2654
   1087  C5         8.9920   11.2270   -4.0730 C.ar   54  DT54        0.0534
   1088  C6         9.1580   10.8930   -2.7900 C.ar   54  DT54        0.0824
   1089  C7         7.9060   12.1650   -4.5090 C.3    54  DT54        0.0377
   1090  P         12.1710   13.3060    1.3760 P.3    55  DC55        0.2141
   1091  OP1       13.3620   13.1290    0.5090 O.2    55  DC55       -0.5172
   1092  OP2       12.2880   13.0460    2.8210 O.3    55  DC55       -0.4373
   1093  O5'       11.6930   14.7990    1.1600 O.3    55  DC55       -0.3114
   1094  C5'       12.3340   15.8410    1.8250 C.3    55  DC55        0.1811
   1095  C4'       11.3590   16.9290    2.1130 C.3    55  DC55        0.1746
   1096  O4'       10.0500   16.3890    2.4370 O.3    55  DC55       -0.3327
   1097  C3'       11.7550   17.6390    3.3770 C.3    55  DC55        0.1558
   1098  O3'       12.8480   18.4820    3.1200 O.3    55  DC55       -0.3138
   1099  C2'       10.4490   18.2990    3.7790 C.3    55  DC55        0.0866
   1100  C1'        9.4600   17.1780    3.4640 C.3    55  DC55        0.2106
   1101  N1         9.4630   16.3200    4.7440 N.ar   55  DC55       -0.2556
   1102  C2         8.8790   16.7100    5.9550 C.ar   55  DC55        0.3533
   1103  O2         8.5370   17.8970    6.0990 O.2    55  DC55       -0.2443
   1104  N3         8.7050   15.7870    6.9310 N.ar   55  DC55       -0.1698
   1105  C4         9.0880   14.5260    6.7320 C.ar   55  DC55        0.2068
   1106  N4         8.8970   13.6510    7.7220 N.4    55  DC55       -0.0537
   1107  C5         9.6820   14.1100    5.5120 C.ar   55  DC55        0.0610
   1108  C6         9.8520   15.0250    4.5510 C.ar   55  DC55        0.0852
   1109  P         14.0600   18.4930    4.0790 P.3    56  DT56        0.2141
   1110  OP1       14.6430   19.1000    2.8660 O.2    56  DT56       -0.5172
   1111  OP2       14.6950   17.2810    4.6530 O.3    56  DT56       -0.4373
   1112  O5'       14.0330   19.6230    5.1950 O.3    56  DT56       -0.3114
   1113  C5'       13.0950   20.6950    5.0730 C.3    56  DT56        0.1811
   1114  C4'       12.2420   20.8400    6.3200 C.3    56  DT56        0.1744
   1115  O4'       11.1800   19.8540    6.4050 O.3    56  DT56       -0.3348
   1116  C3'       12.9220   20.7020    7.6630 C.3    56  DT56        0.1555
   1117  O3'       13.7010   21.8400    7.9530 O.3    56  DT56       -0.3139
   1118  C2'       11.7200   20.6100    8.5920 C.3    56  DT56        0.0836
   1119  C1'       10.7730   19.7420    7.7650 C.3    56  DT56        0.1982
   1120  N1        10.9960   18.4140    8.2450 N.am   56  DT56       -0.2352
   1121  C2        10.3150   17.9300    9.3460 C.2    56  DT56        0.3320
   1122  O2         9.5460   18.6090   10.0020 O.2    56  DT56       -0.2502
   1123  N3        10.5670   16.6150    9.6540 N.am   56  DT56       -0.1233
   1124  C4        11.4140   15.7540    8.9860 C.2    56  DT56        0.2773
   1125  O4        11.5370   14.5980    9.3820 O.2    56  DT56       -0.2675
   1126  C5        12.0850   16.3310    7.8550 C.2    56  DT56        0.0872
   1127  C6        11.8580   17.6070    7.5340 C.3    56  DT56        0.1362
   1128  C7        13.0280   15.4750    7.0630 C.1    56  DT56       -0.1016
   1129  P         15.0410   21.6600    8.7920 P.3    57  DG57        0.2141
   1130  OP1       16.2270   22.4300    9.2230 O.3    57  DG57       -0.4373
   1131  OP2       15.2180   20.3120    8.2100 O.2    57  DG57       -0.5172
   1132  O5'       14.0580   21.5350   10.0460 O.3    57  DG57       -0.3114
   1133  C5'       13.9070   22.6140   10.9550 C.3    57  DG57        0.1811
   1134  C4'       12.8160   22.3100   11.9590 C.3    57  DG57        0.1746
   1135  O4'       12.0480   21.1500   11.5550 O.3    57  DG57       -0.3327
   1136  C3'       13.3630   21.9180   13.3120 C.3    57  DG57        0.1558
   1137  O3'       13.6500   23.0630   14.0760 O.3    57  DG57       -0.3138
   1138  C2'       12.2430   21.0810   13.9090 C.3    57  DG57        0.0865
   1139  C1'       11.8020   20.3060   12.6710 C.3    57  DG57        0.2094
   1140  N9        12.5360   19.0470   12.6510 N.ar   57  DG57       -0.2713
   1141  C8        13.3230   18.6810   11.5860 C.ar   57  DG57        0.1816
   1142  N7        13.6590   17.4200   11.6030 N.ar   57  DG57       -0.2173
   1143  C5        13.0600   16.9200   12.7440 C.ar   57  DG57        0.1748
   1144  C6        13.0670   15.6120   13.2940 C.ar   57  DG57        0.3023
   1145  O6        13.6300   14.6010   12.8570 O.2    57  DG57       -0.2633
   1146  N1        12.3280   15.5390   14.4720 N.ar   57  DG57       -0.1709
   1147  C2        11.6630   16.5940   15.0480 C.ar   57  DG57        0.2606
   1148  N2        11.0030   16.3280   16.1830 N.pl3  57  DG57       -0.0859
   1149  N3        11.6480   17.8150   14.5490 N.ar   57  DG57       -0.1918
   1150  C4        12.3600   17.9100   13.4060 C.ar   57  DG57        0.1722
   1151  P         14.9790   23.0310   14.7860 P.3    58  DC58        0.2141
   1152  OP1       14.9730   24.4000   15.3760 O.3    58  DC58       -0.4373
   1153  OP2       16.2400   22.5270   14.1700 O.2    58  DC58       -0.5172
   1154  O5'       14.4580   22.0240   15.8940 O.3    58  DC58       -0.3114
   1155  C5'       13.2910   22.3600   16.6530 C.3    58  DC58        0.1811
   1156  C4'       12.9700   21.2810   17.6390 C.3    58  DC58        0.1746
   1157  O4'       12.4130   20.1550   16.9100 O.3    58  DC58       -0.3327
   1158  C3'       14.1290   20.6830   18.4430 C.3    58  DC58        0.1558
   1159  O3'       14.6630   21.5000   19.5460 O.3    58  DC58       -0.3138
   1160  C2'       13.5060   19.3460   18.8500 C.3    58  DC58        0.0866
   1161  C1'       12.7640   18.9400   17.5710 C.3    58  DC58        0.2106
   1162  N1        13.7110   18.2050   16.6440 N.ar   58  DC58       -0.2556
   1163  C2        13.8870   16.8490   16.9390 C.ar   58  DC58        0.3531
   1164  O2        13.2080   16.3420   17.8480 O.2    58  DC58       -0.2443
   1165  N3        14.7880   16.1300   16.2270 N.ar   58  DC58       -0.1739
   1166  C4        15.4950   16.7170   15.2600 C.ar   58  DC58        0.1759
   1167  N4        16.3710   15.9690   14.5860 N.pl3  58  DC58       -0.1070
   1168  C5        15.3320   18.0900   14.9460 C.ar   58  DC58        0.0566
   1169  C6        14.4410   18.7960   15.6510 C.ar   58  DC58        0.0849
   1170  P         16.2770   21.3530   19.9930 P.3    59  DA59        0.2141
   1171  OP1       16.6840   22.5480   20.7720 O.3    59  DA59       -0.4373
   1172  OP2       17.0400   20.9750   18.7800 O.2    59  DA59       -0.5172
   1173  O5'       16.2760   20.1060   20.9820 O.3    59  DA59       -0.3114
   1174  C5'       15.3360   20.0380   22.0660 C.3    59  DA59        0.1811
   1175  C4'       15.1460   18.6090   22.5130 C.3    59  DA59        0.1746
   1176  O4'       14.8110   17.7780   21.3670 O.3    59  DA59       -0.3327
   1177  C3'       16.3560   17.8990   23.0940 C.3    59  DA59        0.1558
   1178  O3'       16.5820   18.2850   24.4480 O.3    59  DA59       -0.3138
   1179  C2'       15.9330   16.4390   22.9750 C.3    59  DA59        0.0865
   1180  C1'       15.2260   16.4430   21.6200 C.3    59  DA59        0.2094
   1181  N9        16.2160   16.1600   20.6080 N.ar   59  DA59       -0.2714
   1182  C8        16.7920   17.0020   19.6930 C.ar   59  DA59        0.1815
   1183  N7        17.5910   16.3970   18.8470 N.ar   59  DA59       -0.2193
   1184  C5        17.5380   15.0670   19.2340 C.ar   59  DA59        0.1518
   1185  C6        18.1650   13.9110   18.7350 C.ar   59  DA59        0.1919
   1186  N6        19.0010   13.9140   17.6940 N.pl3  59  DA59       -0.1054
   1187  N1        17.8980   12.7390   19.3500 N.ar   59  DA59       -0.2040
   1188  C2        17.0590   12.7370   20.3920 C.ar   59  DA59        0.2016
   1189  N3        16.4100   13.7560   20.9510 N.ar   59  DA59       -0.2048
   1190  C4        16.6970   14.9060   20.3180 C.ar   59  DA59        0.1691
   1191  P         17.8360   18.0140   25.0510 P.3    60  DC60        0.2141
   1192  OP1       17.6610   18.8900   26.2320 O.3    60  DC60       -0.4373
   1193  OP2       19.1960   17.8090   24.5070 O.2    60  DC60       -0.5172
   1194  O5'       17.2300   16.5760   25.3560 O.3    60  DC60       -0.3114
   1195  C5'       17.9930   15.7280   26.1550 C.3    60  DC60        0.1812
   1196  C4'       17.7030   14.2860   25.8310 C.3    60  DC60        0.1781
   1197  O4'       17.2460   14.1200   24.4640 O.3    60  DC60       -0.3319
   1198  C3'       18.9650   13.4650   25.8820 C.3    60  DC60        0.1951
   1199  O3'       19.2960   13.2440   27.2420 O.3    60  DC60       -0.3102
   1200  C2'       18.4950   12.2480   25.0940 C.3    60  DC60        0.2576
   1201  C1'       17.8640   12.9720   23.9060 C.3    60  DC60        0.2410
   1202  N1        18.9740   13.2930   22.8630 N.pl3  60  DC60       -0.2096
   1203  C2        19.6300   12.3260   22.0920 C.2    60  DC60        0.4427
   1204  O2        19.5710   11.1370   22.4480 O.2    60  DC60       -0.2563
   1205  N3        20.3080   12.7130   20.9850 N.2    60  DC60        0.0245
   1206  C4        20.3450   14.0010   20.6420 C.2    60  DC60        0.4172
   1207  N4        21.0250   14.3360   19.5430 N.pl3  60  DC60        0.2162
   1208  C5        19.6870   14.9960   21.4100 C.2    60  DC60        0.0937
   1209  C6        19.0190   14.6100   22.5020 C.3    60  DC60        0.1341
   1210  P         20.6590   13.8000   27.8040 P.3    61  DA61        0.2142
   1211  OP1       20.5250   13.5640   29.2630 O.3    61  DA61       -0.4373
   1212  OP2       21.0740   15.1320   27.3080 O.2    61  DA61       -0.5172
   1213  O5'       21.6640   12.7080   27.2120 O.3    61  DA61       -0.3114
   1214  C5'       21.7090   11.4040   27.7550 C.3    61  DA61        0.1811
   1215  C4'       22.3230   10.4280   26.7750 C.3    61  DA61        0.1744
   1216  O4'       21.8670   10.6930   25.4170 O.3    61  DA61       -0.3349
   1217  C3'       23.8320   10.5000   26.6250 C.3    61  DA61        0.1555
   1218  O3'       24.5040    9.9400   27.7430 O.3    61  DA61       -0.3139
   1219  C2'       23.9740    9.6750   25.3480 C.3    61  DA61        0.0835
   1220  C1'       22.8780   10.3150   24.4940 C.3    61  DA61        0.1974
   1221  N9        23.3680   11.4620   23.7110 N.pl3  61  DA61       -0.2458
   1222  C8        22.8440   12.7270   23.7870 C.2    61  DA61        0.1669
   1223  N7        23.3270   13.5550   22.8920 N.2    61  DA61       -0.2209
   1224  C5        24.2300   12.7820   22.1790 C.2    61  DA61        0.1902
   1225  C6        25.0730   13.0740   21.0920 C.2    61  DA61        0.4251
   1226  N6        25.1440   14.2740   20.5120 N.pl3  61  DA61        0.2155
   1227  N1        25.8510   12.0770   20.6180 N.pl3  61  DA61        0.0229
   1228  C2        25.7790   10.8740   21.1990 C.2    61  DA61        0.3241
   1229  N3        25.0270   10.4790   22.2230 N.2    61  DA61       -0.2026
   1230  C4        24.2670   11.4920   22.6720 C.3    61  DA61        0.2332
   1231  P         25.4430   10.8900   28.6740 P.3    62  DT62        0.2141
   1232  OP1       25.1540    9.9700   29.8090 O.3    62  DT62       -0.4373
   1233  OP2       25.6710   12.3290   28.9470 O.2    62  DT62       -0.5172
   1234  O5'       26.6880   10.3010   27.8670 O.3    62  DT62       -0.3114
   1235  C5'       26.7840    8.9000   27.6190 C.3    62  DT62        0.1811
   1236  C4'       27.4700    8.6250   26.2970 C.3    62  DT62        0.1746
   1237  O4'       26.7820    9.3130   25.2180 O.3    62  DT62       -0.3327
   1238  C3'       28.9190    9.0670   26.1460 C.3    62  DT62        0.1558
   1239  O3'       29.8220    8.1240   26.7160 O.3    62  DT62       -0.3138
   1240  C2'       29.0960    9.1420   24.6320 C.3    62  DT62        0.0866
   1241  C1'       27.7010    9.5690   24.1630 C.3    62  DT62        0.2106
   1242  N1        27.6670   10.9060   23.7900 N.ar   62  DT62       -0.2559
   1243  C2        28.1380   11.2580   22.5400 C.ar   62  DT62        0.3545
   1244  O2        28.6030   10.4520   21.7540 O.2    62  DT62       -0.2443
   1245  N3        28.0480   12.5960   22.2410 N.ar   62  DT62       -0.1533
   1246  C4        27.5450   13.5940   23.0490 C.ar   62  DT62        0.2804
   1247  O4        27.5290   14.7530   22.6390 O.2    62  DT62       -0.2654
   1248  C5        27.0760   13.1490   24.3310 C.ar   62  DT62        0.0534
   1249  C6        27.1530   11.8540   24.6470 C.ar   62  DT62        0.0824
   1250  C7        26.5100   14.1610   25.2830 C.3    62  DT62        0.0377
   1251  P         31.4270    8.5190   27.1250 P.3    63  DA63        0.2141
   1252  OP1       31.9800    7.6590   28.1950 O.3    63  DA63       -0.4373
   1253  OP2       32.0960    9.7910   26.7730 O.2    63  DA63       -0.5172
   1254  O5'       31.3690    7.7020   25.7490 O.3    63  DA63       -0.3114
   1255  C5'       32.5350    7.5630   24.9510 C.3    63  DA63        0.1811
   1256  C4'       32.6400    6.1830   24.3470 C.3    63  DA63        0.1746
   1257  O4'       32.6320    5.1900   25.4040 O.3    63  DA63       -0.3327
   1258  C3'       31.5050    5.7570   23.4270 C.3    63  DA63        0.1558
   1259  O3'       31.6440    6.2580   22.1060 O.3    63  DA63       -0.3138
   1260  C2'       31.5660    4.2350   23.5160 C.3    63  DA63        0.0865
   1261  C1'       31.9640    4.0250   24.9780 C.3    63  DA63        0.2094
   1262  N9        30.8030    3.8070   25.8710 N.ar   63  DA63       -0.2714
   1263  C8        30.3450    4.6740   26.8280 C.ar   63  DA63        0.1815
   1264  N7        29.2990    4.2320   27.4850 N.ar   63  DA63       -0.2193
   1265  C5        29.0530    2.9900   26.9210 C.ar   63  DA63        0.1518
   1266  C6        28.0780    2.0100   27.1770 C.ar   63  DA63        0.1919
   1267  N6        27.1300    2.1370   28.1090 N.pl3  63  DA63       -0.1054
   1268  N1        28.1110    0.8830   26.4340 N.ar   63  DA63       -0.2040
   1269  C2        29.0620    0.7570   25.5020 C.ar   63  DA63        0.2016
   1270  N3        30.0320    1.6050   25.1700 N.ar   63  DA63       -0.2048
   1271  C4        29.9710    2.7150   25.9250 C.ar   63  DA63        0.1691
   1272  P         30.4980    6.9710   21.4470 P.3    64  DC64        0.2141
   1273  OP1       30.9330    7.2120   20.0520 O.2    64  DC64       -0.5172
   1274  OP2       29.6260    7.9450   22.1400 O.3    64  DC64       -0.4373
   1275  O5'       29.6800    5.5920   21.5130 O.3    64  DC64       -0.3114
   1276  C5'       30.0860    4.4490   20.7670 C.3    64  DC64        0.1811
   1277  C4'       29.3220    3.2080   21.1680 C.3    64  DC64        0.1746
   1278  O4'       29.3600    3.0620   22.6110 O.3    64  DC64       -0.3327
   1279  C3'       27.8380    3.1740   20.8150 C.3    64  DC64        0.1558
   1280  O3'       27.5890    2.7430   19.4830 O.3    64  DC64       -0.3138
   1281  C2'       27.2580    2.2310   21.8640 C.3    64  DC64        0.0866
   1282  C1'       28.1410    2.5210   23.0780 C.3    64  DC64        0.2106
   1283  N1        27.5010    3.4880   23.9540 N.ar   64  DC64       -0.2556
   1284  C2        26.4980    3.0760   24.8390 C.ar   64  DC64        0.3531
   1285  O2        26.1040    1.8980   24.7900 O.2    64  DC64       -0.2443
   1286  N3        25.9860    3.9700   25.7180 N.ar   64  DC64       -0.1739
   1287  C4        26.4380    5.2250   25.7340 C.ar   64  DC64        0.1759
   1288  N4        25.9040    6.0710   26.6180 N.pl3  64  DC64       -0.1070
   1289  C5        27.4540    5.6620   24.8460 C.ar   64  DC64        0.0566
   1290  C6        27.9570    4.7760   23.9790 C.ar   64  DC64        0.0849
   1291  P         26.1300    3.0380   18.6950 P.3    65  DC65        0.2141
   1292  OP1       26.1890    2.6850   17.2500 O.2    65  DC65       -0.5172
   1293  OP2       26.0470    4.4630   19.0950 O.3    65  DC65       -0.4373
   1294  O5'       24.9240    2.2690   19.4100 O.3    65  DC65       -0.3114
   1295  C5'       24.6470    0.8700   19.1350 C.3    65  DC65        0.1811
   1296  C4'       23.7470    0.2820   20.2070 C.3    65  DC65        0.1746
   1297  O4'       24.3820    0.4720   21.4970 O.3    65  DC65       -0.3327
   1298  C3'       22.3560    0.8900   20.3640 C.3    65  DC65        0.1558
   1299  O3'       21.4070    0.2770   19.4810 O.3    65  DC65       -0.3138
   1300  C2'       22.0220    0.6030   21.8270 C.3    65  DC65        0.0866
   1301  C1'       23.3970    0.6870   22.4920 C.3    65  DC65        0.2106
   1302  N1        23.6960    1.8830   23.1550 N.ar   65  DC65       -0.2556
   1303  C2        23.0770    2.0960   24.3920 C.ar   65  DC65        0.3531
   1304  O2        22.4210    1.1700   24.9000 O.2    65  DC65       -0.2443
   1305  N3        23.2090    3.3010   24.9970 N.ar   65  DC65       -0.1739
   1306  C4        23.9210    4.2650   24.4140 C.ar   65  DC65        0.1759
   1307  N4        24.0230    5.4360   25.0470 N.pl3  65  DC65       -0.1070
   1308  C5        24.5560    4.0690   23.1610 C.ar   65  DC65        0.0566
   1309  C6        24.4230    2.8780   22.5670 C.ar   65  DC65        0.0849
   1310  P         19.8680    0.8360   19.4400 P.3    66  DA66        0.2141
   1311  OP1       19.0170   -0.2520   18.8890 O.3    66  DA66       -0.4373
   1312  OP2       20.0800    2.0740   18.6430 O.2    66  DA66       -0.5172
   1313  O5'       19.2970    1.2550   20.8750 O.3    66  DA66       -0.3114
   1314  C5'       18.9190    0.2660   21.8390 C.3    66  DA66        0.1811
   1315  C4'       18.6130    0.9100   23.1810 C.3    66  DA66        0.1746
   1316  O4'       19.7890    1.6190   23.6550 O.3    66  DA66       -0.3327
   1317  C3'       17.5070    1.9560   23.2200 C.3    66  DA66        0.1558
   1318  O3'       16.2230    1.3580   23.3670 O.3    66  DA66       -0.3138
   1319  C2'       17.8670    2.7490   24.4700 C.3    66  DA66        0.0865
   1320  C1'       19.3940    2.7690   24.3850 C.3    66  DA66        0.2094
   1321  N9        19.8850    3.9020   23.6920 N.ar   66  DA66       -0.2714
   1322  C8        20.2390    3.9360   22.3680 C.ar   66  DA66        0.1815
   1323  N7        20.6530    5.1140   21.9620 N.ar   66  DA66       -0.2193
   1324  C5        20.5630    5.9060   23.0950 C.ar   66  DA66        0.1518
   1325  C6        20.8570    7.2610   23.3270 C.ar   66  DA66        0.1919
   1326  N6        21.3200    8.0890   22.3880 N.pl3  66  DA66       -0.1054
   1327  N1        20.6560    7.7410   24.5730 N.ar   66  DA66       -0.2040
   1328  C2        20.1920    6.9110   25.5140 C.ar   66  DA66        0.2016
   1329  N3        19.8810    5.6200   25.4180 N.ar   66  DA66       -0.2048
   1330  C4        20.0910    5.1740   24.1680 C.ar   66  DA66        0.1691
   1331  P         15.0420    2.1090   22.7660 P.3    67  DG67        0.2141
   1332  OP1       13.6160    1.8820   23.0810 O.3    67  DG67       -0.4373
   1333  OP2       15.4830    2.2740   21.3590 O.2    67  DG67       -0.5172
   1334  O5'       15.5110    3.3820   23.6110 O.3    67  DG67       -0.3114
   1335  C5'       15.2690    3.4200   25.0080 C.3    67  DG67        0.1812
   1336  C4'       15.1770    4.8590   25.4670 C.3    67  DG67        0.1795
   1337  O4'       16.4900    5.4740   25.3570 O.3    67  DG67       -0.3153
   1338  C3'       14.2260    5.7010   24.6240 C.3    67  DG67        0.1883
   1339  O3'       13.3730    6.4790   25.4610 O.3    67  DG67       -0.2202
   1340  C2'       15.1610    6.5960   23.8220 C.3    67  DG67        0.1155
   1341  C1'       16.3280    6.7500   24.7850 C.3    67  DG67        0.2912
   1342  N9        17.4530    6.9510   24.4210 N.pl3  67  DG67       -0.1302
   1343  C8        17.3840    6.4930   23.1280 C.2    67  DG67        0.2799
   1344  N7        17.7730    7.3740   22.2480 N.2    67  DG67       -0.2096
   1345  C5        18.1240    8.4800   23.0000 C.3    67  DG67        0.3075
   1346  C6        18.6180    9.7490   22.6030 C.2    67  DG67        0.3591
   1347  O6        18.8520   10.1550   21.4580 O.2    67  DG67       -0.2502
   1348  N1        18.8430   10.5850   23.6930 N.am   67  DG67        0.0478
   1349  C2        18.6190   10.2410   25.0050 C.2    67  DG67        0.5013
   1350  N2        18.8970   11.1810   25.9180 N.2    67  DG67       -0.0815
   1351  N3        18.1600    9.0660   25.3890 N.2    67  DG67        0.0286
   1352  C4        17.9330    8.2380   24.3470 C.2    67  DG67        0.3469
   1353  P         11.6430    5.9810   25.2100 P.3    68  DC68        0.5411
   1354  OP1       10.6240    5.4050   26.1340 O.2    68  DC68       -0.2272
   1355  OP2       11.3690    6.0210   23.7670 O.2    68  DC68       -0.2272
   1356  O5'       11.9960    7.4700   25.6580 O.3    68  DC68       -0.2722
   1357  C5'       12.2010    7.7960   27.0460 C.3    68  DC68        0.1851
   1358  C4'       12.8400    9.1580   27.1770 C.3    68  DC68        0.1776
   1359  O4'       14.1020    9.1680   26.4600 O.3    68  DC68       -0.3326
   1360  C3'       12.0800   10.3320   26.5800 C.3    68  DC68        0.1864
   1361  O3'       11.0540   10.7720   27.4730 O.3    68  DC68       -0.2133
   1362  C2'       13.1930   11.3590   26.4000 C.3    68  DC68        0.0895
   1363  C1'       14.3530   10.4670   25.9510 C.3    68  DC68        0.2107
   1364  N1        14.4720   10.3820   24.5020 N.ar   68  DC68       -0.2556
   1365  C2        15.0590   11.4530   23.8180 C.ar   68  DC68        0.3531
   1366  O2        15.5030   12.4100   24.4760 O.2    68  DC68       -0.2443
   1367  N3        15.1250   11.4170   22.4660 N.ar   68  DC68       -0.1739
   1368  C4        14.6350   10.3690   21.8020 C.ar   68  DC68        0.1759
   1369  N4        14.7220   10.3770   20.4700 N.pl3  68  DC68       -0.1070
   1370  C5        14.0360    9.2730   22.4760 C.ar   68  DC68        0.0566
   1371  C6        13.9730    9.3140   23.8110 C.ar   68  DC68        0.0849
   1372  P          9.9120   11.7760   27.0540 P.3    69  DT69        0.3939
   1373  OP1        8.4380   11.7730   27.1900 O.3    69  DT69       -0.1425
   1374  OP2       10.5570   10.8740   26.0750 O.3    69  DT69       -0.1496
   1375  O5'       10.3790   13.2760   26.7560 O.3    69  DT69       -0.2926
   1376  C5'       11.6290   13.7550   27.2400 C.3    69  DT69        0.1828
   1377  C4'       11.9830   15.0790   26.5860 C.3    69  DT69        0.1747
   1378  O4'       12.9930   14.8630   25.5710 O.3    69  DT69       -0.3327
   1379  C3'       10.8300   15.7560   25.8570 C.3    69  DT69        0.1558
   1380  O3'       10.0720   16.5740   26.7420 O.3    69  DT69       -0.3138
   1381  C2'       11.5650   16.5840   24.8060 C.3    69  DT69        0.0866
   1382  C1'       12.7010   15.6440   24.4250 C.3    69  DT69        0.2106
   1383  N1        12.3470   14.7360   23.2640 N.ar   69  DT69       -0.2559
   1384  C2        12.6380   15.2340   22.0080 C.ar   69  DT69        0.3544
   1385  O2        13.2100   16.2950   21.8300 O.2    69  DT69       -0.2443
   1386  N3        12.2340   14.4420   20.9610 N.ar   69  DT69       -0.1571
   1387  C4        11.5820   13.2290   21.0410 C.ar   69  DT69        0.2294
   1388  O4        11.2840   12.6320   20.0090 O.3    69  DT69       -0.4244
   1389  C5        11.3140   12.7800   22.3790 C.ar   69  DT69        0.0489
   1390  C6        11.6960   13.5310   23.4150 C.ar   69  DT69        0.0823
   1391  C7        10.6070   11.4710   22.5720 C.3    69  DT69        0.0375
   1392  P          8.5090   16.7680   26.4840 P.3    70  DT70        0.2141
   1393  OP1        8.3630   17.3150   27.8570 O.3    70  DT70       -0.4373
   1394  OP2        7.8890   15.4620   26.1510 O.2    70  DT70       -0.5172
   1395  O5'        7.9740   17.8480   25.4450 O.3    70  DT70       -0.3114
   1396  C5'        8.4040   19.2020   25.5410 C.3    70  DT70        0.1811
   1397  C4'        8.8380   19.7270   24.1930 C.3    70  DT70        0.1746
   1398  O4'        9.5500   18.6890   23.4760 O.3    70  DT70       -0.3327
   1399  C3'        7.7600   20.1850   23.2200 C.3    70  DT70        0.1558
   1400  O3'        7.3560   21.5240   23.4980 O.3    70  DT70       -0.3138
   1401  C2'        8.4860   20.0990   21.8820 C.3    70  DT70        0.0866
   1402  C1'        9.3510   18.8530   22.0810 C.3    70  DT70        0.2106
   1403  N1         8.5170   17.7480   21.5310 N.ar   70  DT70       -0.2574
   1404  C2         8.4640   17.4910   20.1740 C.ar   70  DT70        0.3310
   1405  O2         8.8850   18.2670   19.3340 O.3    70  DT70       -0.3352
   1406  N3         7.8960   16.2880   19.8320 N.ar   70  DT70       -0.1549
   1407  C4         7.3870   15.3370   20.6920 C.ar   70  DT70        0.2804
   1408  O4         6.9080   14.3020   20.2350 O.2    70  DT70       -0.2654
   1409  C5         7.4780   15.6770   22.0840 C.ar   70  DT70        0.0534
   1410  C6         8.0260   16.8410   22.4440 C.ar   70  DT70        0.0824
   1411  C7         6.9510   14.7070   23.0990 C.3    70  DT70        0.0377
   1412  P          5.8930   21.7870   23.3310 P.3    71  DA71        0.2141
   1413  OP1        5.3340   22.8600   24.1840 O.3    71  DA71       -0.4373
   1414  OP2        5.0840   20.5840   23.0250 O.2    71  DA71       -0.5172
   1415  O5'        6.2470   22.3940   21.8910 O.3    71  DA71       -0.3114
   1416  C5'        6.4080   23.8030   21.7550 C.3    71  DA71        0.1811
   1417  C4'        6.9730   24.2110   20.4140 C.3    71  DA71        0.1744
   1418  O4'        8.2700   23.5720   20.2440 O.3    71  DA71       -0.3349
   1419  C3'        6.1210   23.8300   19.2020 C.3    71  DA71        0.1555
   1420  O3'        5.7930   24.9360   18.3660 O.3    71  DA71       -0.3139
   1421  C2'        6.9660   22.8470   18.4000 C.3    71  DA71        0.0835
   1422  C1'        8.3690   22.9730   18.9690 C.3    71  DA71        0.1973
   1423  N9         8.4820   21.5050   19.0450 N.pl3  71  DA71       -0.2475
   1424  C8         8.0030   20.5680   19.9230 C.3    71  DA71        0.2422
   1425  N7         8.1610   19.3310   19.5140 N.4    71  DA71       -0.1654
   1426  C5         8.7840   19.4650   18.2840 C.ar   71  DA71        0.1614
   1427  C6         9.2230   18.5220   17.3380 C.ar   71  DA71        0.1927
   1428  N6         9.0940   17.2020   17.4960 N.pl3  71  DA71       -0.1054
   1429  N1         9.8050   18.9870   16.2130 N.ar   71  DA71       -0.2040
   1430  C2         9.9350   20.3100   16.0560 C.ar   71  DA71        0.2014
   1431  N3         9.5630   21.2930   16.8730 N.ar   71  DA71       -0.2072
   1432  C4         8.9870   20.7980   17.9810 C.ar   71  DA71        0.1582
   1433  P          4.2750   24.7730   17.7060 P.3    72  DT72        0.2141
   1434  OP1        3.7970   26.1570   17.9210 O.2    72  DT72       -0.5172
   1435  OP2        3.5410   23.5990   18.2410 O.3    72  DT72       -0.4373
   1436  O5'        4.3420   24.5240   16.1310 O.3    72  DT72       -0.3114
   1437  C5'        5.2450   25.3190   15.3850 C.3    72  DT72        0.1811
   1438  C4'        5.7840   24.5390   14.2240 C.3    72  DT72        0.1746
   1439  O4'        6.8180   23.6180   14.6680 O.3    72  DT72       -0.3327
   1440  C3'        4.7640   23.6320   13.5740 C.3    72  DT72        0.1558
   1441  O3'        3.8370   24.3340   12.7620 O.3    72  DT72       -0.3138
   1442  C2'        5.6660   22.6460   12.8420 C.3    72  DT72        0.0866
   1443  C1'        6.7940   22.4600   13.8660 C.3    72  DT72        0.2106
   1444  N1         6.6300   21.2040   14.6140 N.ar   72  DT72       -0.2559
   1445  C2         6.7910   19.9660   14.0200 C.ar   72  DT72        0.3545
   1446  O2         7.0700   19.8270   12.8420 O.2    72  DT72       -0.2443
   1447  N3         6.6130   18.8920   14.8570 N.ar   72  DT72       -0.1533
   1448  C4         6.2960   18.9290   16.1990 C.ar   72  DT72        0.2804
   1449  O4         6.1690   17.8770   16.8200 O.2    72  DT72       -0.2654
   1450  C5         6.1440   20.2500   16.7420 C.ar   72  DT72        0.0534
   1451  C6         6.3120   21.3120   15.9500 C.ar   72  DT72        0.0824
   1452  C7         5.7980   20.3960   18.1940 C.3    72  DT72        0.0377
   1453  P          2.2770   23.6530   12.5840 P.3    73  DT73        0.2141
   1454  OP1        1.4660   24.8860   12.4780 O.2    73  DT73       -0.5172
   1455  OP2        2.8590   23.2700   13.8890 O.3    73  DT73       -0.4373
   1456  O5'        1.3980   22.4340   12.0370 O.3    73  DT73       -0.3114
   1457  C5'        2.0140   21.3410   11.3650 C.3    73  DT73        0.1811
   1458  C4'        1.0380   20.1880   11.2130 C.3    73  DT73        0.1746
   1459  O4'        1.3500   19.1580   12.1820 O.3    73  DT73       -0.3327
   1460  C3'       -0.4180   20.5500   11.4760 C.3    73  DT73        0.1558
   1461  O3'       -1.0480   21.0350   10.2960 O.3    73  DT73       -0.3138
   1462  C2'       -0.9990   19.2110   11.9230 C.3    73  DT73        0.0866
   1463  C1'        0.1540   18.6400   12.7390 C.3    73  DT73        0.2106
   1464  N1         0.0490   19.0420   14.1740 N.ar   73  DT73       -0.2559
   1465  C2        -0.8950   18.3520   14.9100 C.ar   73  DT73        0.3545
   1466  O2        -1.5790   17.4590   14.4420 O.2    73  DT73       -0.2443
   1467  N3        -1.0130   18.7460   16.2210 N.ar   73  DT73       -0.1533
   1468  C4        -0.2970   19.7400   16.8560 C.ar   73  DT73        0.2804
   1469  O4        -0.5160   19.9800   18.0410 O.2    73  DT73       -0.2654
   1470  C5         0.6630   20.4110   16.0250 C.ar   73  DT73        0.0534
   1471  C6         0.7980   20.0470   14.7470 C.ar   73  DT73        0.0824
   1472  C7         1.4920   21.5090   16.6240 C.3    73  DT73        0.0377
   1473  P         -2.0530   22.0700   10.6400 P.3    74  DC74        0.2141
   1474  OP1       -2.2050   22.7920    9.3560 O.2    74  DC74       -0.5172
   1475  OP2       -1.9290   22.8100   11.9190 O.3    74  DC74       -0.4373
   1476  O5'       -3.2940   21.0760   10.8700 O.3    74  DC74       -0.3114
   1477  C5'       -4.6290   21.4270   11.2150 C.3    74  DC74        0.1811
   1478  C4'       -5.6010   20.3610   10.7570 C.3    74  DC74        0.1746
   1479  O4'       -5.4350   20.1490    9.3310 O.3    74  DC74       -0.3327
   1480  C3'       -5.4330   18.9770   11.3730 C.3    74  DC74        0.1558
   1481  O3'       -6.1350   18.8290   12.5970 O.3    74  DC74       -0.3138
   1482  C2'       -5.9350   18.0260   10.2930 C.3    74  DC74        0.0866
   1483  C1'       -5.6550   18.7960    9.0040 C.3    74  DC74        0.2106
   1484  N1        -4.5890   18.0910    8.7370 N.ar   74  DC74       -0.2556
   1485  C2        -4.5550   16.9060    7.9930 C.ar   74  DC74        0.3531
   1486  O2        -5.6290   16.3510    7.7030 O.2    74  DC74       -0.2443
   1487  N3        -3.3570   16.4000    7.6140 N.ar   74  DC74       -0.1739
   1488  C4        -2.2310   17.0300    7.9490 C.ar   74  DC74        0.1759
   1489  N4        -1.0740   16.4940    7.5530 N.pl3  74  DC74       -0.1070
   1490  C5        -2.2440   18.2320    8.7020 C.ar   74  DC74        0.0566
   1491  C6        -3.4290   18.7280    9.0750 C.ar   74  DC74        0.0849
   1492  P         -6.1690   17.1570   13.7660 P.3    75  DA75        0.2141
   1493  OP1       -6.5160   17.5100   15.1600 O.3    75  DA75       -0.4373
   1494  OP2       -4.7790   17.3560   13.2910 O.2    75  DA75       -0.5172
   1495  O5'       -6.5020   15.6120   13.4710 O.3    75  DA75       -0.3114
   1496  C5'       -7.8520   15.2020   13.2900 C.3    75  DA75        0.1811
   1497  C4'       -7.9910   13.8850   12.5560 C.3    75  DA75        0.1746
   1498  O4'       -7.6570   14.0220   11.1480 O.3    75  DA75       -0.3327
   1499  C3'       -7.0910   12.7530   13.0180 C.3    75  DA75        0.1558
   1500  O3'       -7.5230   12.1470   14.2210 O.3    75  DA75       -0.3138
   1501  C2'       -7.0960   11.8220   11.8110 C.3    75  DA75        0.0865
   1502  C1'       -7.0310   12.8430   10.6820 C.3    75  DA75        0.2094
   1503  N9        -5.5680   13.1870   10.3340 N.ar   75  DA75       -0.2714
   1504  C8        -5.1010   14.4750   10.3600 C.ar   75  DA75        0.1815
   1505  N7        -3.9470   14.6320    9.7570 N.ar   75  DA75       -0.2193
   1506  C5        -3.6330   13.3600    9.3050 C.ar   75  DA75        0.1518
   1507  C6        -2.5340   12.8550    8.5880 C.ar   75  DA75        0.1919
   1508  N6        -1.5070   13.6060    8.1830 N.pl3  75  DA75       -0.1054
   1509  N1        -2.5280   11.5370    8.2970 N.ar   75  DA75       -0.2040
   1510  C2        -3.5580   10.7850    8.7020 C.ar   75  DA75        0.2016
   1511  N3        -4.6460   11.1440    9.3800 N.ar   75  DA75       -0.2048
   1512  C4        -4.6210   12.4590    9.6540 C.ar   75  DA75        0.1691
   1513  P         -6.7000   12.5750   15.4620 P.3    76  DA76        0.2141
   1514  OP1       -7.4390   12.1500   16.6650 O.3    76  DA76       -0.4373
   1515  OP2       -5.7370   13.7070   15.5470 O.2    76  DA76       -0.5172
   1516  O5'       -5.8860   11.3210   14.9220 O.3    76  DA76       -0.3114
   1517  C5'       -6.5910   10.1520   14.5020 C.3    76  DA76        0.1811
   1518  C4'       -5.7020    9.2690   13.6740 C.3    76  DA76        0.1746
   1519  O4'       -5.3750    9.9300   12.4230 O.3    76  DA76       -0.3327
   1520  C3'       -4.3680    8.9270   14.3090 C.3    76  DA76        0.1558
   1521  O3'       -4.5200    7.8030   15.1630 O.3    76  DA76       -0.3138
   1522  C2'       -3.4940    8.6290   13.0950 C.3    76  DA76        0.0865
   1523  C1'       -4.0600    9.5840   12.0400 C.3    76  DA76        0.2094
   1524  N9        -3.2570   10.7910   12.0250 N.ar   76  DA76       -0.2714
   1525  C8        -3.5180   11.9480   12.7110 C.ar   76  DA76        0.1815
   1526  N7        -2.6110   12.8810   12.5400 N.ar   76  DA76       -0.2190
   1527  C5        -1.6910   12.2960   11.6840 C.ar   76  DA76        0.1549
   1528  C6        -0.4930   12.7660   11.1190 C.ar   76  DA76        0.2112
   1529  N6        -0.0000   13.9870   11.3410 N.4    76  DA76       -0.1032
   1530  N1         0.1880   11.9300   10.3070 N.ar   76  DA76       -0.2013
   1531  C2        -0.3080   10.7070   10.0840 C.ar   76  DA76        0.2018
   1532  N3        -1.4220   10.1520   10.5560 N.ar   76  DA76       -0.2048
   1533  C4        -2.0750   11.0080   11.3600 C.ar   76  DA76        0.1693
   1534  P         -3.1380    7.0280   15.7950 P.3    77  DT77        0.2141
   1535  OP1       -3.6150    5.7540   16.3880 O.2    77  DT77       -0.5172
   1536  OP2       -2.8550    8.1870   16.6660 O.3    77  DT77       -0.4373
   1537  O5'       -1.8170    6.7620   14.9330 O.3    77  DT77       -0.3114
   1538  C5'       -1.5810    5.4870   14.3310 C.3    77  DT77        0.1811
   1539  C4'       -0.3300    5.5280   13.4730 C.3    77  DT77        0.1746
   1540  O4'       -0.3300    6.7310   12.6530 O.3    77  DT77       -0.3327
   1541  C3'        0.9680    5.6440   14.2500 C.3    77  DT77        0.1558
   1542  O3'        1.3840    4.4120   14.7970 O.3    77  DT77       -0.3138
   1543  C2'        1.9050    6.1530   13.1650 C.3    77  DT77        0.0866
   1544  C1'        1.0010    7.1920   12.4970 C.3    77  DT77        0.2106
   1545  N1         1.1880    8.5450   13.1190 N.ar   77  DT77       -0.2559
   1546  C2         2.2940    9.2890   12.7520 C.ar   77  DT77        0.3545
   1547  O2         3.1580    8.8690   12.0030 O.2    77  DT77       -0.2443
   1548  N3         2.3530   10.5490   13.2970 N.ar   77  DT77       -0.1542
   1549  C4         1.4390   11.1260   14.1530 C.ar   77  DT77        0.2678
   1550  O4         1.6290   12.2700   14.5590 O.3    77  DT77       -0.3048
   1551  C5         0.3200   10.2910   14.4870 C.ar   77  DT77        0.0523
   1552  C6         0.2370    9.0610   13.9710 C.ar   77  DT77        0.0824
   1553  C7        -0.7300   10.8300   15.4130 C.3    77  DT77        0.0376
   1554  P          2.0290    4.4710   16.1840 P.3    78  DT78        0.2141
   1555  OP1        1.8760    3.2230   16.9660 O.3    78  DT78       -0.4373
   1556  OP2        1.7000    5.7770   16.8170 O.2    78  DT78       -0.5172
   1557  O5'        3.5060    4.4710   15.5960 O.3    78  DT78       -0.3114
   1558  C5'        3.8450    3.4850   14.6270 C.3    78  DT78        0.1811
   1559  C4'        5.2730    3.6190   14.1650 C.3    78  DT78        0.1746
   1560  O4'        5.4230    4.8320   13.3770 O.3    78  DT78       -0.3327
   1561  C3'        6.2500    3.7700   15.3130 C.3    78  DT78        0.1558
   1562  O3'        7.0130    2.6510   15.7670 O.3    78  DT78       -0.3138
   1563  C2'        6.5790    5.2550   15.4490 C.3    78  DT78        0.0866
   1564  C1'        6.2410    5.7720   14.0510 C.3    78  DT78        0.2106
   1565  N1         5.3590    7.0620   14.0570 N.ar   78  DT78       -0.2559
   1566  C2         5.8670    8.2520   13.5710 C.ar   78  DT78        0.3545
   1567  O2         6.6280    8.3100   12.6220 O.2    78  DT78       -0.2443
   1568  N3         5.4500    9.3780   14.2390 N.ar   78  DT78       -0.1533
   1569  C4         4.5960    9.4320   15.3210 C.ar   78  DT78        0.2804
   1570  O4         4.3130   10.5210   15.8140 O.2    78  DT78       -0.2654
   1571  C5         4.1130    8.1560   15.7670 C.ar   78  DT78        0.0534
   1572  C6         4.5020    7.0450   15.1360 C.ar   78  DT78        0.0824
   1573  C7         3.1780    8.1100   16.9390 C.3    78  DT78        0.0377
   1574  P          8.5000    2.1100   15.0550 P.3    79  DA79        0.2141
   1575  OP1        9.5310    1.3810   15.8290 O.3    79  DA79       -0.4373
   1576  OP2        8.5360    3.5870   15.0120 O.2    79  DA79       -0.5172
   1577  O5'        8.4860    1.5460   13.5600 O.3    79  DA79       -0.3114
   1578  C5'        9.2060    0.3610   13.2470 C.3    79  DA79        0.1811
   1579  C4'        9.2670    0.0930   11.7530 C.3    79  DA79        0.1746
   1580  O4'        7.9320   -0.0420   11.2070 O.3    79  DA79       -0.3327
   1581  C3'        9.9280    1.1800   10.9150 C.3    79  DA79        0.1558
   1582  O3'       11.3390    0.9720   10.9030 O.3    79  DA79       -0.3138
   1583  C2'        9.2630    1.0030    9.5480 C.3    79  DA79        0.0865
   1584  C1'        7.8430    0.6250    9.9610 C.3    79  DA79        0.2094
   1585  N9         6.6540    1.2520   10.1120 N.ar   79  DA79       -0.2714
   1586  C8         5.9650    1.6260   11.2360 C.ar   79  DA79        0.1815
   1587  N7         5.2080    2.6840   11.0650 N.ar   79  DA79       -0.2193
   1588  C5         5.4150    3.0280    9.7390 C.ar   79  DA79        0.1518
   1589  C6         4.8990    4.0630    8.9390 C.ar   79  DA79        0.1919
   1590  N6         4.0320    4.9770    9.3810 N.pl3  79  DA79       -0.1054
   1591  N1         5.3090    4.1260    7.6540 N.ar   79  DA79       -0.2040
   1592  C2         6.1770    3.2090    7.2120 C.ar   79  DA79        0.2016
   1593  N3         6.7310    2.1910    7.8660 N.ar   79  DA79       -0.2048
   1594  C4         6.3040    2.1560    9.1390 C.ar   79  DA79        0.1691
   1595  P         12.5600    2.3230   11.2290 P.3    80  DG80        0.2141
   1596  OP1       13.9370    1.7720   11.3450 O.2    80  DG80       -0.5172
   1597  OP2       12.1730    3.5410   11.9920 O.3    80  DG80       -0.4373
   1598  O5'       12.3110    2.6550    9.6930 O.3    80  DG80       -0.3114
   1599  C5'       12.5590    1.6960    8.6840 C.3    80  DG80        0.1811
   1600  C4'       11.9710    2.1730    7.3870 C.3    80  DG80        0.1746
   1601  O4'       10.5220    2.2350    7.5120 O.3    80  DG80       -0.3327
   1602  C3'       12.3520    3.5870    6.9850 C.3    80  DG80        0.1558
   1603  O3'       13.5900    3.5750    6.2930 O.3    80  DG80       -0.3138
   1604  C2'       11.2360    3.9100    6.0130 C.3    80  DG80        0.0865
   1605  C1'       10.0300    3.3320    6.7590 C.3    80  DG80        0.2094
   1606  N9         9.4430    4.2510    7.6540 N.ar   80  DG80       -0.2713
   1607  C8         9.5730    4.2310    9.0210 C.ar   80  DG80        0.1816
   1608  N7         8.9900    5.2390    9.6090 N.ar   80  DG80       -0.2173
   1609  C5         8.4390    5.9690    8.5730 C.ar   80  DG80        0.1748
   1610  C6         7.6850    7.1710    8.5880 C.ar   80  DG80        0.3023
   1611  O6         7.3450    7.8490    9.5660 O.2    80  DG80       -0.2633
   1612  N1         7.3210    7.5740    7.3070 N.ar   80  DG80       -0.1709
   1613  C2         7.6420    6.9010    6.1520 C.ar   80  DG80        0.2606
   1614  N2         7.2000    7.4430    5.0090 N.pl3  80  DG80       -0.0859
   1615  N3         8.3410    5.7840    6.1220 N.ar   80  DG80       -0.1918
   1616  C4         8.7070    5.3740    7.3550 C.ar   80  DG80        0.1722
   1617  P         14.3800    4.9700    6.0030 P.3    81  DA81        0.2141
   1618  OP1       15.6990    4.6140    5.4330 O.2    81  DA81       -0.5172
   1619  OP2       14.2510    5.2240    7.4600 O.3    81  DA81       -0.4373
   1620  O5'       13.7600    6.2650    5.3020 O.3    81  DA81       -0.3114
   1621  C5'       13.8300    6.2680    3.8880 C.3    81  DA81        0.1811
   1622  C4'       13.0260    7.3820    3.2780 C.3    81  DA81        0.1746
   1623  O4'       11.6470    7.2680    3.7110 O.3    81  DA81       -0.3327
   1624  C3'       13.4100    8.7980    3.6770 C.3    81  DA81        0.1558
   1625  O3'       14.5570    9.2950    3.0100 O.3    81  DA81       -0.3138
   1626  C2'       12.1330    9.5560    3.3410 C.3    81  DA81        0.0865
   1627  C1'       11.0700    8.5520    3.7920 C.3    81  DA81        0.2094
   1628  N9        10.7300    8.7150    5.1830 N.ar   81  DA81       -0.2714
   1629  C8        11.1840    7.9580    6.2320 C.ar   81  DA81        0.1815
   1630  N7        10.6420    8.2720    7.3840 N.ar   81  DA81       -0.2193
   1631  C5         9.7720    9.3050    7.0710 C.ar   81  DA81        0.1518
   1632  C6         8.8960   10.0740    7.8570 C.ar   81  DA81        0.1919
   1633  N6         8.7470    9.9120    9.1740 N.pl3  81  DA81       -0.1054
   1634  N1         8.1700   11.0280    7.2350 N.ar   81  DA81       -0.2040
   1635  C2         8.3190   11.1890    5.9150 C.ar   81  DA81        0.2016
   1636  N3         9.1080   10.5280    5.0710 N.ar   81  DA81       -0.2048
   1637  C4         9.8170    9.5890    5.7200 C.ar   81  DA81        0.1691
   1638  P         15.5070   10.2980    3.7900 P.3    82  DT82        0.2141
   1639  OP1       16.3260   10.8490    2.6860 O.2    82  DT82       -0.5172
   1640  OP2       16.1510    9.8240    5.0340 O.3    82  DT82       -0.4373
   1641  O5'       14.4800   11.4180    4.2910 O.3    82  DT82       -0.3114
   1642  C5'       14.0410   12.4280    3.3920 C.3    82  DT82        0.1815
   1643  C4'       13.6020   13.6670    4.1330 C.3    82  DT82        0.1795
   1644  O4'       12.3510   13.4220    4.8250 O.3    82  DT82       -0.3288
   1645  C3'       14.5620   14.1500    5.2090 C.3    82  DT82        0.1807
   1646  O3'       15.5830   14.9630    4.6520 O.3    82  DT82       -0.3090
   1647  C2'       13.6540   14.8950    6.1870 C.2    82  DT82        0.0686
   1648  C1'       12.3030   14.1890    6.0110 C.3    82  DT82        0.2379
   1649  N1        11.8120   12.9640    7.0240 N.ar   82  DT82       -0.2535
   1650  C2        10.9030   13.3630    7.9860 C.ar   82  DT82        0.3338
   1651  O2        10.3720   14.4600    7.9830 O.3    82  DT82       -0.3134
   1652  N3        10.6360   12.4290    8.9570 N.ar   82  DT82       -0.1549
   1653  C4        11.1750   11.1630    9.0610 C.ar   82  DT82        0.2804
   1654  O4        10.8360   10.4360    9.9910 O.2    82  DT82       -0.2654
   1655  C5        12.1110   10.8230    8.0260 C.ar   82  DT82        0.0534
   1656  C6        12.3890   11.7130    7.0700 C.ar   82  DT82        0.0827
   1657  C7        12.7530    9.4670    8.0520 C.3    82  DT82        0.0377
   1658  P         17.3720   14.8770    5.0870 P.3    83  DA83        0.2144
   1659  OP1       18.0730   15.8640    4.2390 O.2    83  DA83       -0.5172
   1660  OP2       17.7760   13.4530    5.0370 O.3    83  DA83       -0.4373
   1661  O5'       17.4820   15.3660    6.6010 O.3    83  DA83       -0.3114
   1662  C5'       16.8630   16.5910    7.0220 C.3    83  DA83        0.1811
   1663  C4'       17.0150   16.7630    8.5110 C.3    83  DA83        0.1746
   1664  O4'       16.3280   15.6920    9.1990 O.3    83  DA83       -0.3327
   1665  C3'       18.4440   16.7080    9.0260 C.3    83  DA83        0.1558
   1666  O3'       19.0160   18.0120    8.8960 O.3    83  DA83       -0.3138
   1667  C2'       18.2480   16.2980   10.4860 C.3    83  DA83        0.0865
   1668  C1'       17.0100   15.3980   10.3990 C.3    83  DA83        0.2094
   1669  N9        17.1310   14.0270   10.3900 N.ar   83  DA83       -0.2714
   1670  C8        17.3780   13.1770    9.3440 C.ar   83  DA83        0.1815
   1671  N7        17.9460   12.0490    9.7010 N.ar   83  DA83       -0.2193
   1672  C5        18.0830   12.1670   11.0750 C.ar   83  DA83        0.1518
   1673  C6        18.6140   11.3050   12.0510 C.ar   83  DA83        0.1919
   1674  N6        19.1270   10.1040   11.7750 N.pl3  83  DA83       -0.1054
   1675  N1        18.6000   11.7260   13.3330 N.ar   83  DA83       -0.2040
   1676  C2        18.0850   12.9300   13.6090 C.ar   83  DA83        0.2016
   1677  N3        17.5560   13.8280   12.7800 N.ar   83  DA83       -0.2048
   1678  C4        17.5860   13.3800   11.5140 C.ar   83  DA83        0.1691
   1679  P         20.7050   18.2570    8.3380 P.3    84  DG84        0.2141
   1680  OP1       20.9020   19.6070    7.7420 O.2    84  DG84       -0.5172
   1681  OP2       21.2930   17.0180    7.7950 O.3    84  DG84       -0.4373
   1682  O5'       21.3410   18.2300    9.8220 O.3    84  DG84       -0.3114
   1683  C5'       20.8990   19.1010   10.8790 C.3    84  DG84        0.1811
   1684  C4'       21.3800   18.6140   12.2360 C.3    84  DG84        0.1746
   1685  O4'       20.6040   17.4560   12.5730 O.3    84  DG84       -0.3327
   1686  C3'       22.7710   18.0520   12.2620 C.3    84  DG84        0.1558
   1687  O3'       23.7110   19.1130   12.3070 O.3    84  DG84       -0.3138
   1688  C2'       22.7450   17.1580   13.5050 C.3    84  DG84        0.0865
   1689  C1'       21.3720   16.5660   13.3410 C.3    84  DG84        0.2094
   1690  N9        21.4650   15.2380   12.6680 N.ar   84  DG84       -0.2713
   1691  C8        21.0770   14.9330   11.3860 C.ar   84  DG84        0.1816
   1692  N7        21.2900   13.6860   11.0660 N.ar   84  DG84       -0.2173
   1693  C5        21.8500   13.1310   12.2020 C.ar   84  DG84        0.1748
   1694  C6        22.2950   11.8090   12.4600 C.ar   84  DG84        0.3023
   1695  O6        22.2790   10.8330   11.7000 O.2    84  DG84       -0.2633
   1696  N1        22.8010   11.6730   13.7500 N.ar   84  DG84       -0.1709
   1697  C2        22.8690   12.6860   14.6770 C.ar   84  DG84        0.2606
   1698  N2        23.3880   12.3620   15.8690 N.pl3  84  DG84       -0.0859
   1699  N3        22.4600   13.9190   14.4510 N.ar   84  DG84       -0.1918
   1700  C4        21.9660   14.0740   13.2040 C.ar   84  DG84        0.1722
   1701  P         25.3380   18.9020   11.6600 P.3    85  DT85        0.2141
   1702  OP1       26.0170   20.1860   11.3620 O.3    85  DT85       -0.4373
   1703  OP2       25.0010   17.9910   10.5350 O.2    85  DT85       -0.5172
   1704  O5'       26.2610   18.0990   12.6630 O.3    85  DT85       -0.3114
   1705  C5'       26.4460   18.4790   13.9970 C.3    85  DT85        0.1812
   1706  C4'       26.8710   17.2280   14.7540 C.3    85  DT85        0.1775
   1707  O4'       25.8240   16.2190   14.7730 O.3    85  DT85       -0.3326
   1708  C3'       28.0700   16.5290   14.1240 C.3    85  DT85        0.1864
   1709  O3'       29.2730   17.2230   14.4480 O.3    85  DT85       -0.2133
   1710  C2'       27.9450   15.1620   14.7710 C.3    85  DT85        0.0895
   1711  C1'       26.4270   14.9430   14.8200 C.3    85  DT85        0.2107
   1712  N1        26.1870   14.1440   13.6190 N.ar   85  DT85       -0.2574
   1713  C2        26.3400   12.7720   13.6800 C.ar   85  DT85        0.3310
   1714  O2        26.7400   12.1920   14.6740 O.3    85  DT85       -0.3356
   1715  N3        26.0060   12.0990   12.5300 N.ar   85  DT85       -0.1549
   1716  C4        25.5450   12.6480   11.3520 C.ar   85  DT85        0.2804
   1717  O4        25.2850   11.9120   10.4020 O.2    85  DT85       -0.2654
   1718  C5        25.4140   14.0780   11.3670 C.ar   85  DT85        0.0534
   1719  C6        25.7320   14.7570   12.4720 C.ar   85  DT85        0.0824
   1720  C7        24.9200   14.7700   10.1310 C.3    85  DT85        0.0377
   1721  P         30.3150   17.3680   13.4310 P.3    86  DA86        0.3939
   1722  OP1       29.8870   17.7370   14.7970 O.3    86  DA86       -0.1496
   1723  OP2       31.6840   17.6990   12.9800 O.3    86  DA86       -0.1425
   1724  O5'       30.2630   15.7690   13.3270 O.3    86  DA86       -0.2926
   1725  C5'       31.3590   15.1000   12.7130 C.3    86  DA86        0.1828
   1726  C4'       31.5090   13.6590   13.1410 C.3    86  DA86        0.1747
   1727  O4'       31.9430   13.6050   14.5290 O.3    86  DA86       -0.3327
   1728  C3'       30.2450   12.8050   13.0370 C.3    86  DA86        0.1558
   1729  O3'       30.3290   11.7860   12.0450 O.3    86  DA86       -0.3138
   1730  C2'       30.0790   12.1370   14.3980 C.3    86  DA86        0.0865
   1731  C1'       31.2600   12.5930   15.2420 C.3    86  DA86        0.2094
   1732  N9        30.4740   13.7180   16.2740 N.ar   86  DA86       -0.2714
   1733  C8        29.9070   14.9450   16.0470 C.ar   86  DA86        0.1815
   1734  N7        29.2700   15.4330   17.0850 N.ar   86  DA86       -0.2193
   1735  C5        29.4280   14.4600   18.0590 C.ar   86  DA86        0.1518
   1736  C6        28.9860   14.3750   19.3910 C.ar   86  DA86        0.1919
   1737  N6        28.2670   15.3250   19.9940 N.pl3  86  DA86       -0.1054
   1738  N1        29.3150   13.2680   20.0900 N.ar   86  DA86       -0.2040
   1739  C2        30.0370   12.3170   19.4860 C.ar   86  DA86        0.2016
   1740  N3        30.5090   12.2840   18.2420 N.ar   86  DA86       -0.2048
   1741  C4        30.1660   13.3970   17.5740 C.ar   86  DA86        0.1691
   1742  P         29.2180   11.4890   11.5120 P.3    87  DA87        0.2141
   1743  OP1       29.4200   11.0850   10.0960 O.2    87  DA87       -0.5172
   1744  OP2       28.3670   12.6690   11.8070 O.3    87  DA87       -0.4373
   1745  O5'       28.6910   10.2110   12.3360 O.3    87  DA87       -0.3114
   1746  C5'       29.4510    8.9860   12.3300 C.3    87  DA87        0.1811
   1747  C4'       29.1230    8.0630   13.4960 C.3    87  DA87        0.1741
   1748  O4'       29.5230    8.6470   14.7560 O.3    87  DA87       -0.3381
   1749  C3'       27.6540    7.7590   13.7190 C.3    87  DA87        0.1552
   1750  O3'       27.2690    6.7530   12.8080 O.3    87  DA87       -0.3139
   1751  C2'       27.6440    7.3270   15.1800 C.3    87  DA87        0.0795
   1752  C1'       28.5340    8.4110   15.7460 C.3    87  DA87        0.1820
   1753  N9        27.8950    9.7660   16.1470 N.3    87  DA87       -0.2044
   1754  C8        27.5860   10.8780   15.4080 C.3    87  DA87        0.2237
   1755  N7        27.2130   11.9070   16.1310 N.4    87  DA87       -0.1683
   1756  C5        27.2820   11.4390   17.4340 C.2    87  DA87        0.1983
   1757  C6        27.0120   12.0470   18.6730 C.2    87  DA87        0.4257
   1758  N6        26.6030   13.3110   18.8030 N.pl3  87  DA87        0.2156
   1759  N1        27.1790   11.3010   19.7860 N.pl3  87  DA87        0.0229
   1760  C2        27.5900   10.0350   19.6550 C.2    87  DA87        0.3238
   1761  N3        27.8760    9.3540   18.5470 N.2    87  DA87       -0.2061
   1762  C4        27.6990   10.1220   17.4590 C.3    87  DA87        0.2189
   1763  P         26.0990    6.9690   12.0710 P.3    88  DG88        0.2141
   1764  OP1       26.3040    6.0450   10.9200 O.2    88  DG88       -0.5172
   1765  OP2       25.6660    8.3780   11.8400 O.3    88  DG88       -0.4373
   1766  O5'       25.1260    6.3050   13.1360 O.3    88  DG88       -0.3114
   1767  C5'       25.5710    5.2070   13.9060 C.3    88  DG88        0.1811
   1768  C4'       25.0090    5.2820   15.3000 C.3    88  DG88        0.1746
   1769  O4'       25.5470    6.4140   16.0330 O.3    88  DG88       -0.3327
   1770  C3'       23.5230    5.5120   15.3950 C.3    88  DG88        0.1558
   1771  O3'       22.7920    4.3420   15.1230 O.3    88  DG88       -0.3138
   1772  C2'       23.3550    5.9670   16.8320 C.3    88  DG88        0.0865
   1773  C1'       24.6290    6.7790   17.0580 C.3    88  DG88        0.2094
   1774  N9        24.3450    8.1350   17.0200 N.ar   88  DG88       -0.2713
   1775  C8        24.7480    8.9970   16.0290 C.ar   88  DG88        0.1816
   1776  N7        24.3880   10.2330   16.2430 N.ar   88  DG88       -0.2173
   1777  C5        23.7090   10.1890   17.4470 C.ar   88  DG88        0.1748
   1778  C6        23.0830   11.2220   18.1920 C.ar   88  DG88        0.3023
   1779  O6        23.0070   12.4260   17.9170 O.2    88  DG88       -0.2633
   1780  N1        22.5050   10.7410   19.3630 N.ar   88  DG88       -0.1709
   1781  C2        22.5280    9.4280   19.7680 C.ar   88  DG88        0.2606
   1782  N2        21.9170    9.1570   20.9290 N.pl3  88  DG88       -0.0859
   1783  N3        23.1050    8.4580   19.0860 N.ar   88  DG88       -0.1918
   1784  C4        23.6720    8.9010   17.9440 C.ar   88  DG88        0.1722
   1785  P         21.3380    4.4610   14.1980 P.3    89  DT89        0.2141
   1786  OP1       20.8940    3.1200   13.7110 O.3    89  DT89       -0.4373
   1787  OP2       21.6600    5.6560   13.3410 O.2    89  DT89       -0.5172
   1788  O5'       20.3530    4.9910   15.3570 O.3    89  DT89       -0.3114
   1789  C5'       19.7410    3.9830   16.1640 C.3    89  DT89        0.1811
   1790  C4'       18.9900    4.5320   17.3490 C.3    89  DT89        0.1746
   1791  O4'       19.8160    5.5140   17.9900 O.3    89  DT89       -0.3327
   1792  C3'       17.7710    5.3630   17.0740 C.3    89  DT89        0.1558
   1793  O3'       16.6880    4.5420   16.9080 O.3    89  DT89       -0.3138
   1794  C2'       17.5760    6.1160   18.3610 C.3    89  DT89        0.0866
   1795  C1'       19.0180    6.5520   18.5390 C.3    89  DT89        0.2106
   1796  N1        19.3410    7.8860   17.8650 N.ar   89  DT89       -0.2559
   1797  C2        18.7420    8.9990   18.4240 C.ar   89  DT89        0.3545
   1798  O2        17.9430    8.9340   19.3410 O.2    89  DT89       -0.2443
   1799  N3        19.1130   10.1990   17.8670 N.ar   89  DT89       -0.1533
   1800  C4        20.0030   10.3930   16.8310 C.ar   89  DT89        0.2804
   1801  O4        20.2360   11.5340   16.4390 O.2    89  DT89       -0.2654
   1802  C5        20.5810    9.1890   16.3040 C.ar   89  DT89        0.0534
   1803  C6        20.2390    8.0090   16.8270 C.ar   89  DT89        0.0824
   1804  C7        21.5610    9.2950   15.1730 C.3    89  DT89        0.0377
   1805  P         16.1850    4.7940   15.7720 P.3    90  DG90        0.2141
   1806  OP1       14.9080    4.1280   15.4390 O.3    90  DG90       -0.4373
   1807  OP2       16.8930    5.5160   14.6980 O.2    90  DG90       -0.5172
   1808  O5'       15.9240    5.7790   16.9930 O.3    90  DG90       -0.3114
   1809  C5'       15.0960    5.3640   18.0570 C.3    90  DG90        0.1811
   1810  C4'       14.4820    6.5680   18.7540 C.3    90  DG90        0.1746
   1811  O4'       15.4610    7.6220   18.9100 O.3    90  DG90       -0.3327
   1812  C3'       13.3720    7.2710   17.9960 C.3    90  DG90        0.1558
   1813  O3'       12.1400    6.6070   18.1340 O.3    90  DG90       -0.3138
   1814  C2'       13.3170    8.5650   18.7680 C.3    90  DG90        0.0865
   1815  C1'       14.7940    8.8660   18.9080 C.3    90  DG90        0.2094
   1816  N9        15.3250    9.6780   17.8320 N.ar   90  DG90       -0.2713
   1817  C8        15.9560    9.2450   16.6910 C.ar   90  DG90        0.1816
   1818  N7        16.1720   10.2000   15.8280 N.ar   90  DG90       -0.2173
   1819  C5        15.6560   11.3310   16.4320 C.ar   90  DG90        0.1748
   1820  C6        15.5960   12.6740   15.9780 C.ar   90  DG90        0.3023
   1821  O6        16.0080   13.1410   14.9090 O.2    90  DG90       -0.2633
   1822  N1        14.9850   13.5110   16.9080 N.ar   90  DG90       -0.1709
   1823  C2        14.4920   13.1040   18.1240 C.ar   90  DG90        0.2606
   1824  N2        13.9370   14.0570   18.8860 N.pl3  90  DG90       -0.0859
   1825  N3        14.5390   11.8600   18.5590 N.ar   90  DG90       -0.1918
   1826  C4        15.1270   11.0300   17.6720 C.ar   90  DG90        0.1722
   1827  P         11.3730    6.8950   17.3380 P.3    91  DC91        0.2141
   1828  OP1       10.1550    6.0480   17.1800 O.3    91  DC91       -0.4373
   1829  OP2       12.3080    7.0960   16.1830 O.2    91  DC91       -0.5172
   1830  O5'       10.9410    8.3070   17.9270 O.3    91  DC91       -0.3114
   1831  C5'       10.6480    8.4570   19.3190 C.3    91  DC91        0.1812
   1832  C4'       10.2320    9.8770   19.6120 C.3    91  DC91        0.1780
   1833  O4'       11.3860   10.7520   19.4920 O.3    91  DC91       -0.3053
   1834  C3'        9.2130   10.4300   18.6300 C.3    91  DC91        0.1597
   1835  O3'        7.8680   10.0740   18.9540 O.3    91  DC91       -0.3137
   1836  C2'        9.5000   11.9240   18.6570 C.3    91  DC91        0.1279
   1837  C1'       11.0240   11.9330   18.8050 C.3    91  DC91        0.3179
   1838  N1        11.5040   11.9830   17.3530 N.ar   91  DC91       -0.2263
   1839  C2        11.6080   13.2230   16.7110 C.ar   91  DC91        0.3556
   1840  O2        11.2670   14.2460   17.3290 O.2    91  DC91       -0.2442
   1841  N3        12.0750   13.2700   15.4410 N.ar   91  DC91       -0.1738
   1842  C4        12.4280   12.1460   14.8170 C.ar   91  DC91        0.1759
   1843  N4        12.8820   12.2420   13.5650 N.pl3  91  DC91       -0.1070
   1844  C5        12.3300   10.8800   15.4490 C.ar   91  DC91        0.0567
   1845  C6        11.8690   10.8370   16.7040 C.ar   91  DC91        0.0882
   1846  P          6.8560    9.5910   17.6900 P.3    92  DA92        0.2141
   1847  OP1        5.6570    8.7900   18.0260 O.3    92  DA92       -0.4373
   1848  OP2        7.6980    9.2260   16.5280 O.2    92  DA92       -0.5172
   1849  O5'        6.4020   11.0940   17.3750 O.3    92  DA92       -0.3114
   1850  C5'        5.7010   11.8430   18.3580 C.3    92  DA92        0.1811
   1851  C4'        5.8890   13.3290   18.1750 C.3    92  DA92        0.1748
   1852  O4'        7.2650   13.6080   17.8040 O.3    92  DA92       -0.3327
   1853  C3'        5.0900   13.9750   17.0570 C.3    92  DA92        0.1602
   1854  O3'        3.7290   14.1940   17.3840 O.3    92  DA92       -0.2710
   1855  C2'        5.8940   15.2440   16.8080 C.3    92  DA92        0.0867
   1856  C1'        7.3070   14.6740   16.8790 C.3    92  DA92        0.2094
   1857  N9         7.9150   14.0530   15.7000 N.ar   92  DA92       -0.2714
   1858  C8         8.1780   12.7140   15.5750 C.ar   92  DA92        0.1815
   1859  N7         8.8680   12.4080   14.5020 N.ar   92  DA92       -0.2193
   1860  C5         9.0720   13.6300   13.8790 C.ar   92  DA92        0.1518
   1861  C6         9.7370   13.9880   12.6930 C.ar   92  DA92        0.1919
   1862  N6        10.3450   13.1100   11.8930 N.pl3  92  DA92       -0.1054
   1863  N1         9.7550   15.2950   12.3550 N.ar   92  DA92       -0.2040
   1864  C2         9.1460   16.1740   13.1590 C.ar   92  DA92        0.2016
   1865  N3         8.4900   15.9590   14.2970 N.ar   92  DA92       -0.2048
   1866  C4         8.4890   14.6520   14.6050 C.ar   92  DA92        0.1691
   1867  P          2.6780   13.7780   16.4020 P.3    93  DA93        0.5146
   1868  OP1        1.3110   14.3150   16.6230 O.2    93  DA93       -0.2240
   1869  OP2        2.8640   12.4340   15.8040 O.3    93  DA93       -0.0720
   1870  O5'        3.4920   14.8080   15.5210 O.3    93  DA93       -0.2685
   1871  C5'        3.1160   16.1640   15.5030 C.3    93  DA93        0.1858
   1872  C4'        3.3540   16.7240   14.1390 C.3    93  DA93        0.1776
   1873  O4'        4.7890   16.7630   13.9500 O.3    93  DA93       -0.3326
   1874  C3'        2.7860   15.9140   12.9710 C.3    93  DA93        0.1859
   1875  O3'        1.4420   16.3000   12.6060 O.3    93  DA93       -0.2203
   1876  C2'        3.7530   16.2730   11.8680 C.3    93  DA93        0.0894
   1877  C1'        5.0830   16.3990   12.6280 C.3    93  DA93        0.2095
   1878  N9         5.8800   15.0030   12.7810 N.ar   93  DA93       -0.2714
   1879  C8         5.5910   13.9270   13.5780 C.ar   93  DA93        0.1815
   1880  N7         6.2350   12.8340   13.2450 N.ar   93  DA93       -0.2193
   1881  C5         6.9990   13.2190   12.1540 C.ar   93  DA93        0.1518
   1882  C6         7.9060   12.5180   11.3400 C.ar   93  DA93        0.1919
   1883  N6         8.2070   11.2280   11.5090 N.pl3  93  DA93       -0.1054
   1884  N1         8.4990   13.1960   10.3350 N.ar   93  DA93       -0.2040
   1885  C2         8.1970   14.4890   10.1670 C.ar   93  DA93        0.2016
   1886  N3         7.3630   15.2550   10.8660 N.ar   93  DA93       -0.2048
   1887  C4         6.7900   14.5520   11.8560 C.ar   93  DA93        0.1691
   1888  P          0.5140   15.4340   11.6400 P.3    94  DT94        0.4094
   1889  OP1       -0.8010   16.1100   11.5200 O.2    94  DT94       -0.2673
   1890  OP2        0.5710   14.0470   12.1700 O.3    94  DT94       -0.1704
   1891  O5'        1.2470   15.4630   10.2340 O.3    94  DT94       -0.2176
   1892  C5'        1.4390   16.7030    9.5710 C.3    94  DT94        0.2140
   1893  C4'        2.3520   16.5220    8.4010 C.3    94  DT94        0.1776
   1894  O4'        3.6910   16.2430    8.8720 O.3    94  DT94       -0.3326
   1895  C3'        2.0310   15.3860    7.4410 C.3    94  DT94        0.1559
   1896  O3'        1.0520   15.7940    6.4780 O.3    94  DT94       -0.3138
   1897  C2'        3.3840   15.1450    6.7860 C.3    94  DT94        0.0866
   1898  C1'        4.3490   15.3970    7.9520 C.3    94  DT94        0.2106
   1899  N1         4.8150   14.1410    8.6540 N.ar   94  DT94       -0.2559
   1900  C2         5.7940   13.3870    8.0360 C.ar   94  DT94        0.3545
   1901  O2         6.3030   13.7010    6.9740 O.2    94  DT94       -0.2443
   1902  N3         6.1570   12.2440    8.7060 N.ar   94  DT94       -0.1533
   1903  C4         5.6510   11.7900    9.9070 C.ar   94  DT94        0.2804
   1904  O4         6.0790   10.7430   10.3860 O.2    94  DT94       -0.2654
   1905  C5         4.6390   12.6270   10.4850 C.ar   94  DT94        0.0534
   1906  C6         4.2660   13.7440    9.8540 C.ar   94  DT94        0.0824
   1907  C7         4.0260   12.2180   11.7910 C.3    94  DT94        0.0377
   1908  P          0.1230   14.5890    5.5940 P.3    95  DC95        0.2141
   1909  OP1       -0.9780   15.1010    4.7350 O.2    95  DC95       -0.5172
   1910  OP2       -0.1940   13.9070    6.8750 O.3    95  DC95       -0.4373
   1911  O5'        1.0250   13.6350    4.7000 O.3    95  DC95       -0.3114
   1912  C5'        1.2170   13.9260    3.3290 C.3    95  DC95        0.1812
   1913  C4'        1.7790   12.7280    2.6280 C.3    95  DC95        0.1775
   1914  O4'        3.1690   12.5600    3.0170 O.3    95  DC95       -0.3326
   1915  C3'        1.1450   11.4090    3.0200 C.3    95  DC95        0.1864
   1916  O3'       -0.1210   11.1580    2.4440 O.3    95  DC95       -0.1496
   1917  C2'        2.2310   10.4140    2.6490 C.3    95  DC95        0.0895
   1918  C1'        3.4740   11.1730    3.1190 C.3    95  DC95        0.2107
   1919  N1         3.7910   10.9050    4.6020 N.ar   95  DC95       -0.2556
   1920  C2         4.6760    9.8520    4.8610 C.ar   95  DC95        0.3531
   1921  O2         5.2010    9.2630    3.9010 O.2    95  DC95       -0.2443
   1922  N3         4.9320    9.5060    6.1450 N.ar   95  DC95       -0.1739
   1923  C4         4.3440   10.1660    7.1440 C.ar   95  DC95        0.1759
   1924  N4         4.6270    9.7890    8.3930 N.pl3  95  DC95       -0.1070
   1925  C5         3.4450   11.2360    6.9030 C.ar   95  DC95        0.0566
   1926  C6         3.1940   11.5740    5.6330 C.ar   95  DC95        0.0849
   1927  P         -0.9310   10.8890    2.7720 P.3    96  DT96        0.3939
   1928  OP1       -1.9950   10.0740    3.4180 O.3    96  DT96       -0.1425
   1929  OP2       -0.0600   11.7600    3.6070 O.3    96  DT96       -0.2133
   1930  O5'        0.0170    9.9380    1.9120 O.3    96  DT96       -0.2926
   1931  C5'        0.6520    8.8260    2.5230 C.3    96  DT96        0.1828
   1932  C4'        1.1320    7.8410    1.4840 C.3    96  DT96        0.1754
   1933  O4'        2.3860    8.3070    0.9100 O.3    96  DT96       -0.3510
   1934  C3'        1.4760    6.4930    2.0940 C.3    96  DT96        0.1839
   1935  O3'        0.3220    5.6760    2.2150 O.3    96  DT96       -0.2204
   1936  C2'        2.5410    5.9500    1.1520 C.3    96  DT96        0.0676
   1937  C1'        3.3050    7.2290    0.8040 C.3    96  DT96        0.1450
   1938  N1         2.8510    7.3050    4.3770 N.2    96  DT96       -0.1605
   1939  C2         3.7540    6.5560    5.1080 C.1    96  DT96        0.2413
   1940  O2         4.5710    5.8130    4.5930 O.2    96  DT96       -0.2204
   1941  N3         3.6650    6.7060    6.4710 N.am   96  DT96       -0.0878
   1942  C4         2.7840    7.5120    7.1610 C.2    96  DT96        0.2768
   1943  O4         2.8260    7.5420    8.3880 O.2    96  DT96       -0.2676
   1944  C5         1.8790    8.2570    6.3320 C.2    96  DT96        0.0541
   1945  C6         1.9430    8.1300    5.0040 C.2    96  DT96        0.1126
   1946  C7         0.8810    9.1630    6.9890 C.3    96  DT96        0.0376
@<TRIPOS>BOND
     1   485   484    2
     2   473   484    1
     3   473   472    1
     4   484   487    1
     5   484   486    1
     6   506   505    2
     7   488   487    1
     8   488   489    1
     9   469   470    1
    10   469   468    1
    11   470   472    1
    12   470   471    1
    13   492   505    1
    14   492   491    1
    15   472   474    1
    16   505   507    1
    17   505   508    1
    18   466   465    2
    19   489   491    1
    20   489   490    1
    21   474   475    1
    22   471   475    1
    23   491   493    1
    24   468   465    1
    25   475   476    1
    26   465   451    1
    27   465   467    1
    28   451   450    1
    29   490   494    1
    30   508   509    1
    31   509   510    1
    32   452   450    1
    33   452   453    1
    34   749   750    1
    35   749   748    1
    36   749   751    1
    37   766   765    2
    38   788   787    2
    39   752   751    1
    40   752   765    1
    41   493   494    1
    42   769   770    1
    43   769   768    1
    44   750   754    1
    45   450   448    1
    46   748   747    1
    47   770   771    1
    48   770   772    1
    49   773   787    1
    50   773   772    1
    51   494   495    1
    52   448   449    1
    53   448   447    1
    54   620   619    2
    55   753   751    1
    56   753   754    1
    57   476   483   ar
    58   476   477   ar
    59   262   261    2
    60   754   755    1
    61   527   525    2
    62   453   449    1
    63   453   454    1
    64   462   461    1
    65   765   768    1
    66   765   767    1
    67   526   525    1
    68   787   790    1
    69   787   789    1
    70   771   775    1
    71   478   477    2
    72   510   512    1
    73   510   511    1
    74   483   482   ar
    75   496   495   ar
    76   496   497   ar
    77   463   461   ar
    78   463   464   ar
    79   791   790    1
    80   791   792    1
    81   772   774    1
    82   623   621    1
    83   524   522    1
    84   525   513    1
    85   525   528    1
    86   447   446    1
    87   495   504   ar
    88   513   512    1
    89   477   479   ar
    90   734   735    1
    91   734   732    1
    92   619   621   ar
    93   619   618   ar
    94   281   280    2
    95   461   460   ar
    96   265   266    1
    97   265   264    1
    98   774   775    1
    99   733   732    1
   100   733   744    1
   101   249   261    1
   102   249   248    1
   103   747   744    1
   104   738   737    2
   105   512   514    1
   106   775   776    1
   107   511   515    1
   108   261   264    1
   109   261   263    1
   110   454   464   ar
   111   454   455   ar
   112   621   622   ar
   113   755   764   ar
   114   755   756   ar
   115   464   457   ar
   116   497   498   ar
   117   735   731    1
   118   735   736    1
   119   792   793    1
   120   792   794    1
   121   745   744    2
   122   763   764   ar
   123   763   762   ar
   124   523   522   ar
   125   523   516   ar
   126   732   730    1
   127   618   616   ar
   128   266   268    1
   129   266   267    1
   130   744   746    1
   131   482   480   ar
   132   269   280    1
   133   269   268    1
   134   522   520   ar
   135   730   731    1
   136   730   729    1
   137   446   443    1
   138   793   797    1
   139   764   758   ar
   140   504   498   ar
   141   504   503   ar
   142   280   282    1
   143   280   283    1
   144   479   480   ar
   145   246   248    1
   146   246   245    1
   147   246   247    1
   148   460   458   ar
   149   248   250    1
   150   528   529    1
   151   544   542    1
   152   737   736   ar
   153   737   739   ar
   154   756   757   ar
   155   776   777   ar
   156   776   786   ar
   157   444   443    2
   158   622   615   ar
   159   515   514    1
   160   515   516    1
   161   250   251    1
   162   795   794    1
   163   795   809    1
   164   719   718    2
   165   245   244    1
   166   762   761   ar
   167   498   499   ar
   168   455   456   ar
   169   736   743   ar
   170   480   481    1
   171   268   270    1
   172   267   271    1
   173   516   517   ar
   174   807   806    1
   175   794   796    1
   176   457   458   ar
   177   457   456   ar
   178   616   615   ar
   179   616   617    2
   180   503   502   ar
   181   777   778   ar
   182   729   728    1
   183   284   283    1
   184   284   285    1
   185   806   808    2
   186   443   432    1
   187   443   445    1
   188   520   521    2
   189   520   519   ar
   190   529   530    1
   191   615   614    1
   192   739   740   ar
   193   458   459    2
   194   785   786   ar
   195   785   783   ar
   196   247   251    1
   197   786   779   ar
   198   601   600    1
   199   437   436    2
   200   758   757   ar
   201   758   759   ar
   202   797   796    1
   203   797   798    1
   204   270   271    1
   205   242   241    2
   206   244   241    1
   207   715   716    1
   208   715   713    1
   209   251   252    1
   210   809   810    1
   211   703   702   ar
   212   703   704   ar
   213   542   543   ar
   214   542   540   ar
   215   718   720   ar
   216   718   717   ar
   217   271   272    1
   218   547   545    1
   219   805   798   ar
   220   805   804   ar
   221   761   759   ar
   222   716   717    1
   223   716   712    1
   224   743   742   ar
   225   702   700   ar
   226   499   500    1
   227   499   501   ar
   228   432   431    1
   229   433   431    1
   230   433   434    1
   231   517   519   ar
   232   517   518    2
   233   546   545    1
   234   546   533    1
   235   502   501   ar
   236   302   301    2
   237   778   779   ar
   238   728   714    1
   239   543   536   ar
   240   545   548    1
   241   798   799   ar
   242   759   760    1
   243   285   286    1
   244   285   287    1
   245   720   721   ar
   246   541   540    2
   247   241   229    1
   248   241   243    1
   249   614   610    1
   250   614   613    1
   251   783   784    1
   252   783   782   ar
   253   779   780   ar
   254   717   724   ar
   255   804   802   ar
   256   229   228    1
   257   436   438   ar
   258   436   435   ar
   259   740   742   ar
   260   740   741    1
   261   530   532    1
   262   530   531    1
   263   704   705   ar
   264   540   539   ar
   265   714   713    1
   266   600   599   ar
   267   600   602   ar
   268   712   711    1
   269   713   711    1
   270   431   429    1
   271   532   533    1
   272   532   534    1
   273   810   811    1
   274   279   272   ar
   275   279   278   ar
   276   288   301    1
   277   288   287    1
   278   252   253   ar
   279   252   259   ar
   280   726   725    1
   281   438   439   ar
   282   272   273   ar
   283   531   535    1
   284   711   710    1
   285   254   253    2
   286   434   435    1
   287   434   430    1
   288   599   597   ar
   289   301   303    1
   290   301   304    1
   291   582   581    1
   292   286   290    1
   293   700   701    1
   294   700   699   ar
   295   610   609    1
   296   287   289    1
   297   613   611    1
   298   989   988    2
   299   435   442   ar
   300   725   727    1
   301   825   823    1
   302   536   535    1
   303   536   537   ar
   304   976   988    1
   305   976   975    1
   306   799   800    2
   307   799   801   ar
   308   812   811    1
   309   812   816    1
   310   253   255   ar
   311   782   780   ar
   312   973   974    1
   313   973   972    1
   314   973   975    1
   315   259   258   ar
   316   230   228    1
   317   230   231    1
   318   602   603   ar
   319   721   722    1
   320   721   723   ar
   321   780   781    2
   322   228   226    1
   323   640   639    2
   324   811   813    1
   325   802   801   ar
   326   802   803    1
   327   429   430    1
   328   429   428    1
   329   548   549    1
   330   724   723   ar
   331   705   699   ar
   332   705   696   ar
   333   643   641    1
   334    20    19    2
   335   977   975    1
   336   977   978    1
   337   992   993    1
   338   992   991    1
   339   974   978    1
   340   535   534    1
   341   660   659    1
   342   278   276   ar
   343   539   537   ar
   344   988   991    1
   345   988   990    1
   346   972   971    1
   347   824   823   ar
   348   824   817   ar
   349   226   225    1
   350   226   227    1
   351   439   440    1
   352   439   441   ar
   353   581   583   ar
   354   581   580   ar
   355   699   698   ar
   356   978   979    1
   357   273   274    2
   358   273   275   ar
   359   568   566    2
   360   292   293   ar
   361   292   291   ar
   362   597   598    2
   363   597   596   ar
   364   823   821   ar
   365   710   709    1
   366   583   584   ar
   367   537   538    2
   368   549   550    1
   369   290   289    1
   370   290   291    1
   371   304   305    1
   372   956   957    1
   373   956   954    1
   374   993   994    1
   375   993   995    1
   376   612   611    1
   377   612   624    1
   378   609   611    1
   379   609   608    1
   380   442   441   ar
   381   957   953    1
   382   957   958    1
   383   567   566    1
   384     6    19    1
   385     6     5    1
   386   966   965   ar
   387   966   967   ar
   388   639   641   ar
   389   639   638   ar
   390   225   224    1
   391   952   953    1
   392   952   954    1
   393   952   951    1
   394   816   817    1
   395   816   815    1
   396   231   227    1
   397   231   232    1
   398   694   695    1
   399   694   692    1
   400   258   260    1
   401   258   256   ar
   402   603   596   ar
   403   255   256   ar
   404   817   818   ar
   405   293   294   ar
   406   626   624    2
   407   641   642   ar
   408   994   998    1
   409   661   659   ar
   410   661   662   ar
   411   305   306    1
   412   955   954    1
   413   955   968    1
   414   696   695    1
   415   696   697   ar
   416   291   300   ar
   417   659   658   ar
   418   580   578   ar
   419   428   427    1
   420   234   233    2
   421   695   691    1
   422   965   964   ar
   423   566   553    1
   424   566   569    1
   425   981   980    2
   426   681   680    2
   427   813   814    1
   428   813   815    1
   429   276   275   ar
   430   276   277    1
   431    19    21    1
   432    19    22    1
   433   596   595    1
   434   709   706    1
   435   969   968    2
   436   222   221    2
   437   608   607    1
   438     7     5    1
   439     7     8    1
   440   971   968    1
   441   558   557   ar
   442   558   559   ar
   443   821   822    2
   444   821   820   ar
   445   584   577   ar
   446   698   697   ar
   447   951   950    1
   448   224   221    1
   449   979   980   ar
   450   979   986   ar
   451   552   550    1
   452   552   553    1
   453   552   554    1
   454   417   416    2
   455   324   322    2
   456   996   995    1
   457   996  1008    1
   458   557   556   ar
   459   679   680   ar
   460   679   677   ar
   461   814   826    1
   462   256   257    2
   463     5     3    1
   464   550   551    1
   465     3     4    1
   466     3     2    1
   467   958   967   ar
   468   958   959   ar
   469   638   636   ar
   470   967   961   ar
   471   587   585    2
   472    40    39    2
   473   995   997    1
   474   427   424    1
   475   980   982   ar
   476   233   232   ar
   477   233   235   ar
   478   944   945   ar
   479   944   943   ar
   480   232   239   ar
   481   624   625    1
   482   624   627    1
   483   678   677    2
   484   968   970    1
   485   680   682   ar
   486    23    22    1
   487    23    24    1
   488   818   820   ar
   489   818   819    2
   490   998   997    1
   491   998   999    1
   492   662   663   ar
   493   642   635   ar
   494     1     2    1
   495     4     8    1
   496   945   946   ar
   497   578   577   ar
   498   578   579    2
   499   692   693    1
   500   692   690    1
   501  1009  1008    2
   502     8     9    1
   503   294   300   ar
   504   294   295   ar
   505   693   706    1
   506   323   322    1
   507   658   657   ar
   508   658   664   ar
   509   221   208    1
   510   221   223    1
   511   300   299   ar
   512   570   569    1
   513   570   571    1
   514   964   962   ar
   515   691   690    1
   516   677   676   ar
   517   577   576    1
   518   561   560    1
   519   986   985   ar
   520   306   308    1
   521   306   307    1
   522   828   826    2
   523   416   418   ar
   524   416   415   ar
   525   322   309    1
   526   322   325    1
   527   554   555    1
   528   418   419   ar
   529   595   594    1
   530   595   591    1
   531   551   555    1
   532   559   560   ar
   533   559   565   ar
   534   657   656   ar
   535    41    39    1
   536   706   707    2
   537   706   708    1
   538  1008  1010    1
   539  1008  1011    1
   540   950   947    1
   541   607   604    1
   542   556   555    1
   543   556   565   ar
   544   313   314   ar
   545   313   312   ar
   546   309   308    1
   547    39    27    1
   548    39    42    1
   549   826   827    1
   550   826   829    1
   551   943   941   ar
   552   341   339    1
   553   314   315   ar
   554   308   310    1
   555   935   936    1
   556   935   933    1
   557   307   311    1
   558   594   592    1
   559   636   635   ar
   560   636   637    2
   561   239   238   ar
   562   413   414    1
   563   413   411    1
   564   845   843    1
   565   690   689    1
   566   235   236   ar
   567   627   628    1
   568    27    26    1
   569   959   960   ar
   570   635   634    1
   571   961   962   ar
   572   961   960   ar
   573   560   562   ar
   574   585   588    1
   575   585   574    1
   576   585   586    1
   577  1006   999   ar
   578  1006  1005   ar
   579   208   207    1
   580   982   983   ar
   581   999  1000   ar
   582   573   571    1
   583   573   574    1
   584   573   575    1
   585    24    26    1
   586    24    25    1
   587   588   589    1
   588   663   664   ar
   589   664   655   ar
   590   962   963    1
   591   606   604    1
   592   424   425    2
   593   424   426    1
   594   424   412    1
   595   682   684    1
   596   682   683   ar
   597   299   298   ar
   598   565   564   ar
   599   591   590    1
   600   295   296    1
   601   295   297   ar
   602   946   937   ar
   603   946   940   ar
   604   604   605    1
   605   209   207    1
   606   209   210    1
   607   420   419    2
   608   571   572    1
   609   936   937    1
   610   936   932    1
   611   592   590    1
   612   592   593    1
   613    17    18   ar
   614    17    16   ar
   615   218   219   ar
   616   218   217   ar
   617    26    28    1
   618   419   421   ar
   619   414   415    1
   620   414   410    1
   621   415   422   ar
   622   985   983   ar
   623   985   987    1
   624   934   933    1
   625   934   947    1
   626   572   576    1
   627   576   575    1
   628   219   220   ar
   629   676   683   ar
   630   676   675    1
   631  1012  1011    1
   632  1012  1013    1
   633     9    18   ar
   634     9    10   ar
   635   948   947    2
   636   399   398    1
   637   312   311    1
   638   312   321   ar
   639   238   236   ar
   640   238   240    1
   641   656   655   ar
   642   325   326    1
   643   630   634    1
   644   630   629    1
   645   412   411    1
   646   236   237    2
   647  1007  1005    1
   648   937   938   ar
   649   400   398   ar
   650   400   401   ar
   651   933   931    1
   652   311   310    1
   653   207   205    1
   654   941   940   ar
   655   941   942    1
   656  1005  1003   ar
   657   947   949    1
   658   983   984    2
   659   411   409    1
   660    38    36    1
   661   829   830    1
   662    42    43    1
   663   843   844   ar
   664   843   841   ar
   665  1000  1001    2
   666  1000  1002   ar
   667   315   321   ar
   668   315   316   ar
   669   338   337    2
   670   590   589    1
   671   628   629    1
   672   634   633    1
   673   562   563   ar
   674   339   337   ar
   675   339   340   ar
   676    18    12   ar
   677   217   215   ar
   678    16    15   ar
   679    25    29    1
   680   593   605    1
   681   655   654    1
   682   689   688    1
   683   940   939   ar
   684   298   297   ar
   685   317   316    1
   686   932   931    1
   687   564   563   ar
   688   398   397   ar
   689   842   841    2
   690   931   930    1
   691   830   831    1
   692   844   837   ar
   693   422   421   ar
   694   210   211    1
   695   210   206    1
   696  1014  1013    1
   697  1014  1018    1
   698   421   423    1
   699   920   919    2
   700   688   685    1
   701  1013  1015    1
   702   675   674    1
   703   675   671    1
   704    43    44    1
   705   401   402   ar
   706   220   211   ar
   707   220   214   ar
   708   674   672    1
   709   337   336   ar
   710   361   359    1
   711   629   631    1
   712    37    36   ar
   713    37    30   ar
   714   321   320   ar
   715    10    11   ar
   716   841   840   ar
   717   410   409    1
   718   646   644    2
   719   316   318   ar
   720   358   357    2
   721   340   333   ar
   722    28    29    1
   723   326   327    1
   724   832   831    1
   725   832   836    1
   726  1002  1003   ar
   727    36    34   ar
   728   205   206    1
   729   205   204    1
   730  1003  1004    2
   731   631   633    1
   732   631   632    1
   733   409   408    1
   734   211   212   ar
   735   921   919   ar
   736   921   922   ar
   737   378   377    1
   738   862   861    1
   739   215   214   ar
   740   215   216    1
   741   938   939   ar
   742    29    30    1
   743   344   342    2
   744   919   918   ar
   745    12    11   ar
   746    12    13   ar
   747   214   213   ar
   748    15    13   ar
   749   831   833    1
   750   837   836    1
   751   837   838   ar
   752    30    31   ar
   753   654   650    1
   754   654   653    1
   755   672   673    1
   756   672   670    1
   757   397   403   ar
   758   397   396   ar
   759  1018  1019    1
   760  1018  1017    1
   761    62    60    2
   762   402   403   ar
   763   923   922    1
   764   671   670    1
   765   930   929    1
   766   840   838   ar
   767   357   359   ar
   768   357   356   ar
   769   687   685    2
   770    44    46    1
   771    44    45    1
   772   883   882    2
   773    46    47    1
   774    46    48    1
   775   836   835    1
   776   359   360   ar
   777   685   673    1
   778   685   686    1
   779  1020  1019   ar
   780  1020  1021   ar
   781   647   644    1
   782   647   648    1
   783   336   334   ar
   784  1015  1016    1
   785  1015  1017    1
   786  1015  1031    1
   787   320   319   ar
   788   644   632    1
   789   644   645    1
   790   922   924   ar
   791   318   319   ar
   792   204   203    1
   793    13    14    1
   794   327   328    1
   795   327   329    1
   796   212   213   ar
   797   650   649    1
   798    47    60    1
   799   333   334   ar
   800   333   332    1
   801   403   394   ar
   802    34    35    2
   803    34    33   ar
   804   328   332    1
   805  1019  1028   ar
   806   377   379   ar
   807   377   376   ar
   808   653   651    1
   809   407   408    1
   810   407   404    1
   811   838   839    2
   812   329   330    1
   813   329   331    1
   814    51    52   ar
   815    51    50   ar
   816   861   860   ar
   817   861   863   ar
   818  1016  1029    1
   819   859   860   ar
   820   859   858   ar
   821   396   395   ar
   822   343   342    1
   823   916   917    1
   824   916   914    1
   825    52    53   ar
   826    60    61    1
   827    60    63    1
   828   379   380   ar
   829   342   330    1
   830   342   345    1
   831    48    49    1
   832   203   200    1
   833   848   846    2
   834   670   669    1
   835   833   835    1
   836   833   834    1
   837   918   917    1
   838   918   925   ar
   839   903   902    2
   840  1021  1022   ar
   841   929   926    1
   842   334   335    2
   843    31    33   ar
   844    31    32    2
   845   668   669    1
   846   668   665    1
   847    45    49    1
   848   651   649    1
   849   651   652    1
   850   860   866   ar
   851   667   665    2
   852   917   913    1
   853  1031  1029    1
   854   332   331    1
   855   356   354   ar
   856   360   353   ar
   857   882   881   ar
   858   882   884   ar
   859   406   404    2
   860   863   864   ar
   861   201   200    2
   862   649   648    1
   863   901   902   ar
   864   901   899   ar
   865   376   375   ar
   866   376   382   ar
   867    49    50    1
   868   924   925   ar
   869   858   857   ar
   870   345   346    1
   871   394   395   ar
   872   394   393    1
   873  1028  1022   ar
   874  1028  1027   ar
   875   404   405    1
   876   404   391    1
   877   375   374   ar
   878   886   884    1
   879    50    59   ar
   880   200   202    1
   881   200   188    1
   882   902   904   ar
   883   834   846    1
   884   881   879   ar
   885   193   192    2
   886   380   381   ar
   887   915   914    1
   888   915   926    1
   889   914   912    1
   890  1029  1030    2
   891  1029  1032    1
   892  1022  1023   ar
   893   900   899    2
   894   665   652    1
   895   665   666    1
   896   392   393    1
   897   392   390    1
   898    53    59   ar
   899    53    54   ar
   900   846   847    1
   901   846   849    1
   902    63    64    1
   903   189   190    1
   904   189   187    1
   905   884   885   ar
   906   926   928    2
   907   926   927    1
   908    55    54    1
   909  1027  1026   ar
   910   899   898   ar
   911    76    75    1
   912   866   857   ar
   913   866   865   ar
   914   353   354   ar
   915   353   352    1
   916   354   355    2
   917   192   194   ar
   918   192   191   ar
   919    77    75    1
   920    77    78    2
   921   864   865   ar
   922   913   912    1
   923   393   389    1
   924   364   362    2
   925   194   195   ar
   926   391   390    1
   927   390   388    1
   928    59    58   ar
   929   382   381   ar
   930   382   373   ar
   931   857   856    1
   932   188   187    1
   933    54    56   ar
   934  1032  1033    1
   935   374   373   ar
   936   912   911    1
   937   849   850    1
   938   346   347    1
   939   190   191    1
   940   190   186    1
   941  1023  1024    1
   942  1023  1025   ar
   943    75    95    1
   944    75    74    1
   945   879   880    2
   946   879   878   ar
   947   191   198   ar
   948   904   906    1
   949   904   905   ar
   950   187   185    1
   951  1033  1034    1
   952    64    65    1
   953    78    71    1
   954   195   196    2
   955   195   197   ar
   956   385   383    2
   957  1026  1025   ar
   958   348   352    1
   959   348   347    1
   960   885   878   ar
   961   373   372    1
   962   352   351    1
   963   898   905   ar
   964   898   897    1
   965   349   347    1
   966   349   351    1
   967   349   350    1
   968  1046  1047   ar
   969  1046  1044   ar
   970   389   388    1
   971    95    74    1
   972    95    94    1
   973   852   856    1
   974   852   851    1
   975   386   383    1
   976   386   387    1
   977   198   197   ar
   978  1064  1063    2
   979   856   855    1
   980   878   877    1
   981    58    57   ar
   982  1086  1085    2
   983   197   199    1
   984   388   387    1
   985   362   350    1
   986   362   365    1
   987   362   363    1
   988   850   851    1
   989  1047  1040   ar
   990    56    57   ar
   991   186   185    1
   992    81    79    2
   993   911   910    1
   994   185   184    1
   995   869   867    2
   996  1045  1044    1
   997    74    94    1
   998    74    72    1
   999   383   384    1
  1000   383   370    1
  1001   365   366    1
  1002  1034  1035    1
  1003  1034  1036    1
  1004    71    72   am
  1005    71    70    1
  1006  1035  1039    1
  1007    65    66    1
  1008    65    67    1
  1009   851   853    1
  1010    66    70    1
  1011  1044  1043   ar
  1012   897   896    1
  1013   897   893    1
  1014   853   855    1
  1015   853   854    1
  1016  1050  1048    2
  1017   896   894    1
  1018    94    96    1
  1019    94    93    1
  1020    96    97    2
  1021   372   371    1
  1022   372   368    1
  1023   371   369    1
  1024  1061  1062   ar
  1025  1061  1060   ar
  1026    67    68    1
  1027    67    69    1
  1028   369   370    1
  1029   369   367    1
  1030   910   907    1
  1031  1063  1062   ar
  1032  1063  1065   ar
  1033    79    80    1
  1034    79    68    1
  1035    79    82    1
  1036    72    73    2
  1037  1085  1084   ar
  1038  1085  1087   ar
  1039  1040  1039    1
  1040  1040  1041   ar
  1041   877   873    1
  1042   877   876    1
  1043    70    69    1
  1044   909   907    2
  1045   867   854    1
  1046   867   870    1
  1047   867   868    1
  1048  1036  1037    1
  1049  1036  1038    1
  1050   184   183    1
  1051  1062  1069   ar
  1052  1084  1082   ar
  1053   368   367    1
  1054  1089  1087    1
  1055  1039  1038    1
  1056   366   367    1
  1057   173   172    2
  1058   183   180    1
  1059  1043  1041   ar
  1060   873   872    1
  1061   893   892    1
  1062   894   895    1
  1063   894   892    1
  1064   174   172   ar
  1065   174   175   ar
  1066  1060  1059   ar
  1067    93    91   am
  1068  1065  1066   ar
  1069   176   175    2
  1070    97    90    1
  1071   876   874    1
  1072  1037  1048    1
  1073   870   871    1
  1074  1048  1051    1
  1075  1048  1049    1
  1076  1087  1088   ar
  1077   907   895    1
  1078   907   908    1
  1079  1041  1042    2
  1080   172   171   ar
  1081    82    83    1
  1082   175   177   ar
  1083   889   887    2
  1084   181   180    2
  1085   874   872    1
  1086   874   875    1
  1087   135   134    2
  1088   892   891    1
  1089   157   156    1
  1090  1082  1083    2
  1091  1082  1081   ar
  1092  1051  1052    1
  1093   872   871    1
  1094  1069  1059   ar
  1095  1069  1068   ar
  1096   890   887    1
  1097   890   891    1
  1098   180   182    1
  1099   180   168    1
  1100    91    90   am
  1101    91    92    2
  1102  1059  1058    1
  1103    90    89    1
  1104  1066  1068   ar
  1105  1066  1067    1
  1106   169   170    1
  1107   169   167    1
  1108  1088  1081   ar
  1109   171   170    1
  1110   171   178   ar
  1111    83    84    1
  1112   887   875    1
  1113   887   888    1
  1114   177   178   ar
  1115   177   179    1
  1116   155   156   ar
  1117   155   153   ar
  1118  1081  1080    1
  1119   134   136   ar
  1120   134   133   ar
  1121   156   158   ar
  1122   136   137   ar
  1123   170   166    1
  1124  1072  1070    2
  1125    85    89    1
  1126    85    84    1
  1127  1052  1053    1
  1128   100    98    2
  1129   168   167    1
  1130  1054  1058    1
  1131  1054  1053    1
  1132   167   165    1
  1133  1058  1057    1
  1134    89    88    1
  1135    84    86    1
  1136   154   153    2
  1137   153   152   ar
  1138    86    88    1
  1139    86    87    1
  1140  1055  1053    1
  1141  1055  1057    1
  1142  1055  1056    1
  1143   133   132   ar
  1144   133   140   ar
  1145    99    98    1
  1146   138   137    1
  1147   158   159   ar
  1148   137   139   ar
  1149   132   131   ar
  1150  1080  1076    1
  1151  1080  1079    1
  1152    98    87    1
  1153    98   101    1
  1154   166   165    1
  1155  1070  1073    1
  1156  1070  1056    1
  1157  1070  1071    1
  1158   165   164    1
  1159  1073  1074    1
  1160  1076  1075    1
  1161  1079  1077    1
  1162   152   159   ar
  1163   152   151    1
  1164   140   139   ar
  1165   140   130   ar
  1166   150   151    1
  1167   150   148    1
  1168  1077  1075    1
  1169  1077  1078    1
  1170   131   130   ar
  1171   163   164    1
  1172   163   149    1
  1173   101   102    1
  1174  1091  1090    2
  1175   151   147    1
  1176   111   110    2
  1177   111   112    1
  1178  1075  1074    1
  1179  1937  1933    1
  1180  1937  1936    1
  1181  1933  1932    1
  1182   102   103    1
  1183   114   113    1
  1184   130   129    1
  1185  1936  1934    1
  1186   162   160    1
  1187  1093  1090    1
  1188  1093  1094    1
  1189   110   109    1
  1190   148   149    1
  1191   148   146    1
  1192   121   119    2
  1193  1090  1078    1
  1194  1090  1092    1
  1195  1932  1934    1
  1196  1932  1931    1
  1197   160   161    2
  1198   112   113    2
  1199   112   118    1
  1200  1094  1095    1
  1201   147   146    1
  1202  1930  1931    1
  1203  1930  1927    1
  1204   113   115    1
  1205  1934  1935    1
  1206  1095  1096    1
  1207  1095  1097    1
  1208   103   105    1
  1209   103   104    1
  1210  1096  1100    1
  1211  1916  1927    1
  1212  1916  1929    1
  1213   129   128    1
  1214   129   125    1
  1215   146   145    1
  1216   109   118    1
  1217   109   108    1
  1218   143   141    2
  1219   119   122    1
  1220   119   106    1
  1221   119   120    1
  1222  1913  1914    1
  1223  1913  1915    1
  1224  1913  1912    1
  1225  1917  1915    1
  1226  1917  1918    1
  1227   105   106    1
  1228   105   107    1
  1229  1639  1638    2
  1230   144   145    1
  1231   144   141    1
  1232   122   123    1
  1233  1927  1928    1
  1234   128   126    1
  1235   104   108    1
  1236  1110  1109    2
  1237   118   117    1
  1238  1625  1624    1
  1239  1625  1638    1
  1240  1914  1918    1
  1241  1915  1929    1
  1242  1918  1919    1
  1243  1098  1097    1
  1244  1098  1109    1
  1245   115   116    1
  1246   115  1940    1
  1247   125   124    1
  1248   126   124    1
  1249   126   127    1
  1250  1622  1624    1
  1251  1622  1623    1
  1252  1622  1621    1
  1253   108   107    1
  1254  1912  1911    1
  1255  1626  1624    1
  1256  1626  1627    1
  1257  1097  1099    1
  1258  1642  1643    1
  1259  1642  1641    1
  1260  1100  1099    1
  1261  1100  1101    1
  1262   141   127    1
  1263   141   142    1
  1264  1623  1627    1
  1265  1638  1641    1
  1266  1638  1640    1
  1267  1627  1628    1
  1268  1621  1620    1
  1269  1921  1920    2
  1270   124   123    1
  1271  1109  1111    1
  1272  1109  1112    1
  1273   117   116    2
  1274  1643  1644    1
  1275  1643  1645    1
  1276  1659  1658    2
  1277  1938  1945    1
  1278  1938  1939    2
  1279  1108  1101   ar
  1280  1108  1107   ar
  1281  1940  1939    1
  1282  1919  1920   ar
  1283  1919  1926   ar
  1284  1646  1658    1
  1285  1646  1645    1
  1286  1911  1908    1
  1287  1909  1908    2
  1288  1101  1102   ar
  1289  1644  1648    1
  1290  1920  1922   ar
  1291  1945  1944    2
  1292  1614  1613    1
  1293  1660  1658    1
  1294  1636  1637   ar
  1295  1636  1635   ar
  1296  1113  1112    1
  1297  1113  1114    1
  1298  1658  1661    1
  1299  1939  1941    2
  1300  1628  1637   ar
  1301  1628  1629   ar
  1302  1645  1647    1
  1303  1620  1617    1
  1304  1618  1617    2
  1305  1107  1105   ar
  1306  1908  1896    1
  1307  1908  1910    1
  1308  1926  1925   ar
  1309  1637  1631   ar
  1310  1635  1634   ar
  1311  1102  1103    2
  1312  1102  1104   ar
  1313  1617  1603    1
  1314  1617  1619    1
  1315  1648  1647    1
  1316  1648  1649    1
  1317  1604  1605    1
  1318  1604  1602    1
  1319  1615  1613   ar
  1320  1615  1616   ar
  1321  1922  1923   ar
  1322  1613  1612   ar
  1323  1647  1128    2
  1324  1629  1630   ar
  1325  1603  1602    1
  1326  1114  1115    1
  1327  1114  1116    1
  1328  1944  1946    1
  1329  1944  1942    1
  1330  1115  1119    1
  1331  1941  1942    1
  1332  1896  1895    1
  1333  1661  1662    1
  1334  1105  1104   ar
  1335  1105  1106    1
  1336  1605  1601    1
  1337  1605  1606    1
  1338  1897  1895    1
  1339  1897  1898    1
  1340  1925  1923   ar
  1341  1901  1900    2
  1342  1602  1600    1
  1343  1662  1663    1
  1344  1649  1656   ar
  1345  1649  1650   ar
  1346  1128  1126    2
  1347  1656  1655   ar
  1348  1631  1630   ar
  1349  1631  1632   ar
  1350  1923  1924    1
  1351  1942  1943    2
  1352  1592  1591   ar
  1353  1592  1593   ar
  1354  1634  1632   ar
  1355  1612  1610   ar
  1356  1616  1606   ar
  1357  1616  1609   ar
  1358  1600  1601    1
  1359  1600  1599    1
  1360  1895  1893    1
  1361  1127  1126    1
  1362  1127  1120    1
  1363  1489  1488    1
  1364  1487  1488   ar
  1365  1487  1485   ar
  1366  1606  1607   ar
  1367  1591  1589   ar
  1368  1116  1117    1
  1369  1116  1118    1
  1370  1486  1485    2
  1371  1106  1651    1
  1372  1680  1679    2
  1373  1119  1120    1
  1374  1119  1118    1
  1375  1681  1679    1
  1376  1126  1124    1
  1377  1632  1633    1
  1378  1593  1594   ar
  1379  1488  1490   ar
  1380  1898  1899    1
  1381  1898  1894    1
  1382  1117  1129    1
  1383  1651  1650    1
  1384  1650  1652   ar
  1385  1485  1484   ar
  1386  1655  1657    1
  1387  1655  1653   ar
  1388  1900  1899   ar
  1389  1900  1902   ar
  1390  1508  1507    1
  1391  1131  1129    2
  1392  1120  1121   am
  1393  1509  1507   ar
  1394  1509  1510   ar
  1395  1679  1666    1
  1396  1679  1682    1
  1397  1893  1894    1
  1398  1893  1892    1
  1399  1663  1665    1
  1400  1663  1664    1
  1401  1609  1610   ar
  1402  1609  1608   ar
  1403  1610  1611    2
  1404  1507  1506   ar
  1405  1899  1906   ar
  1406  1599  1598    1
  1407  1510  1511   ar
  1408  1490  1491   ar
  1409  1902  1903   ar
  1410  1484  1483    1
  1411  1484  1491   ar
  1412  1129  1130    1
  1413  1129  1132    1
  1414  1666  1665    1
  1415  1589  1590    1
  1416  1589  1588   ar
  1417  1652  1653   ar
  1418  1124  1125    2
  1419  1124  1123   am
  1420  1483  1479    1
  1421  1483  1482    1
  1422  1607  1608   ar
  1423  1665  1667    1
  1424  1653  1654    2
  1425  1594  1588   ar
  1426  1594  1585   ar
  1427  1664  1668    1
  1428  1506  1512   ar
  1429  1506  1505   ar
  1430  1479  1478    1
  1431  1670  1671   ar
  1432  1670  1669   ar
  1433  1121  1123   am
  1434  1121  1122    2
  1435  1474  1473    2
  1436  1511  1512   ar
  1437  1583  1584    1
  1438  1583  1581    1
  1439  1892  1891    1
  1440  1512  1503   ar
  1441  1598  1595    1
  1442  1671  1672   ar
  1443  1588  1587   ar
  1444  1505  1504   ar
  1445  1682  1683    1
  1446  1906  1905   ar
  1447  1903  1904    2
  1448  1903  1905   ar
  1449  1584  1585    1
  1450  1584  1580    1
  1451  1132  1133    1
  1452  1531  1530   ar
  1453  1531  1532   ar
  1454  1743  1742    2
  1455  1585  1586   ar
  1456  1720  1718    1
  1457  1885  1884   ar
  1458  1885  1886   ar
  1459  1482  1480    1
  1460  1461  1473    1
  1461  1461  1460    1
  1462  1530  1528   ar
  1463  1503  1504   ar
  1464  1503  1502    1
  1465  1884  1882   ar
  1466  1669  1668    1
  1467  1669  1678   ar
  1468  1668  1667    1
  1469  1717  1716    2
  1470  1905  1907    1
  1471  1703  1701    2
  1472  1532  1533   ar
  1473  1473  1476    1
  1474  1473  1475    1
  1475  1502  1498    1
  1476  1502  1501    1
  1477  1478  1477    1
  1478  1478  1480    1
  1479  1886  1887   ar
  1480  1476  1477    1
  1481  1683  1684    1
  1482  1582  1581    1
  1483  1582  1595    1
  1484  1581  1579    1
  1485  1764  1763    2
  1486  1133  1134    1
  1487  1587  1586   ar
  1488  1692  1691   ar
  1489  1692  1693   ar
  1490  1672  1678   ar
  1491  1672  1673   ar
  1492  1528  1529    1
  1493  1528  1527   ar
  1494  1498  1497    1
  1495  1580  1579    1
  1496  1458  1457    1
  1497  1458  1460    1
  1498  1458  1459    1
  1499  1595  1596    2
  1500  1595  1597    1
  1501  1882  1883    1
  1502  1882  1881   ar
  1503  1529  1890    1
  1504  1716  1718   ar
  1505  1716  1715   ar
  1506  1533  1527   ar
  1507  1533  1524   ar
  1508  1702  1701    1
  1509  1457  1456    1
  1510  1718  1719   ar
  1511  1480  1481    1
  1512  1691  1690   ar
  1513  1460  1462    1
  1514  1742  1744    1
  1515  1742  1729    1
  1516  1742  1745    1
  1517  1678  1677   ar
  1518  1889  1888    2
  1519  1135  1134    1
  1520  1135  1139    1
  1521  1141  1142   ar
  1522  1141  1140   ar
  1523  1142  1143   ar
  1524  1888  1890    1
  1525  1701  1687    1
  1526  1701  1704    1
  1527  1527  1526   ar
  1528  1695  1694    2
  1529  1579  1578    1
  1530  1674  1673    1
  1531  1501  1499    1
  1532  1765  1763    1
  1533  1887  1881   ar
  1534  1887  1878   ar
  1535  1876  1877    1
  1536  1876  1874    1
  1537  1862  1861    1
  1538  1462  1463    1
  1539  1134  1136    1
  1540  1547  1546    2
  1541  1524  1523    1
  1542  1524  1525   ar
  1543  1456  1453    1
  1544  1523  1519    1
  1545  1523  1522    1
  1546  1729  1728    1
  1547  1673  1675   ar
  1548  1763  1750    1
  1549  1763  1766    1
  1550  1881  1880   ar
  1551  1459  1463    1
  1552  1693  1694   ar
  1553  1693  1700   ar
  1554  1684  1686    1
  1555  1684  1685    1
  1556  1686  1687    1
  1557  1686  1688    1
  1558  1746  1745    1
  1559  1746  1747    1
  1560  1863  1861   ar
  1561  1863  1864   ar
  1562  1519  1518    1
  1563  1694  1696   ar
  1564  1719  1712   ar
  1565  1454  1453    2
  1566  1544  1540    1
  1567  1544  1545    1
  1568  1544  1543    1
  1569  1715  1713   ar
  1570  1526  1525   ar
  1571  1497  1499    1
  1572  1497  1496    1
  1573  1685  1689    1
  1574  1453  1441    1
  1575  1453  1455    1
  1576  1481  1492    1
  1577  1875  1874    1
  1578  1567  1566    2
  1579  1877  1878    1
  1580  1877  1873    1
  1581  1140  1139    1
  1582  1140  1150   ar
  1583  1540  1539    1
  1584  1704  1705    1
  1585  1690  1700   ar
  1586  1690  1689    1
  1587  1139  1138    1
  1588  1861  1860   ar
  1589  1725  1726    1
  1590  1725  1724    1
  1591  1463  1464    1
  1592  1143  1144   ar
  1593  1143  1150   ar
  1594  1546  1545   ar
  1595  1546  1548   ar
  1596  1441  1440    1
  1597  1677  1676   ar
  1598  1878  1879   ar
  1599  1750  1749    1
  1600  1446  1445    2
  1601  1442  1440    1
  1602  1442  1443    1
  1603  1145  1144    2
  1604  1874  1872    1
  1605  1723  1721    1
  1606  1499  1500    1
  1607  1728  1726    1
  1608  1728  1730    1
  1609  1522  1520    1
  1610  1545  1552   ar
  1611  1766  1767    1
  1612  1726  1727    1
  1613  1864  1865   ar
  1614  1543  1541    1
  1615  1700  1699   ar
  1616  1880  1879   ar
  1617  1578  1577    1
  1618  1496  1495    1
  1619  1494  1492    2
  1620  1144  1146   ar
  1621  1548  1549   ar
  1622  1136  1138    1
  1623  1136  1137    1
  1624  1724  1721    1
  1625  1675  1676   ar
  1626  1787  1785    2
  1627  1689  1688    1
  1628  1560  1564    1
  1629  1560  1559    1
  1630  1150  1149   ar
  1631  1721  1722    1
  1632  1495  1492    1
  1633  1539  1541    1
  1634  1539  1538    1
  1635  1747  1749    1
  1636  1747  1748    1
  1637  1577  1574    1
  1638  1843  1842    1
  1639  1566  1565   ar
  1640  1566  1568   ar
  1641  1440  1438    1
  1642  1712  1713   ar
  1643  1712  1711    1
  1644  1518  1520    1
  1645  1518  1517    1
  1646  1713  1714    1
  1647  1786  1785    1
  1648  1749  1751    1
  1649  1696  1697   ar
  1650  1492  1493    1
  1651  1443  1444    1
  1652  1443  1439    1
  1653  1860  1859   ar
  1654  1860  1866   ar
  1655  1767  1768    1
  1656  1873  1872    1
  1657  1552  1551   ar
  1658  1705  1706    1
  1659  1445  1444   ar
  1660  1445  1447   ar
  1661  1564  1565    1
  1662  1564  1563    1
  1663  1565  1572   ar
  1664  1137  1151    1
  1665  1708  1709    1
  1666  1708  1706    1
  1667  1708  1710    1
  1668  1872  1871    1
  1669  1549  1551   ar
  1670  1549  1550    1
  1671  1559  1558    1
  1672  1559  1561    1
  1673  1153  1151    2
  1674  1464  1471   ar
  1675  1464  1465   ar
  1676  1785  1771    1
  1677  1785  1788    1
  1678  1500  1513    1
  1679  1438  1439    1
  1680  1438  1437    1
  1681  1568  1569   ar
  1682  1541  1542    1
  1683  1865  1866   ar
  1684  1520  1521    1
  1685  1538  1537    1
  1686  1730  1731    1
  1687  1466  1465    2
  1688  1709  1722    1
  1689  1699  1697   ar
  1690  1146  1147   ar
  1691  1551  1553    1
  1692  1517  1516    1
  1693  1859  1858   ar
  1694  1727  1731    1
  1695  1149  1147   ar
  1696  1550  1869    1
  1697  1167  1166    1
  1698  1866  1857   ar
  1699  1444  1451   ar
  1700  1558  1557    1
  1701  1714  1755    1
  1702  1697  1698    1
  1703  1807  1805    2
  1704  1471  1470   ar
  1705  1706  1707    1
  1706  1748  1752    1
  1707  1710  1711    1
  1708  1707  1711    1
  1709  1151  1152    1
  1710  1151  1154    1
  1711  1542  1554    1
  1712  1842  1841   ar
  1713  1842  1844   ar
  1714  1447  1448   ar
  1715  1821  1820    2
  1716  1465  1467   ar
  1717  1516  1513    1
  1718  1537  1534    1
  1719  1168  1166   ar
  1720  1168  1169   ar
  1721  1576  1574    2
  1722  1147  1148    1
  1723  1574  1562    1
  1724  1574  1575    1
  1725  1771  1770    1
  1726  1572  1571   ar
  1727  1521  1534    1
  1728  1804  1802    1
  1729  1751  1752    1
  1730  1731  1732    1
  1731  1166  1165   ar
  1732  1768  1770    1
  1733  1768  1769    1
  1734  1561  1563    1
  1735  1561  1562    1
  1736  1569  1571   ar
  1737  1569  1570    2
  1738  1788  1789    1
  1739  1437  1436    1
  1740  1770  1772    1
  1741  1754  1755    1
  1742  1754  1753    1
  1743  1806  1805    1
  1744  1841  1839   ar
  1745  1844  1845   ar
  1746  1513  1515    2
  1747  1513  1514    1
  1748  1871  1870    1
  1749  1870  1867    1
  1750  1858  1857   ar
  1751  1557  1554    1
  1752  1169  1162   ar
  1753  1857  1856    1
  1754  1752  1753    1
  1755  1571  1573    1
  1756  1805  1793    1
  1757  1805  1808    1
  1758  1534  1535    2
  1759  1534  1536    1
  1760  1869  1867    1
  1761  1818  1819   ar
  1762  1818  1817   ar
  1763  1154  1155    1
  1764  1451  1450   ar
  1765  1820  1819   ar
  1766  1820  1822   ar
  1767  1470  1472    1
  1768  1470  1468   ar
  1769  1775  1776   ar
  1770  1775  1774   ar
  1771  1769  1773    1
  1772  1733  1732   ar
  1773  1733  1734   ar
  1774  1430  1429   ar
  1775  1430  1431   ar
  1776  1755  1756    1
  1777  1436  1433    1
  1778  1753  1762    1
  1779  1789  1790    1
  1780  1829  1827    2
  1781  1554  1556    2
  1782  1554  1555    1
  1783  1448  1450   ar
  1784  1448  1449    2
  1785  1429  1427   ar
  1786  1467  1468   ar
  1787  1165  1163   ar
  1788  1776  1777   ar
  1789  1732  1741   ar
  1790  1802  1803   ar
  1791  1802  1800   ar
  1792  1867  1868    2
  1793  1867  1854    1
  1794  1819  1826   ar
  1795  1801  1800    2
  1796  1848  1846    2
  1797  1162  1163   ar
  1798  1162  1161    1
  1799  1155  1156    1
  1800  1817  1816   ar
  1801  1845  1838   ar
  1802  1839  1840    2
  1803  1839  1838   ar
  1804  1450  1452    1
  1805  1855  1856    1
  1806  1855  1853    1
  1807  1803  1796   ar
  1808  1800  1799   ar
  1809  1772  1773    1
  1810  1468  1469    2
  1811  1431  1432   ar
  1812  1856  1852    1
  1813  1822  1823   ar
  1814  1793  1792    1
  1815  1157  1161    1
  1816  1157  1156    1
  1817  1163  1164    2
  1818  1808  1809    1
  1819  1774  1773    1
  1820  1774  1784   ar
  1821  1853  1854    1
  1822  1853  1851    1
  1823  1792  1790    1
  1824  1792  1794    1
  1825  1734  1735   ar
  1826  1828  1827    1
  1827  1292  1291    2
  1828  1427  1428    1
  1829  1427  1426   ar
  1830  1827  1830    1
  1831  1827  1813    1
  1832  1790  1791    1
  1833  1838  1837    1
  1834  1849  1846    1
  1835  1849  1850    1
  1836  1756  1762    1
  1837  1756  1757    2
  1838  1777  1784   ar
  1839  1777  1778   ar
  1840  1762  1761    1
  1841  1161  1160    1
  1842  1741  1735   ar
  1843  1741  1740   ar
  1844  1156  1158    1
  1845  1826  1816   ar
  1846  1826  1825   ar
  1847  1846  1847    1
  1848  1846  1835    1
  1849  1186  1185    1
  1850  1433  1434    2
  1851  1433  1435    1
  1852  1433  1420    1
  1853  1852  1851    1
  1854  1816  1815    1
  1855  1796  1797   ar
  1856  1796  1795    1
  1857  1799  1797   ar
  1858  1779  1778    2
  1859  1830  1831    1
  1860  1784  1783   ar
  1861  1432  1426   ar
  1862  1432  1423    1
  1863  1791  1795    1
  1864  1812  1813    1
  1865  1812  1810    1
  1866  1812  1814    1
  1867  1809  1810    1
  1868  1735  1736   ar
  1869  1823  1825   ar
  1870  1823  1824    1
  1871  1851  1850    1
  1872  1778  1780   ar
  1873  1740  1739   ar
  1874  1426  1425    1
  1875  1794  1795    1
  1876  1420  1419    1
  1877  1421  1422    1
  1878  1421  1419    1
  1879  1797  1798    2
  1880  1158  1160    1
  1881  1158  1159    1
  1882  1761  1760    2
  1883  1834  1836    1
  1884  1834  1835    1
  1885  1834  1832    1
  1886  1312  1310    2
  1887  1836  1837    1
  1888  1757  1758    1
  1889  1757  1759    1
  1890  1291  1293    1
  1891  1291  1294    1
  1892  1291  1280    1
  1893  1185  1184   ar
  1894  1185  1187   ar
  1895  1810  1811    1
  1896  1814  1815    1
  1897  1172  1170    2
  1898  1837  1833    1
  1899  1837  1388    1
  1900  1183  1184   ar
  1901  1183  1182   ar
  1902  1311  1310    1
  1903  1815  1811    1
  1904  1422  1423    1
  1905  1422  1418    1
  1906  1423  1424    1
  1907  1783  1781   ar
  1908  1295  1294    1
  1909  1295  1296    1
  1910  1419  1417    1
  1911  1184  1190   ar
  1912  1831  1832    1
  1913  1405  1425    1
  1914  1405  1404    1
  1915  1187  1188   ar
  1916  1780  1781   ar
  1917  1736  1737    1
  1918  1736  1738   ar
  1919  1310  1299    1
  1920  1310  1313    1
  1921  1299  1298    1
  1922  1280  1279    1
  1923  1739  1738   ar
  1924  1833  1832    1
  1925  1425  1424    1
  1926  1207  1206    1
  1927  1159  1170    1
  1928  1760  1759    1
  1929  1182  1181   ar
  1930  1781  1782    1
  1931  1759  1227    1
  1932  1406  1404   ar
  1933  1406  1407   ar
  1934  1170  1171    1
  1935  1170  1173    1
  1936  1388  1387    1
  1937  1273  1272    2
  1938  1404  1403   ar
  1939  1296  1298    1
  1940  1296  1297    1
  1941  1408  1407    2
  1942  1418  1417    1
  1943  1190  1181   ar
  1944  1190  1189   ar
  1945  1298  1300    1
  1946  1188  1189   ar
  1947  1417  1416    1
  1948  1369  1368    1
  1949  1226  1225    1
  1950  1181  1180    1
  1951  1227  1225    1
  1952  1227  1228    1
  1953  1206  1205    1
  1954  1206  1208    2
  1955  1407  1409   ar
  1956  1276  1277    1
  1957  1276  1275    1
  1958  1279  1277    1
  1959  1279  1281    1
  1960  1313  1314    1
  1961  1386  1387   ar
  1962  1386  1384   ar
  1963  1173  1174    1
  1964  1205  1203    2
  1965  1387  1389   ar
  1966  1225  1224    2
  1967  1277  1278    1
  1968  1228  1229    2
  1969  1333  1331    2
  1970  1176  1180    1
  1971  1176  1175    1
  1972  1208  1209    1
  1973  1272  1275    1
  1974  1272  1259    1
  1975  1272  1274    1
  1976  1347  1346    2
  1977  1297  1301    1
  1978  1403  1402    1
  1979  1403  1410   ar
  1980  1180  1179    1
  1981  1244  1243    2
  1982  1416  1415    1
  1983  1368  1367   ar
  1984  1368  1370   ar
  1985  1300  1301    1
  1986  1385  1384    2
  1987  1314  1315    1
  1988  1281  1282    1
  1989  1401  1402    1
  1990  1401  1399    1
  1991  1415  1412    1
  1992  1323  1322   ar
  1993  1323  1324   ar
  1994  1384  1383   ar
  1995  1174  1175    1
  1996  1402  1398    1
  1997  1409  1410   ar
  1998  1409  1411    1
  1999  1203  1204    1
  2000  1203  1202    1
  2001  1259  1258    1
  2002  1224  1230    1
  2003  1224  1223    1
  2004  1229  1230    1
  2005  1245  1243   ar
  2006  1245  1246   ar
  2007  1344  1345    1
  2008  1344  1343    2
  2009  1322  1321   ar
  2010  1389  1391    1
  2011  1389  1390   ar
  2012  1326  1325    1
  2013  1204  1348    1
  2014  1367  1365   ar
  2015  1370  1371   ar
  2016  1301  1302    1
  2017  1209  1202    1
  2018  1175  1177    1
  2019  1243  1242   ar
  2020  1309  1302   ar
  2021  1309  1308   ar
  2022  1346  1345    1
  2023  1346  1348   am
  2024  1278  1282    1
  2025  1247  1246    2
  2026  1230  1221    1
  2027  1331  1332    1
  2028  1331  1318    1
  2029  1331  1334    1
  2030  1202  1201    1
  2031  1223  1222    2
  2032  1179  1177    1
  2033  1345  1352    1
  2034  1414  1412    2
  2035  1246  1248   ar
  2036  1282  1283    1
  2037  1177  1178    1
  2038  1324  1325   ar
  2039  1324  1330   ar
  2040  1343  1342    1
  2041  1302  1303   ar
  2042  1308  1306   ar
  2043  1315  1317    1
  2044  1315  1316    1
  2045  1399  1400    1
  2046  1399  1397    1
  2047  1317  1318    1
  2048  1317  1319    1
  2049  1383  1390   ar
  2050  1383  1382    1
  2051  1325  1327   ar
  2052  1412  1400    1
  2053  1412  1413    1
  2054  1258  1260    1
  2055  1258  1256    1
  2056  1398  1397    1
  2057  1260  1261    1
  2058  1334  1335    1
  2059  1316  1320    1
  2060  1321  1330   ar
  2061  1321  1320    1
  2062  1348  1349    1
  2063  1221  1222    1
  2064  1221  1220    1
  2065  1355  1353    2
  2066  1242  1241    1
  2067  1242  1249   ar
  2068  1371  1364   ar
  2069  1365  1366    2
  2070  1365  1364   ar
  2071  1340  1338    1
  2072  1340  1341    1
  2073  1201  1197    1
  2074  1201  1200    1
  2075  1283  1290   ar
  2076  1283  1284   ar
  2077  1290  1289   ar
  2078  1241  1240    1
  2079  1241  1237    1
  2080  1330  1329   ar
  2081  1397  1396    1
  2082  1248  1249   ar
  2083  1248  1250    1
  2084  1352  1342    1
  2085  1352  1351    2
  2086  1256  1255    1
  2087  1256  1257    1
  2088  1320  1319    1
  2089  1303  1304    2
  2090  1303  1305   ar
  2091  1306  1305   ar
  2092  1306  1307    1
  2093  1342  1341    1
  2094  1382  1381    1
  2095  1382  1378    1
  2096  1178  1191    1
  2097  1197  1196    1
  2098  1220  1219    1
  2099  1220  1216    1
  2100  1364  1363    1
  2101  1193  1191    2
  2102  1327  1328   ar
  2103  1338  1339    1
  2104  1338  1336    1
  2105  1240  1238    1
  2106  1341  1337    1
  2107  1285  1284    2
  2108  1381  1379    1
  2109  1284  1286   ar
  2110  1289  1287   ar
  2111  1255  1254    1
  2112  1261  1257    1
  2113  1261  1262    1
  2114  1349  1351    1
  2115  1349  1350    2
  2116  1335  1336    1
  2117  1191  1194    1
  2118  1191  1192    1
  2119  1200  1198    1
  2120  1200  1350    1
  2121  1270  1269   ar
  2122  1270  1271   ar
  2123  1353  1356    1
  2124  1353  1354    2
  2125  1237  1236    1
  2126  1219  1217    1
  2127  1194  1195    1
  2128  1337  1336    1
  2129  1216  1215    1
  2130  1329  1328   ar
  2131  1395  1396    1
  2132  1395  1392    1
  2133  1269  1268   ar
  2134  1378  1377    1
  2135  1356  1357    1
  2136  1286  1287   ar
  2137  1287  1288    1
  2138  1254  1251    1
  2139  1196  1198    1
  2140  1196  1195    1
  2141  1379  1377    1
  2142  1379  1380    1
  2143  1262  1271   ar
  2144  1262  1263   ar
  2145  1198  1199    1
  2146  1271  1265   ar
  2147  1363  1362    1
  2148  1363  1359    1
  2149  1374  1372    1
  2150  1374  1361    1
  2151  1238  1236    1
  2152  1238  1239    1
  2153  1394  1392    2
  2154  1236  1235    1
  2155  1362  1360    1
  2156  1268  1266   ar
  2157  1359  1358    1
  2158  1392  1380    1
  2159  1392  1393    1
  2160  1360  1358    1
  2161  1360  1361    1
  2162  1377  1376    1
  2163  1217  1215    1
  2164  1217  1218    1
  2165  1239  1251    1
  2166  1375  1372    1
  2167  1375  1376    1
  2168  1253  1251    2
  2169  1215  1214    1
  2170  1263  1264   ar
  2171  1265  1266   ar
  2172  1265  1264   ar
  2173  1357  1358    1
  2174  1372  1373    1
  2175  1251  1252    1
  2176  1266  1267    1
  2177  1213  1214    1
  2178  1213  1210    1
  2179  1199  1210    1
  2180  1212  1210    2
  2181  1235  1234    1
  2182  1218  1231    1
  2183  1210  1211    1
  2184  1234  1231    1
  2185  1231  1233    2
  2186  1231  1232    1
