@<TRIPOS>MOLECULE
dna.pdb
 1463 1644 0 0 0
SMALL
GASTEIGER

@<TRIPOS>ATOM
      1  O5'       10.8820   -6.4370   -3.0420 O.3     1  DA1        -0.2176
      2  C5'       11.7960   -7.0910   -2.1500 C.3     1  DA1         0.2140
      3  C4'       11.0460   -8.0620   -1.2830 C.3     1  DA1         0.1776
      4  O4'       10.1610   -7.3280   -0.4010 O.3     1  DA1        -0.3326
      5  C3'       10.1290   -9.0010   -2.0480 C.3     1  DA1         0.1559
      6  O3'       10.8660  -10.1410   -2.5010 O.3     1  DA1        -0.3138
      7  C2'        9.0890   -9.3780   -0.9960 C.3     1  DA1         0.0865
      8  C1'        8.9920   -8.0910   -0.1630 C.3     1  DA1         0.2094
      9  N9         7.8730   -7.2670   -0.3770 N.ar    1  DA1        -0.2714
     10  C8         7.7920   -6.1170   -1.1170 C.ar    1  DA1         0.1815
     11  N7         6.5690   -5.6650   -1.2600 N.ar    1  DA1        -0.2193
     12  C5         5.7930   -6.5820   -0.5680 C.ar    1  DA1         0.1518
     13  C6         4.4090   -6.6700   -0.3410 C.ar    1  DA1         0.1919
     14  N6         3.5260   -5.7830   -0.8070 N.pl3   1  DA1        -0.1054
     15  N1         3.9590   -7.7110    0.3910 N.ar    1  DA1        -0.2040
     16  C2         4.8440   -8.5980    0.8580 C.ar    1  DA1         0.2016
     17  N3         6.1670   -8.6220    0.7120 N.ar    1  DA1        -0.2048
     18  C4         6.5830   -7.5750   -0.0200 C.ar    1  DA1         0.1691
     19  P         10.7850  -10.8090   -4.1310 P.3     2  DT2         0.2141
     20  OP1       12.2070  -11.1100   -4.4140 O.3     2  DT2        -0.4373
     21  OP2        9.8050  -10.8440   -5.2380 O.2     2  DT2        -0.5172
     22  O5'       10.2420  -11.9170   -3.1180 O.3     2  DT2        -0.3114
     23  C5'       10.8780  -13.1850   -3.2080 C.3     2  DT2         0.1811
     24  C4'       10.5590  -14.0910   -2.0480 C.3     2  DT2         0.1746
     25  O4'       10.1240  -13.2680   -0.9300 O.3     2  DT2        -0.3327
     26  C3'        9.4380  -15.0900   -2.3180 C.3     2  DT2         0.1558
     27  O3'        9.8980  -16.4310   -2.4410 O.3     2  DT2        -0.3138
     28  C2'        8.4910  -14.9880   -1.1260 C.3     2  DT2         0.0866
     29  C1'        8.9290  -13.7580   -0.3490 C.3     2  DT2         0.2106
     30  N1         7.9000  -12.7310   -0.6660 N.ar    2  DT2        -0.2559
     31  C2         6.6740  -12.9550   -0.0690 C.ar    2  DT2         0.3545
     32  O2         6.4650  -13.8840    0.6910 O.2     2  DT2        -0.2443
     33  N3         5.6940  -12.0480   -0.3950 N.ar    2  DT2        -0.1533
     34  C4         5.8140  -10.9640   -1.2390 C.ar    2  DT2         0.2804
     35  O4         4.8430  -10.2380   -1.4330 O.2     2  DT2        -0.2654
     36  C5         7.1170  -10.7990   -1.8200 C.ar    2  DT2         0.0534
     37  C6         8.0880  -11.6660   -1.5210 C.ar    2  DT2         0.0824
     38  C7         7.3490   -9.6480   -2.7530 C.3     2  DT2         0.0377
     39  P          9.1860  -17.0090   -3.4920 P.3     3  DC3         0.2141
     40  OP1       10.2440  -17.9390   -3.9360 O.3     3  DC3        -0.4373
     41  OP2        8.4630  -16.1840   -4.4860 O.2     3  DC3        -0.5172
     42  O5'        8.1180  -17.8670   -2.6800 O.3     3  DC3        -0.3114
     43  C5'        8.4610  -18.3750   -1.4290 C.3     3  DC3         0.1811
     44  C4'        7.2200  -18.5010   -0.5880 C.3     3  DC3         0.1746
     45  O4'        6.7330  -17.1730   -0.2460 O.3     3  DC3        -0.3327
     46  C3'        6.0260  -19.1180   -1.2870 C.3     3  DC3         0.1558
     47  O3'        6.1650  -20.5220   -1.5140 O.3     3  DC3        -0.3138
     48  C2'        4.9890  -18.7540   -0.2360 C.3     3  DC3         0.0866
     49  C1'        5.3470  -17.2860    0.0000 C.3     3  DC3         0.2106
     50  N1         4.6170  -16.3670   -0.9150 N.ar    3  DC3        -0.2556
     51  C2         3.2700  -16.0520   -0.7050 C.ar    3  DC3         0.3531
     52  O2         2.6540  -16.6350    0.2040 O.2     3  DC3        -0.2443
     53  N3         2.6790  -15.1240   -1.4950 N.ar    3  DC3        -0.1739
     54  C4         3.3800  -14.5250   -2.4580 C.ar    3  DC3         0.1759
     55  N4         2.7550  -13.6170   -3.2120 N.pl3   3  DC3        -0.1070
     56  C5         4.7460  -14.8300   -2.6870 C.ar    3  DC3         0.0566
     57  C6         5.3250  -15.7470   -1.9050 C.ar    3  DC3         0.0849
     58  P          5.2640  -21.3920   -2.7600 P.3     4  DC4         0.2141
     59  OP1        5.5780  -22.8470   -2.6910 O.3     4  DC4        -0.4373
     60  OP2        5.4060  -20.6660   -4.0580 O.2     4  DC4        -0.5172
     61  O5'        3.7830  -21.1910   -2.2010 O.3     4  DC4        -0.3114
     62  C5'        3.4390  -21.6330   -0.8880 C.3     4  DC4         0.1811
     63  C4'        1.9420  -21.5300   -0.6590 C.3     4  DC4         0.1746
     64  O4'        1.5250  -20.1340   -0.6140 O.3     4  DC4        -0.3327
     65  C3'        1.0600  -22.1080   -1.7520 C.3     4  DC4         0.1558
     66  O3'        0.9800  -23.5240   -1.6930 O.3     4  DC4        -0.3138
     67  C2'       -0.2760  -21.4290   -1.4640 C.3     4  DC4         0.0866
     68  C1'        0.1810  -20.0210   -1.0770 C.3     4  DC4         0.2106
     69  N1         0.1150  -19.0190   -2.1590 N.ar    4  DC4        -0.2556
     70  C2        -1.1570  -18.4780   -2.3760 C.ar    4  DC4         0.3531
     71  O2        -2.0710  -18.7630   -1.5840 O.2     4  DC4        -0.2443
     72  N3        -1.3540  -17.6640   -3.4400 N.ar    4  DC4        -0.1737
     73  C4        -0.3430  -17.3870   -4.2650 C.ar    4  DC4         0.1782
     74  N4        -0.5850  -16.5790   -5.3000 N.pl3   4  DC4        -0.0961
     75  C5         0.9530  -17.9250   -4.0620 C.ar    4  DC4         0.0568
     76  C6         1.1440  -18.7290   -3.0100 C.ar    4  DC4         0.0849
     77  P          0.3310  -24.3250   -2.9640 P.3     5  DG5         0.2141
     78  OP1        0.3790  -25.7880   -2.7510 O.3     5  DG5        -0.4373
     79  OP2        1.2170  -23.7010   -3.9780 O.2     5  DG5        -0.5172
     80  O5'       -1.1610  -23.8800   -3.3310 O.3     5  DG5        -0.3114
     81  C5'       -2.2790  -24.4450   -2.6610 C.3     5  DG5         0.1811
     82  C4'       -3.5600  -23.7040   -3.0190 C.3     5  DG5         0.1746
     83  O4'       -3.3910  -22.2790   -2.7770 O.3     5  DG5        -0.3327
     84  C3'       -4.0600  -23.7220   -4.4580 C.3     5  DG5         0.1558
     85  O3'       -4.7490  -24.9210   -4.7800 O.3     5  DG5        -0.3138
     86  C2'       -5.0680  -22.5860   -4.4100 C.3     5  DG5         0.0865
     87  C1'       -4.2990  -21.5530   -3.5910 C.3     5  DG5         0.2094
     88  N9        -3.5260  -20.7180   -4.5090 N.ar    5  DG5        -0.2713
     89  C8        -2.2020  -20.8530   -4.8480 C.ar    5  DG5         0.1816
     90  N7        -1.7970  -19.9590   -5.7090 N.ar    5  DG5        -0.2173
     91  C5        -2.9170  -19.1860   -5.9540 C.ar    5  DG5         0.1748
     92  C6        -3.0970  -18.0640   -6.8030 C.ar    5  DG5         0.3023
     93  O6        -2.2630  -17.5140   -7.5330 O.2     5  DG5        -0.2633
     94  N1        -4.4000  -17.5780   -6.7540 N.ar    5  DG5        -0.1709
     95  C2        -5.4070  -18.1070   -5.9820 C.ar    5  DG5         0.2606
     96  N2        -6.5980  -17.5010   -6.0670 N.pl3   5  DG5        -0.0859
     97  N3        -5.2550  -19.1500   -5.1880 N.ar    5  DG5        -0.1918
     98  C4        -3.9970  -19.6390   -5.2210 C.ar    5  DG5         0.1722
     99  P         -5.0190  -25.3380   -6.3840 P.3     6  DT6         0.2141
    100  OP1       -5.3540  -26.7780   -6.2950 O.3     6  DT6        -0.4373
    101  OP2       -3.8710  -24.8820   -7.2020 O.2     6  DT6        -0.5172
    102  O5'       -6.2490  -24.5030   -6.9770 O.3     6  DT6        -0.3114
    103  C5'       -7.4920  -24.4320   -6.3000 C.3     6  DT6         0.1811
    104  C4'       -8.2460  -23.1670   -6.6340 C.3     6  DT6         0.1746
    105  O4'       -7.4920  -22.0070   -6.1970 O.3     6  DT6        -0.3327
    106  C3'       -8.5170  -22.9020   -8.1080 C.3     6  DT6         0.1558
    107  O3'       -9.6480  -23.6010   -8.5940 O.3     6  DT6        -0.3138
    108  C2'       -8.7150  -21.3970   -8.1350 C.3     6  DT6         0.0866
    109  C1'       -7.7140  -20.9280   -7.0850 C.3     6  DT6         0.2106
    110  N1        -6.4220  -20.4030   -7.6650 N.ar    6  DT6        -0.2559
    111  C2        -6.3760  -19.1240   -8.1860 C.ar    6  DT6         0.3545
    112  O2        -7.3480  -18.3920   -8.2360 O.2     6  DT6        -0.2443
    113  N3        -5.1440  -18.7300   -8.6500 N.ar    6  DT6        -0.1533
    114  C4        -3.9800  -19.4700   -8.6460 C.ar    6  DT6         0.2804
    115  O4        -2.9490  -18.9780   -9.0980 O.2     6  DT6        -0.2654
    116  C5        -4.1090  -20.7870   -8.0900 C.ar    6  DT6         0.0534
    117  C6        -5.2950  -21.1960   -7.6310 C.ar    6  DT6         0.0824
    118  C7        -2.8980  -21.6700   -8.0410 C.3     6  DT6         0.0377
    119  P         -9.7930  -23.9430  -10.1580 P.3     7  DC7         0.2141
    120  OP1      -10.7060  -25.1060  -10.2420 O.3     7  DC7        -0.4373
    121  OP2       -8.7130  -23.7730  -11.1740 O.2     7  DC7        -0.5172
    122  O5'      -10.6600  -22.6110  -10.1260 O.3     7  DC7        -0.3114
    123  C5'      -11.0660  -22.0030  -11.3390 C.3     7  DC7         0.1811
    124  C4'      -11.4300  -20.5620  -11.1140 C.3     7  DC7         0.1746
    125  O4'      -10.4330  -19.9380  -10.2650 O.3     7  DC7        -0.3327
    126  C3'      -11.4180  -19.7510  -12.3950 C.3     7  DC7         0.1558
    127  O3'      -12.6350  -19.8960  -13.1090 O.3     7  DC7        -0.3138
    128  C2'      -11.0720  -18.3510  -11.9010 C.3     7  DC7         0.0866
    129  C1'      -10.0660  -18.6770  -10.7980 C.3     7  DC7         0.2106
    130  N1        -8.5540  -18.8230  -11.4590 N.ar    7  DC7        -0.2556
    131  C2        -7.8600  -17.7060  -11.9380 C.ar    7  DC7         0.3531
    132  O2        -8.4930  -16.6600  -12.1630 O.2     7  DC7        -0.2443
    133  N3        -6.5240  -17.7970  -12.1410 N.ar    7  DC7        -0.1739
    134  C4        -5.8870  -18.9400  -11.8860 C.ar    7  DC7         0.1759
    135  N4        -4.5700  -18.9830  -12.1010 N.pl3   7  DC7        -0.1070
    136  C5        -6.5720  -20.0830  -11.4010 C.ar    7  DC7         0.0566
    137  C6        -7.8910  -19.9890  -11.2010 C.ar    7  DC7         0.0849
    138  P        -12.5730  -20.4340  -14.5810 P.3     8  DA8         0.2141
    139  OP1      -14.0310  -20.4930  -14.8480 O.3     8  DA8        -0.4373
    140  OP2      -11.6880  -21.5320  -15.0600 O.2     8  DA8        -0.5172
    141  O5'      -12.0320  -19.0740  -15.1990 O.3     8  DA8        -0.3114
    142  C5'      -12.6970  -17.8320  -14.9190 C.3     8  DA8         0.1811
    143  C4'      -11.9680  -16.6980  -15.5830 C.3     8  DA8         0.1746
    144  O4'      -10.6680  -16.5280  -14.9590 O.3     8  DA8        -0.3327
    145  C3'      -11.6500  -16.9080  -17.0540 C.3     8  DA8         0.1558
    146  O3'      -12.7420  -16.6020  -17.9100 O.3     8  DA8        -0.3138
    147  C2'      -10.4730  -15.9710  -17.2600 C.3     8  DA8         0.0865
    148  C1'       -9.7230  -16.1240  -15.9350 C.3     8  DA8         0.2094
    149  N9        -8.6520  -17.1290  -16.0090 N.ar    8  DA8        -0.2714
    150  C8        -8.6550  -18.4560  -15.6670 C.ar    8  DA8         0.1815
    151  N7        -7.4940  -19.0460  -15.8250 N.ar    8  DA8        -0.2193
    152  C5        -6.6730  -18.0380  -16.3050 C.ar    8  DA8         0.1518
    153  C6        -5.3160  -18.0190  -16.6730 C.ar    8  DA8         0.1919
    154  N6        -4.5170  -19.0870  -16.6090 N.pl3   8  DA8        -0.1054
    155  N1        -4.8030  -16.8500  -17.1130 N.ar    8  DA8        -0.2040
    156  C2        -5.6040  -15.7800  -17.1750 C.ar    8  DA8         0.2016
    157  N3        -6.8920  -15.6750  -16.8570 N.ar    8  DA8        -0.2048
    158  C4        -7.3720  -16.8530  -16.4250 C.ar    8  DA8         0.1691
    159  P        -13.0100  -17.5250  -19.2880 P.3     9  DC9         0.2141
    160  OP1      -14.4900  -17.6210  -19.3730 O.2     9  DC9        -0.5172
    161  OP2      -12.2100  -18.7670  -19.1300 O.3     9  DC9        -0.4373
    162  O5'      -12.5180  -16.8420  -20.6300 O.3     9  DC9        -0.3114
    163  C5'      -12.3200  -15.4520  -20.7050 C.3     9  DC9         0.1811
    164  C4'      -10.9570  -15.1590  -21.2690 C.3     9  DC9         0.1746
    165  O4'       -9.9360  -15.4870  -20.3070 O.3     9  DC9        -0.3327
    166  C3'      -10.5660  -15.9550  -22.4920 C.3     9  DC9         0.1558
    167  O3'      -11.1610  -15.3650  -23.6450 O.3     9  DC9        -0.3138
    168  C2'       -9.0410  -15.8660  -22.4770 C.3     9  DC9         0.0866
    169  C1'       -8.7250  -15.7280  -20.9840 C.3     9  DC9         0.2106
    170  N1        -8.0940  -16.7860  -20.2430 N.ar    9  DC9        -0.2556
    171  C2        -6.8140  -17.1780  -20.6540 C.ar    9  DC9         0.3531
    172  O2        -6.2110  -16.4760  -21.4820 O.2     9  DC9        -0.2443
    173  N3        -6.2740  -18.3080  -20.1380 N.ar    9  DC9        -0.1739
    174  C4        -6.9590  -19.0310  -19.2520 C.ar    9  DC9         0.1759
    175  N4        -6.3860  -20.1370  -18.7720 N.pl3   9  DC9        -0.1070
    176  C5        -8.2570  -18.6510  -18.8230 C.ar    9  DC9         0.0566
    177  C6        -8.7870  -17.5340  -19.3340 C.ar    9  DC9         0.0849
    178  P        -11.7910  -16.2330  -24.9430 P.3    10  DA10        0.2141
    179  OP1      -12.4180  -15.5380  -26.0920 O.2    10  DA10       -0.5172
    180  OP2      -12.5030  -17.3680  -24.2990 O.3    10  DA10       -0.4373
    181  O5'      -10.3440  -16.7490  -25.3800 O.3    10  DA10       -0.3114
    182  C5'       -9.4070  -15.8560  -26.0090 C.3    10  DA10        0.1811
    183  C4'       -8.1040  -16.5630  -26.3040 C.3    10  DA10        0.1746
    184  O4'       -7.3730  -16.8140  -25.0810 O.3    10  DA10       -0.3327
    185  C3'       -8.1890  -17.9170  -26.9870 C.3    10  DA10        0.1558
    186  O3'       -8.3230  -17.7800  -28.3970 O.3    10  DA10       -0.3138
    187  C2'       -6.8570  -18.5670  -26.6300 C.3    10  DA10        0.0865
    188  C1'       -6.5630  -17.9680  -25.2490 C.3    10  DA10        0.2094
    189  N9        -6.8390  -18.8600  -24.1320 N.ar   10  DA10       -0.2714
    190  C8        -7.9600  -19.0870  -23.3780 C.ar   10  DA10        0.1815
    191  N7        -7.8980  -20.1790  -22.6530 N.ar   10  DA10       -0.2193
    192  C5        -6.6510  -20.7050  -22.9520 C.ar   10  DA10        0.1518
    193  C6        -5.9790  -21.8580  -22.5090 C.ar   10  DA10        0.1919
    194  N6        -6.4950  -22.7220  -21.6320 N.pl3  10  DA10       -0.1054
    195  N1        -4.7460  -22.0940  -23.0040 N.ar   10  DA10       -0.2040
    196  C2        -4.2290  -21.2260  -23.8820 C.ar   10  DA10        0.2016
    197  N3        -4.7620  -20.1100  -24.3730 N.ar   10  DA10       -0.2048
    198  C4        -5.9880  -19.9040  -23.8630 C.ar   10  DA10        0.1691
    199  P         -9.0380  -19.0370  -29.3190 P.3    11  DC11        0.2141
    200  OP1       -9.4680  -18.4180  -30.5860 O.2    11  DC11       -0.5172
    201  OP2      -10.0420  -19.7200  -28.4450 O.3    11  DC11       -0.4373
    202  O5'       -7.9210  -20.1040  -29.6670 O.3    11  DC11       -0.3114
    203  C5'       -6.7270  -19.7020  -30.2920 C.3    11  DC11        0.1811
    204  C4'       -5.6570  -20.7360  -30.0590 C.3    11  DC11        0.1746
    205  O4'       -5.3140  -20.7890  -28.6470 O.3    11  DC11       -0.3327
    206  C3'       -6.0110  -22.1700  -30.3990 C.3    11  DC11        0.1558
    207  O3'       -5.9380  -22.4450  -31.8010 O.3    11  DC11       -0.3138
    208  C2'       -4.9780  -22.9410  -29.5880 C.3    11  DC11        0.0866
    209  C1'       -4.8640  -22.0870  -28.3210 C.3    11  DC11        0.2106
    210  N1        -5.6440  -22.5890  -27.1760 N.ar   11  DC11       -0.2556
    211  C2        -5.1590  -23.6030  -26.3410 C.ar   11  DC11        0.3531
    212  O2        -4.0690  -24.1330  -26.6160 O.2    11  DC11       -0.2443
    213  N3        -5.8900  -23.9770  -25.2640 N.ar   11  DC11       -0.1739
    214  C4        -7.0550  -23.3800  -25.0090 C.ar   11  DC11        0.1759
    215  N4        -7.7410  -23.7810  -23.9360 N.pl3  11  DC11       -0.1070
    216  C5        -7.5640  -22.3510  -25.8420 C.ar   11  DC11        0.0566
    217  C6        -6.8390  -21.9850  -26.9050 C.ar   11  DC11        0.0849
    218  P         -6.9390  -24.0140  -32.7130 P.3    12  DC12        0.2141
    219  OP1       -6.8080  -24.0230  -34.1900 O.2    12  DC12       -0.5172
    220  OP2       -8.2570  -24.2060  -32.0630 O.3    12  DC12       -0.4373
    221  O5'       -6.0310  -25.1670  -32.0760 O.3    12  DC12       -0.3114
    222  C5'       -4.6990  -25.3660  -32.5160 C.3    12  DC12        0.1811
    223  C4'       -3.9850  -26.3720  -31.6520 C.3    12  DC12        0.1746
    224  O4'       -3.9290  -25.8930  -30.2840 O.3    12  DC12       -0.3327
    225  C3'       -4.6580  -27.7250  -31.5090 C.3    12  DC12        0.1558
    226  O3'       -4.4890  -28.5670  -32.6290 O.3    12  DC12       -0.3138
    227  C2'       -4.0070  -28.2490  -30.2430 C.3    12  DC12        0.0866
    228  C1'       -4.0250  -26.9820  -29.3910 C.3    12  DC12        0.2106
    229  N1        -5.2770  -26.8640  -28.6930 N.ar   12  DC12       -0.2556
    230  C2        -5.5460  -27.6390  -27.5590 C.ar   12  DC12        0.3531
    231  O2        -4.6970  -28.4660  -27.1850 O.2    12  DC12       -0.2443
    232  N3        -6.7190  -27.4670  -26.9050 N.ar   12  DC12       -0.1739
    233  C4        -7.6020  -26.5680  -27.3430 C.ar   12  DC12        0.1759
    234  N4        -8.7440  -26.4330  -26.6660 N.pl3  12  DC12       -0.1070
    235  C5        -7.3480  -25.7730  -28.4900 C.ar   12  DC12        0.0566
    236  C6        -6.1880  -25.9460  -29.1330 C.ar   12  DC12        0.0849
    237  P         -5.7060  -29.4060  -33.0670 P.3    13  DT13        0.2141
    238  OP1       -5.0710  -29.8250  -34.3360 O.2    13  DT13       -0.5172
    239  OP2       -6.9780  -28.6560  -33.0340 O.3    13  DT13       -0.4373
    240  O5'       -6.0630  -30.7210  -32.2520 O.3    13  DT13       -0.3114
    241  C5'       -5.0600  -31.7100  -32.1600 C.3    13  DT13        0.1811
    242  C4'       -5.1560  -32.4090  -30.8380 C.3    13  DT13        0.1746
    243  O4'       -5.2890  -31.4220  -29.7850 O.3    13  DT13       -0.3327
    244  C3'       -6.3660  -33.3110  -30.6580 C.3    13  DT13        0.1558
    245  O3'       -6.2060  -34.5760  -31.2730 O.3    13  DT13       -0.3138
    246  C2'       -6.4550  -33.3970  -29.1460 C.3    13  DT13        0.0866
    247  C1'       -6.0650  -31.9700  -28.7430 C.3    13  DT13        0.2106
    248  N1        -7.2570  -31.1140  -28.5610 N.ar   13  DT13       -0.2559
    249  C2        -8.1440  -31.2850  -27.5150 C.ar   13  DT13        0.3545
    250  O2        -8.1530  -32.2760  -26.8070 O.2    13  DT13       -0.2443
    251  N3        -9.0280  -30.2500  -27.3280 N.ar   13  DT13       -0.1533
    252  C4        -9.1110  -29.0860  -28.0640 C.ar   13  DT13        0.2804
    253  O4        -9.9600  -28.2460  -27.7740 O.2    13  DT13       -0.2654
    254  C5        -8.1570  -28.9840  -29.1320 C.ar   13  DT13        0.0534
    255  C6        -7.2860  -29.9760  -29.3370 C.ar   13  DT13        0.0824
    256  C7        -8.1670  -27.7550  -29.9920 C.3    13  DT13        0.0377
    257  P         -7.3860  -35.2960  -32.0490 P.3    14  DG14        0.2141
    258  OP1       -6.6820  -36.4710  -32.6120 O.3    14  DG14       -0.4373
    259  OP2       -8.5100  -34.6680  -32.8090 O.2    14  DG14       -0.5172
    260  O5'       -7.8500  -35.6890  -30.5850 O.3    14  DG14       -0.3114
    261  C5'       -8.8710  -36.6180  -30.3720 C.3    14  DG14        0.1811
    262  C4'       -9.0700  -36.7920  -28.9070 C.3    14  DG14        0.1746
    263  O4'       -8.6690  -35.5840  -28.2240 O.3    14  DG14       -0.3327
    264  C3'      -10.5210  -36.9810  -28.5650 C.3    14  DG14        0.1558
    265  O3'      -10.8460  -38.3230  -28.7510 O.3    14  DG14       -0.3138
    266  C2'      -10.6140  -36.4110  -27.1620 C.3    14  DG14        0.0865
    267  C1'       -9.6660  -35.2160  -27.2880 C.3    14  DG14        0.2094
    268  N9       -10.6910  -34.1520  -27.8060 N.ar   14  DG14       -0.2713
    269  C8       -10.2640  -33.3610  -28.8450 C.ar   14  DG14        0.1816
    270  N7       -10.9630  -32.2670  -28.9800 N.ar   14  DG14       -0.2173
    271  C5       -11.9070  -32.3360  -27.9720 C.ar   14  DG14        0.1748
    272  C6       -12.9450  -31.4380  -27.6170 C.ar   14  DG14        0.3023
    273  O6       -13.2410  -30.3600  -28.1480 O.2    14  DG14       -0.2633
    274  N1       -13.6780  -31.8950  -26.5250 N.ar   14  DG14       -0.1709
    275  C2       -13.4400  -33.0720  -25.8580 C.ar   14  DG14        0.2606
    276  N2       -14.2520  -33.3430  -24.8270 N.pl3  14  DG14       -0.0859
    277  N3       -12.4790  -33.9170  -26.1770 N.ar   14  DG14       -0.1918
    278  C4       -11.7550  -33.4950  -27.2350 C.ar   14  DG14        0.1722
    279  P        -11.1650  -38.5970  -30.1700 P.3    15  DC15        0.2141
    280  OP1      -10.4250  -39.7920  -29.7220 O.3    15  DC15       -0.4373
    281  OP2      -10.8810  -37.9930  -31.5050 O.2    15  DC15       -0.5172
    282  O5'      -12.7350  -38.8970  -30.1150 O.3    15  DC15       -0.3114
    283  C5'      -13.4160  -38.9970  -28.8800 C.3    15  DC15        0.1811
    284  C4'      -14.8050  -38.3840  -28.9680 C.3    15  DC15        0.1746
    285  O4'      -14.7840  -37.0610  -28.3890 O.3    15  DC15       -0.3327
    286  C3'      -15.3720  -38.1400  -30.3560 C.3    15  DC15        0.1558
    287  O3'      -15.9240  -39.3140  -30.8800 O.3    15  DC15       -0.3138
    288  C2'      -16.4760  -37.1540  -30.0260 C.3    15  DC15        0.0866
    289  C1'      -15.7770  -36.2680  -29.0060 C.3    15  DC15        0.2106
    290  N1       -15.1380  -35.1350  -29.6720 N.ar   15  DC15       -0.2556
    291  C2       -15.8860  -33.9880  -29.9620 C.ar   15  DC15        0.3531
    292  O2       -17.0770  -33.9460  -29.6080 O.2    15  DC15       -0.2443
    293  N3       -15.2930  -32.9610  -30.6170 N.ar   15  DC15       -0.1739
    294  C4       -14.0120  -33.0510  -30.9780 C.ar   15  DC15        0.1759
    295  N4       -13.4700  -32.0150  -31.6220 N.pl3  15  DC15       -0.1070
    296  C5       -13.2370  -34.2050  -30.6940 C.ar   15  DC15        0.0566
    297  C6       -13.8260  -35.2160  -30.0470 C.ar   15  DC15        0.0849
    298  P        -16.1630  -39.4110  -32.4020 P.3    16  DT16        0.2141
    299  OP1      -16.7610  -40.6620  -32.9210 O.2    16  DT16       -0.5172
    300  OP2      -14.8320  -38.9760  -32.8780 O.3    16  DT16       -0.4373
    301  O5'      -17.1270  -38.1810  -32.7420 O.3    16  DT16       -0.3114
    302  C5'      -18.5320  -38.3800  -32.7140 C.3    16  DT16        0.1811
    303  C4'      -19.2620  -37.3470  -33.5340 C.3    16  DT16        0.1746
    304  O4'      -19.4760  -36.1400  -32.7560 O.3    16  DT16       -0.3327
    305  C3'      -18.5450  -36.8680  -34.7830 C.3    16  DT16        0.1558
    306  O3'      -18.6520  -37.7780  -35.8670 O.3    16  DT16       -0.3138
    307  C2'      -19.2030  -35.5140  -35.0340 C.3    16  DT16        0.0866
    308  C1'      -19.4390  -35.0110  -33.6070 C.3    16  DT16        0.2106
    309  N1       -18.1950  -34.1250  -32.9310 N.ar   16  DT16       -0.2559
    310  C2       -18.5240  -32.8270  -32.5900 C.ar   16  DT16        0.3545
    311  O2       -19.6720  -32.4230  -32.5440 O.2    16  DT16       -0.2443
    312  N3       -17.4550  -32.0130  -32.3050 N.ar   16  DT16       -0.1533
    313  C4       -16.1200  -32.3590  -32.3260 C.ar   16  DT16        0.2804
    314  O4       -15.2720  -31.5160  -32.0440 O.2    16  DT16       -0.2654
    315  C5       -15.8600  -33.7230  -32.6900 C.ar   16  DT16        0.0534
    316  C6       -16.8810  -34.5370  -32.9720 C.ar   16  DT16        0.0824
    317  C7       -14.4380  -34.1960  -32.7420 C.3    16  DT16        0.0377
    318  P        -17.4030  -38.6760  -36.7080 P.3    17  DC17        0.2141
    319  OP1      -17.5210  -40.1190  -37.0180 O.2    17  DC17       -0.5172
    320  OP2      -16.2670  -38.1610  -35.9100 O.3    17  DC17       -0.4373
    321  O5'      -17.3310  -37.8580  -38.0840 O.3    17  DC17       -0.3114
    322  C5'      -17.3840  -36.4380  -38.0360 C.3    17  DC17        0.1811
    323  C4'      -18.1150  -35.8240  -39.2080 C.3    17  DC17        0.1746
    324  O4'      -19.5030  -36.2600  -39.2310 O.3    17  DC17       -0.3327
    325  C3'      -18.2190  -34.3050  -39.1850 C.3    17  DC17        0.1558
    326  O3'      -17.0300  -33.6510  -39.6020 O.3    17  DC17       -0.3138
    327  C2'      -19.4200  -34.0530  -40.0870 C.3    17  DC17        0.0866
    328  C1'      -20.3360  -35.2070  -39.6740 C.3    17  DC17        0.2106
    329  N1       -20.9560  -34.6730  -38.3260 N.ar   17  DC17       -0.2556
    330  C2       -21.8920  -33.6960  -37.9710 C.ar   17  DC17        0.3531
    331  O2       -21.9320  -32.6400  -38.6260 O.2    17  DC17       -0.2443
    332  N3       -22.7230  -33.9260  -36.9260 N.ar   17  DC17       -0.1739
    333  C4       -22.6430  -35.0740  -36.2510 C.ar   17  DC17        0.1759
    334  N4       -23.4830  -35.2570  -35.2290 N.pl3  17  DC17       -0.1070
    335  C5       -21.7020  -36.0770  -36.5950 C.ar   17  DC17        0.0566
    336  C6       -20.8830  -35.8450  -37.6270 C.ar   17  DC17        0.0849
    337  P        -16.0590  -32.4020  -38.4090 P.3    18  DT18        0.2141
    338  OP1      -15.0450  -31.4210  -38.8360 O.2    18  DT18       -0.5172
    339  OP2      -16.0970  -32.8590  -37.0040 O.3    18  DT18       -0.4373
    340  O5'      -17.4330  -31.7380  -38.7960 O.3    18  DT18       -0.3113
    341  C5'      -17.3710  -30.7640  -39.7720 C.3    18  DT18        0.1836
    342  C4'      -18.3630  -29.6920  -39.3820 C.3    18  DT18        0.1992
    343  O4'      -19.6570  -30.2840  -39.1090 O.3    18  DT18       -0.3301
    344  C3'      -18.0410  -28.9730  -38.0920 C.3    18  DT18        0.2381
    345  O3'      -17.0330  -28.0260  -38.3830 O.3    18  DT18       -0.2491
    346  C2'      -19.4070  -28.3440  -37.8260 C.3    18  DT18        0.1137
    347  C1'      -20.3630  -29.4710  -38.1960 C.3    18  DT18        0.2132
    348  N1       -20.6610  -30.2900  -36.9620 N.ar   18  DT18       -0.2558
    349  C2       -21.6250  -29.7840  -36.1110 C.ar   18  DT18        0.3545
    350  O2       -22.2600  -28.7730  -36.3540 O.2    18  DT18       -0.2443
    351  N3       -21.8190  -30.5060  -34.9580 N.ar   18  DT18       -0.1533
    352  C4       -21.1620  -31.6580  -34.5800 C.ar   18  DT18        0.2804
    353  O4       -21.4480  -32.1940  -33.5120 O.2    18  DT18       -0.2654
    354  C5       -20.1760  -32.1200  -35.5160 C.ar   18  DT18        0.0534
    355  C6       -19.9660  -31.4370  -36.6440 C.ar   18  DT18        0.0824
    356  C7       -19.4060  -33.3660  -35.1950 C.3    18  DT18        0.0377
    357  P        -16.4550  -27.2750  -37.3180 P.3    19  DA19        0.4833
    358  OP1      -15.1520  -26.5700  -37.4000 O.2    19  DA19       -0.2269
    359  OP2      -16.4930  -28.7380  -37.0810 O.3    19  DA19       -0.2491
    360  O5'      -17.3160  -26.5720  -36.1790 O.3    19  DA19       -0.2704
    361  C5'      -17.6360  -25.1820  -36.2670 C.3    19  DA19        0.1856
    362  C4'      -18.8710  -24.8600  -35.4510 C.3    19  DA19        0.1748
    363  O4'      -19.9130  -25.8330  -35.7220 O.3    19  DA19       -0.3327
    364  C3'      -18.7560  -24.8560  -33.9340 C.3    19  DA19        0.1558
    365  O3'      -18.2640  -23.6180  -33.4510 O.3    19  DA19       -0.3138
    366  C2'      -20.2040  -25.0130  -33.5070 C.3    19  DA19        0.0865
    367  C1'      -20.7670  -25.9220  -34.5980 C.3    19  DA19        0.2094
    368  N9       -20.7430  -27.3050  -34.1190 N.ar   19  DA19       -0.2714
    369  C8       -19.9140  -28.3410  -34.4620 C.ar   19  DA19        0.1815
    370  N7       -20.1330  -29.4410  -33.7810 N.ar   19  DA19       -0.2193
    371  C5       -21.1760  -29.1040  -32.9330 C.ar   19  DA19        0.1518
    372  C6       -21.8740  -29.8350  -31.9560 C.ar   19  DA19        0.1919
    373  N6       -21.6120  -31.1100  -31.6590 N.pl3  19  DA19       -0.1054
    374  N1       -22.8610  -29.2020  -31.2870 N.ar   19  DA19       -0.2040
    375  C2       -23.1230  -27.9250  -31.5860 C.ar   19  DA19        0.2016
    376  N3       -22.5380  -27.1340  -32.4820 N.ar   19  DA19       -0.2048
    377  C4       -21.5620  -27.7920  -33.1290 C.ar   19  DA19        0.1691
    378  P        -17.6070  -23.4870  -31.9170 P.3    20  DT20        0.2141
    379  OP1      -17.5120  -22.1680  -32.5830 O.2    20  DT20       -0.5172
    380  OP2      -16.4170  -24.0860  -31.2740 O.3    20  DT20       -0.4373
    381  O5'      -18.7680  -23.4470  -30.8180 O.3    20  DT20       -0.3114
    382  C5'      -19.9760  -22.7490  -31.0750 C.3    20  DT20        0.1811
    383  C4'      -21.1100  -23.4170  -30.3250 C.3    20  DT20        0.1746
    384  O4'      -21.5290  -24.5960  -31.0500 O.3    20  DT20       -0.3327
    385  C3'      -20.7060  -23.9370  -28.9570 C.3    20  DT20        0.1558
    386  O3'      -20.8810  -22.9060  -28.0020 O.3    20  DT20       -0.3138
    387  C2'      -21.6630  -25.1030  -28.7300 C.3    20  DT20        0.0866
    388  C1'      -21.9120  -25.6150  -30.1470 C.3    20  DT20        0.2106
    389  N1       -21.1700  -26.7450  -30.4640 N.ar   20  DT20       -0.2559
    390  C2       -21.5350  -27.9270  -29.8480 C.ar   20  DT20        0.3545
    391  O2       -22.5140  -28.0270  -29.1290 O.2    20  DT20       -0.2443
    392  N3       -20.7090  -28.9940  -30.1040 N.ar   20  DT20       -0.1533
    393  C4       -19.5800  -28.9980  -30.8960 C.ar   20  DT20        0.2804
    394  O4       -18.9390  -30.0380  -31.0310 O.2    20  DT20       -0.2654
    395  C5       -19.2660  -27.7340  -31.4990 C.ar   20  DT20        0.0534
    396  C6       -20.0530  -26.6790  -31.2680 C.ar   20  DT20        0.0824
    397  C7       -18.0550  -27.6360  -32.3780 C.3    20  DT20        0.0377
    398  P        -19.9670  -22.8480  -26.7250 P.3    21  DT21        0.2141
    399  OP1      -20.2330  -21.8220  -25.6880 O.3    21  DT21       -0.4373
    400  OP2      -18.6200  -23.1640  -27.2500 O.2    21  DT21       -0.5172
    401  O5'      -20.4790  -24.2430  -26.1500 O.3    21  DT21       -0.3114
    402  C5'      -21.7200  -24.2800  -25.4720 C.3    21  DT21        0.1811
    403  C4'      -22.0710  -25.6980  -25.1300 C.3    21  DT21        0.1746
    404  O4'      -22.0900  -26.5000  -26.3360 O.3    21  DT21       -0.3327
    405  C3'      -21.0630  -26.4200  -24.2640 C.3    21  DT21        0.1558
    406  O3'      -21.1610  -26.0450  -22.9100 O.3    21  DT21       -0.3138
    407  C2'      -21.4070  -27.8750  -24.5300 C.3    21  DT21        0.0866
    408  C1'      -21.6900  -27.8180  -26.0290 C.3    21  DT21        0.2106
    409  N1       -20.4910  -28.1900  -26.8150 N.ar   21  DT21       -0.2559
    410  C2       -20.0230  -29.4890  -26.7600 C.ar   21  DT21        0.3545
    411  O2       -20.5290  -30.3480  -26.0610 O.2    21  DT21       -0.2443
    412  N3       -18.9340  -29.7480  -27.5560 N.ar   21  DT21       -0.1533
    413  C4       -18.2800  -28.8590  -28.3840 C.ar   21  DT21        0.2804
    414  O4       -17.3140  -29.2410  -29.0400 O.2    21  DT21       -0.2654
    415  C5       -18.8250  -27.5310  -28.3850 C.ar   21  DT21        0.0534
    416  C6       -19.8840  -27.2510  -27.6200 C.ar   21  DT21        0.0824
    417  C7       -18.1830  -26.4900  -29.2530 C.3    21  DT21        0.0377
    418  P        -19.7740  -25.5410  -22.1280 P.3    22  DC22        0.2141
    419  OP1      -20.2830  -24.7830  -20.9330 O.3    22  DC22       -0.4373
    420  OP2      -18.8240  -24.8800  -23.0570 O.2    22  DC22       -0.5172
    421  O5'      -19.1750  -26.9450  -21.6560 O.3    22  DC22       -0.3114
    422  C5'      -20.0310  -27.9510  -21.1030 C.3    22  DC22        0.1811
    423  C4'      -19.4640  -29.3450  -21.3290 C.3    22  DC22        0.1746
    424  O4'      -19.4180  -29.6300  -22.7540 O.3    22  DC22       -0.3327
    425  C3'      -18.0610  -29.6560  -20.8340 C.3    22  DC22        0.1558
    426  O3'      -18.0620  -30.0460  -19.4730 O.3    22  DC22       -0.3138
    427  C2'      -17.6860  -30.8540  -21.6820 C.3    22  DC22        0.0866
    428  C1'      -18.3860  -30.5560  -23.0170 C.3    22  DC22        0.2106
    429  N1       -17.4330  -30.0410  -23.9810 N.ar   22  DC22       -0.2556
    430  C2       -16.6120  -30.9170  -24.7010 C.ar   22  DC22        0.3531
    431  O2       -16.6920  -32.1360  -24.4710 O.2    22  DC22       -0.2443
    432  N3       -15.7590  -30.4130  -25.6240 N.ar   22  DC22       -0.1739
    433  C4       -15.7070  -29.0970  -25.8370 C.ar   22  DC22        0.1759
    434  N4       -14.8500  -28.6460  -26.7560 N.pl3  22  DC22       -0.1070
    435  C5       -16.5300  -28.1930  -25.1180 C.ar   22  DC22        0.0566
    436  C6       -17.3720  -28.6950  -24.2080 C.ar   22  DC22        0.0849
    437  P        -16.7720  -29.7990  -18.5800 P.3    23  DC23        0.2141
    438  OP1      -17.0390  -30.3360  -17.1920 O.3    23  DC23       -0.4373
    439  OP2      -16.1880  -28.4300  -18.5640 O.2    23  DC23       -0.5172
    440  O5'      -15.9560  -30.8780  -19.4330 O.3    23  DC23       -0.3114
    441  C5'      -15.8000  -32.1650  -18.7630 C.3    23  DC23        0.1811
    442  C4'      -14.6000  -32.8380  -19.3750 C.3    23  DC23        0.1746
    443  O4'      -14.7250  -32.8110  -20.7890 O.3    23  DC23       -0.3327
    444  C3'      -13.2490  -32.2320  -19.0950 C.3    23  DC23        0.1558
    445  O3'      -12.6570  -32.5230  -17.8240 O.3    23  DC23       -0.3138
    446  C2'      -12.4150  -32.7890  -20.2510 C.3    23  DC23        0.0866
    447  C1'      -13.4200  -32.7790  -21.3930 C.3    23  DC23        0.2106
    448  N1       -13.1650  -31.5300  -22.1410 N.ar   23  DC23       -0.2556
    449  C2       -12.1170  -31.4820  -23.0670 C.ar   23  DC23        0.3531
    450  O2       -11.4160  -32.4960  -23.2280 O.2    23  DC23       -0.2443
    451  N3       -11.8970  -30.3370  -23.7560 N.ar   23  DC23       -0.1739
    452  C4       -12.6750  -29.2740  -23.5480 C.ar   23  DC23        0.1759
    453  N4       -12.4200  -28.1670  -24.2510 N.pl3  23  DC23       -0.1070
    454  C5       -13.7420  -29.3020  -22.6150 C.ar   23  DC23        0.0566
    455  C6       -13.9560  -30.4350  -21.9360 C.ar   23  DC23        0.0849
    456  P        -12.2560  -31.3410  -16.9760 P.3    24  DT24        0.2141
    457  OP1      -12.3270  -31.5910  -15.5150 O.3    24  DT24       -0.4373
    458  OP2      -12.9990  -30.1880  -17.5450 O.2    24  DT24       -0.5172
    459  O5'      -10.7060  -31.2760  -17.5000 O.3    24  DT24       -0.3114
    460  C5'       -9.5160  -31.7580  -16.8080 C.3    24  DT24        0.1811
    461  C4'       -8.4540  -32.3070  -17.7690 C.3    24  DT24        0.1746
    462  O4'       -9.0500  -32.6120  -19.0800 O.3    24  DT24       -0.3327
    463  C3'       -7.2460  -31.4120  -18.0870 C.3    24  DT24        0.1558
    464  O3'       -6.1400  -31.5100  -17.1150 O.3    24  DT24       -0.3138
    465  C2'       -6.8880  -31.8300  -19.5430 C.3    24  DT24        0.0866
    466  C1'       -8.2140  -32.2370  -20.1790 C.3    24  DT24        0.2106
    467  N1        -8.6420  -31.1550  -20.9410 N.ar   24  DT24       -0.2559
    468  C2        -8.0100  -30.9300  -22.1500 C.ar   24  DT24        0.3545
    469  O2        -7.0340  -31.5610  -22.5160 O.2    24  DT24       -0.2443
    470  N3        -8.5630  -29.9350  -22.9190 N.ar   24  DT24       -0.1533
    471  C4        -9.6600  -29.1590  -22.6080 C.ar   24  DT24        0.2804
    472  O4       -10.0410  -28.3030  -23.4030 O.2    24  DT24       -0.2654
    473  C5       -10.2600  -29.4520  -21.3360 C.ar   24  DT24        0.0534
    474  C6        -9.7420  -30.4140  -20.5680 C.ar   24  DT24        0.0824
    475  C7       -11.4600  -28.6610  -20.9060 C.3    24  DT24        0.0377
    476  P         -5.0010  -30.5500  -17.0310 P.3    25  DC25        0.2141
    477  OP1       -4.5200  -31.0830  -15.7350 O.3    25  DC25       -0.4373
    478  OP2       -5.7060  -29.2490  -17.0810 O.2    25  DC25       -0.5172
    479  O5'       -3.7810  -30.3550  -18.0540 O.3    25  DC25       -0.3114
    480  C5'       -3.0350  -31.4700  -18.5230 C.3    25  DC25        0.1811
    481  C4'       -2.5120  -31.2710  -19.9270 C.3    25  DC25        0.1746
    482  O4'       -3.6100  -31.1660  -20.8700 O.3    25  DC25       -0.3327
    483  C3'       -1.6920  -30.0150  -20.1790 C.3    25  DC25        0.1558
    484  O3'       -0.3460  -30.1340  -19.7560 O.3    25  DC25       -0.3138
    485  C2'       -1.8160  -29.8290  -21.6860 C.3    25  DC25        0.0866
    486  C1'       -3.2330  -30.3400  -21.9540 C.3    25  DC25        0.2106
    487  N1        -4.1850  -29.2210  -22.1310 N.ar   25  DC25       -0.2556
    488  C2        -4.1590  -28.4350  -23.2890 C.ar   25  DC25        0.3531
    489  O2        -3.3270  -28.7010  -24.1730 O.2    25  DC25       -0.2443
    490  N3        -5.0380  -27.4120  -23.4110 N.ar   25  DC25       -0.1739
    491  C4        -5.9120  -27.1630  -22.4350 C.ar   25  DC25        0.1759
    492  N4        -6.7580  -26.1440  -22.6000 N.pl3  25  DC25       -0.1070
    493  C5        -5.9540  -27.9470  -21.2540 C.ar   25  DC25        0.0566
    494  C6        -5.0850  -28.9570  -21.1380 C.ar   25  DC25        0.0849
    495  P          0.6470  -28.7730  -19.6480 P.3    26  DT26        0.2141
    496  OP1        2.0140  -29.2360  -19.3380 O.2    26  DT26       -0.5172
    497  OP2       -0.1360  -28.1200  -18.5860 O.3    26  DT26       -0.4373
    498  O5'        0.7230  -27.7980  -20.9230 O.3    26  DT26       -0.3114
    499  C5'        1.3740  -28.1440  -22.1300 C.3    26  DT26        0.1811
    500  C4'        1.2500  -26.9890  -23.1020 C.3    26  DT26        0.1746
    501  O4'       -0.1320  -26.8220  -23.5100 O.3    26  DT26       -0.3327
    502  C3'        1.5440  -25.6220  -22.4990 C.3    26  DT26        0.1558
    503  O3'        2.9350  -25.3820  -22.3810 O.3    26  DT26       -0.3138
    504  C2'        0.9520  -24.7420  -23.5750 C.3    26  DT26        0.0866
    505  C1'       -0.3820  -25.4510  -23.7810 C.3    26  DT26        0.2106
    506  N1        -1.4900  -24.8910  -22.9040 N.ar   26  DT26       -0.2559
    507  C2        -2.1180  -23.7020  -23.2230 C.ar   26  DT26        0.3545
    508  O2        -1.8120  -23.0280  -24.1900 O.2    26  DT26       -0.2443
    509  N3        -3.1230  -23.3270  -22.3640 N.ar   26  DT26       -0.1533
    510  C4        -3.5530  -24.0070  -21.2430 C.ar   26  DT26        0.2804
    511  O4        -4.4700  -23.5430  -20.5690 O.2    26  DT26       -0.2654
    512  C5        -2.8510  -25.2310  -20.9780 C.ar   26  DT26        0.0534
    513  C6        -1.8700  -25.6190  -21.7980 C.ar   26  DT26        0.0824
    514  C7        -3.2450  -26.0430  -19.7800 C.3    26  DT26        0.0377
    515  P          3.5830  -24.3450  -21.1800 P.3    27  DG27        0.2141
    516  OP1        5.0550  -24.5110  -21.1660 O.2    27  DG27       -0.5172
    517  OP2        2.7730  -24.4950  -19.9490 O.3    27  DG27       -0.4373
    518  O5'        3.2260  -22.8770  -21.7040 O.3    27  DG27       -0.3114
    519  C5'        3.4930  -22.5580  -23.0600 C.3    27  DG27        0.1811
    520  C4'        2.7340  -21.3320  -23.4930 C.3    27  DG27        0.1746
    521  O4'        1.3470  -21.6630  -23.7600 O.3    27  DG27       -0.3327
    522  C3'        2.6700  -20.2090  -22.4710 C.3    27  DG27        0.1558
    523  O3'        3.8530  -19.4260  -22.4580 O.3    27  DG27       -0.3138
    524  C2'        1.4430  -19.4390  -22.9350 C.3    27  DG27        0.0865
    525  C1'        0.5270  -20.5750  -23.3960 C.3    27  DG27        0.2094
    526  N9        -0.3890  -20.9990  -22.2910 N.ar   27  DG27       -0.2713
    527  C8        -0.3260  -22.1610  -21.5610 C.ar   27  DG27        0.1816
    528  N7        -1.2690  -22.2560  -20.6630 N.ar   27  DG27       -0.2173
    529  C5        -2.0000  -21.0920  -20.8080 C.ar   27  DG27        0.1748
    530  C6        -3.1440  -20.6270  -20.1090 C.ar   27  DG27        0.3023
    531  O6        -3.7580  -21.1830  -19.1890 O.2    27  DG27       -0.2633
    532  N1        -3.5690  -19.3860  -20.5740 N.ar   27  DG27       -0.1709
    533  C2        -2.9670  -18.6790  -21.5870 C.ar   27  DG27        0.2606
    534  N2        -3.5220  -17.5000  -21.8970 N.pl3  27  DG27       -0.0859
    535  N3        -1.9030  -19.0980  -22.2440 N.ar   27  DG27       -0.1918
    536  C4        -1.4720  -20.3000  -21.8090 C.ar   27  DG27        0.1722
    537  P          4.4690  -18.6960  -21.1030 P.3    28  DT28        0.2141
    538  OP1        5.9090  -18.5840  -21.4320 O.2    28  DT28       -0.5172
    539  OP2        4.0380  -19.4140  -19.8900 O.3    28  DT28       -0.4373
    540  O5'        3.8560  -17.2250  -21.0700 O.3    28  DT28       -0.3114
    541  C5'        3.3580  -16.6810  -22.2660 C.3    28  DT28        0.1811
    542  C4'        2.1820  -15.7860  -21.9580 C.3    28  DT28        0.1746
    543  O4'        0.9630  -16.5610  -21.8870 O.3    28  DT28       -0.3327
    544  C3'        2.2520  -15.1370  -20.5970 C.3    28  DT28        0.1558
    545  O3'        3.1500  -14.0370  -20.6230 O.3    28  DT28       -0.3138
    546  C2'        0.7970  -14.7160  -20.4210 C.3    28  DT28        0.0866
    547  C1'        0.0540  -15.9090  -21.0200 C.3    28  DT28        0.2106
    548  N1        -0.3730  -16.8710  -20.0450 N.ar   28  DT28       -0.2559
    549  C2        -1.5930  -16.6900  -19.4220 C.ar   28  DT28        0.3545
    550  O2        -2.3380  -15.7600  -19.6760 O.2    28  DT28       -0.2443
    551  N3        -1.9130  -17.6420  -18.4840 N.ar   28  DT28       -0.1533
    552  C4        -1.1530  -18.7320  -18.1160 C.ar   28  DT28        0.2804
    553  O4        -1.5760  -19.5020  -17.2570 O.2    28  DT28       -0.2654
    554  C5         0.1000  -18.8500  -18.8070 C.ar   28  DT28        0.0534
    555  C6         0.4360  -17.9380  -19.7230 C.ar   28  DT28        0.0824
    556  C7         1.0000  -20.0040  -18.4760 C.3    28  DT28        0.0377
    557  P          3.8140  -13.5160  -19.1770 P.3    29  DT29        0.2141
    558  OP1        5.1540  -12.8860  -19.1870 O.2    29  DT29       -0.5172
    559  OP2        3.3420  -14.2820  -18.0010 O.3    29  DT29       -0.4373
    560  O5'        2.7010  -12.3900  -19.3870 O.3    29  DT29       -0.3114
    561  C5'        2.3650  -11.5460  -18.3030 C.3    29  DT29        0.1812
    562  C4'        0.8970  -11.2190  -18.2900 C.3    29  DT29        0.1775
    563  O4'        0.1250  -12.3390  -18.7940 O.3    29  DT29       -0.3326
    564  C3'        0.3200  -10.9860  -16.9100 C.3    29  DT29        0.1859
    565  O3'        0.6320   -9.7060  -16.3950 O.3    29  DT29       -0.2202
    566  C2'       -1.1590  -11.2440  -17.1390 C.3    29  DT29        0.0895
    567  C1'       -1.0790  -12.4510  -18.0640 C.3    29  DT29        0.2107
    568  N1        -1.0540  -13.8350  -17.2560 N.ar   29  DT29       -0.2559
    569  C2        -2.2890  -14.4120  -17.0290 C.ar   29  DT29        0.3545
    570  O2        -3.3400  -13.8230  -17.2080 O.2    29  DT29       -0.2443
    571  N3        -2.2500  -15.7110  -16.5840 N.ar   29  DT29       -0.1533
    572  C4        -1.1250  -16.4730  -16.3460 C.ar   29  DT29        0.2804
    573  O4        -1.2500  -17.6290  -15.9480 O.2    29  DT29       -0.2654
    574  C5         0.1180  -15.8030  -16.6040 C.ar   29  DT29        0.0534
    575  C6         0.1090  -14.5400  -17.0380 C.ar   29  DT29        0.0824
    576  C7         1.3990  -16.5490  -16.3750 C.3    29  DT29        0.0377
    577  P          1.7170   -9.6350  -14.9760 P.3    30  DG30        0.4149
    578  OP1        1.9920   -8.2310  -14.6000 O.3    30  DG30       -0.1481
    579  OP2        2.2900  -10.7230  -14.1520 O.2    30  DG30       -0.2668
    580  O5'        0.1300   -9.8450  -15.0540 O.3    30  DG30       -0.2177
    581  C5'       -0.6900   -8.8490  -15.6550 C.3    30  DG30        0.2140
    582  C4'       -2.1510   -9.2560  -15.7030 C.3    30  DG30        0.1776
    583  O4'       -2.3360  -10.5000  -16.4270 O.3    30  DG30       -0.3326
    584  C3'       -2.7880   -9.5620  -14.3590 C.3    30  DG30        0.1559
    585  O3'       -3.0560   -8.3970  -13.6240 O.3    30  DG30       -0.3138
    586  C2'       -4.0530  -10.2710  -14.8080 C.3    30  DG30        0.0865
    587  C1'       -3.4470  -11.1930  -15.8680 C.3    30  DG30        0.2094
    588  N9        -3.0150  -12.4820  -15.3440 N.ar   30  DG30       -0.2713
    589  C8        -1.7380  -12.9760  -15.2270 C.ar   30  DG30        0.1816
    590  N7        -1.6910  -14.1550  -14.6710 N.ar   30  DG30       -0.2173
    591  C5        -3.0130  -14.4630  -14.4060 C.ar   30  DG30        0.1748
    592  C6        -3.5910  -15.6110  -13.8060 C.ar   30  DG30        0.3023
    593  O6        -3.0190  -16.6210  -13.3760 O.2    30  DG30       -0.2633
    594  N1        -4.9770  -15.5140  -13.7250 N.ar   30  DG30       -0.1709
    595  C2        -5.7160  -14.4430  -14.1690 C.ar   30  DG30        0.2606
    596  N2        -7.0430  -14.5320  -14.0060 N.pl3  30  DG30       -0.0859
    597  N3        -5.1930  -13.3690  -14.7270 N.ar   30  DG30       -0.1918
    598  C4        -3.8470  -13.4410  -14.8150 C.ar   30  DG30        0.1722
    599  P         -2.4330   -8.3340  -12.2090 P.3    31  DA31        0.2141
    600  OP1       -2.2240   -6.9230  -11.8040 O.3    31  DA31       -0.4373
    601  OP2       -1.3250   -9.3120  -12.0460 O.2    31  DA31       -0.5172
    602  O5'       -3.6800   -8.9260  -11.4140 O.3    31  DA31       -0.3114
    603  C5'       -4.9500   -8.2570  -11.4080 C.3    31  DA31        0.1811
    604  C4'       -5.9860   -9.1200  -10.7310 C.3    31  DA31        0.1746
    605  O4'       -6.1250  -10.3660  -11.4670 O.3    31  DA31       -0.3327
    606  C3'       -5.6540   -9.5720   -9.3160 C.3    31  DA31        0.1558
    607  O3'       -5.9550   -8.5740   -8.3440 O.3    31  DA31       -0.3138
    608  C2'       -6.5300  -10.8070   -9.1640 C.3    31  DA31        0.0865
    609  C1'       -6.4420  -11.4140  -10.5680 C.3    31  DA31        0.2094
    610  N9        -5.4060  -12.4440  -10.6490 N.ar   31  DA31       -0.2714
    611  C8        -4.1120  -12.2780  -11.0710 C.ar   31  DA31        0.1815
    612  N7        -3.3780  -13.3600  -10.9640 N.ar   31  DA31       -0.2193
    613  C5        -4.2480  -14.3010  -10.4360 C.ar   31  DA31        0.1518
    614  C6        -4.0810  -15.6530  -10.0870 C.ar   31  DA31        0.1919
    615  N6        -2.9310  -16.3160  -10.2250 N.pl3  31  DA31       -0.1054
    616  N1        -5.1510  -16.3060   -9.5840 N.ar   31  DA31       -0.2040
    617  C2        -6.3030  -15.6410   -9.4460 C.ar   31  DA31        0.2016
    618  N3        -6.5830  -14.3730   -9.7400 N.ar   31  DA31       -0.2048
    619  C4        -5.5000  -13.7510  -10.2360 C.ar   31  DA31        0.1691
    620  P         -5.4120   -8.7360   -6.7940 P.3    32  DA32        0.2141
    621  OP1       -5.8650   -7.3150   -6.8230 O.2    32  DA32       -0.5172
    622  OP2       -3.9640   -9.0460   -6.7760 O.3    32  DA32       -0.4373
    623  O5'       -6.1190   -9.5140   -5.5900 O.3    32  DA32       -0.3114
    624  C5'       -7.5170   -9.4110   -5.3910 C.3    32  DA32        0.1811
    625  C4'       -8.0600  -10.7370   -4.9560 C.3    32  DA32        0.1746
    626  O4'       -7.5950  -11.7220   -5.9110 O.3    32  DA32       -0.3327
    627  C3'       -7.5450  -11.2610   -3.6280 C.3    32  DA32        0.1558
    628  O3'       -8.2490  -10.7470   -2.5200 O.3    32  DA32       -0.3138
    629  C2'       -7.7060  -12.7550   -3.7850 C.3    32  DA32        0.0865
    630  C1'       -7.2790  -12.9310   -5.2400 C.3    32  DA32        0.2094
    631  N9        -5.9760  -13.2760   -5.2940 N.ar   32  DA32       -0.2714
    632  C8        -5.0970  -12.5030   -6.0060 C.ar   32  DA32        0.1815
    633  N7        -3.9000  -13.0280   -6.1170 N.ar   32  DA32       -0.2191
    634  C5        -3.9990  -14.2270   -5.4290 C.ar   32  DA32        0.1543
    635  C6        -3.0710  -15.2530   -5.1780 C.ar   32  DA32        0.2036
    636  N6        -1.8080  -15.2300   -5.6110 N.2    32  DA32       -0.1362
    637  N1        -3.4910  -16.3150   -4.4580 N.ar   32  DA32       -0.2018
    638  C2        -4.7570  -16.3380   -4.0250 C.ar   32  DA32        0.2017
    639  N3        -5.7210  -15.4360   -4.1980 N.ar   32  DA32       -0.2048
    640  C4        -5.2710  -14.3930   -4.9160 C.ar   32  DA32        0.1693
    641  P         -7.5420   -9.7990   -1.8860 P.3    33  DG33        0.2141
    642  OP1       -8.5540   -8.8560   -1.3610 O.3    33  DG33       -0.4373
    643  OP2       -6.2790   -9.2900   -2.4670 O.2    33  DG33       -0.5172
    644  O5'       -7.0720  -10.7910   -0.7220 O.3    33  DG33       -0.3114
    645  C5'       -8.0080  -11.7190   -0.1860 C.3    33  DG33        0.1811
    646  C4'       -7.3470  -13.0020    0.2550 C.3    33  DG33        0.1746
    647  O4'       -6.6630  -13.6210   -0.8670 O.3    33  DG33       -0.3327
    648  C3'       -6.2650  -12.8720    1.3190 C.3    33  DG33        0.1558
    649  O3'       -6.7880  -12.7490    2.6280 O.3    33  DG33       -0.3138
    650  C2'       -5.4450  -14.1400    1.1050 C.3    33  DG33        0.0865
    651  C1'       -5.4960  -14.2720   -0.4180 C.3    33  DG33        0.2094
    652  N9        -4.3330  -13.6670   -1.0010 N.ar   33  DG33       -0.2713
    653  C8        -4.4240  -12.5160   -1.7440 C.ar   33  DG33        0.1816
    654  N7        -3.2870  -12.1520   -2.2710 N.ar   33  DG33       -0.2173
    655  C5        -2.3910  -13.1190   -1.8540 C.ar   33  DG33        0.1748
    656  C6        -1.0020  -13.2610   -2.1060 C.ar   33  DG33        0.3023
    657  O6        -0.2660  -12.5260   -2.7770 O.2    33  DG33       -0.2633
    658  N1        -0.4730  -14.3900   -1.4880 N.ar   33  DG33       -0.1709
    659  C2        -1.1930  -15.2750   -0.7220 C.ar   33  DG33        0.2606
    660  N2        -0.5090  -16.3060   -0.2090 N.pl3  33  DG33       -0.0859
    661  N3        -2.4840  -15.1560   -0.4780 N.ar   33  DG33       -0.1918
    662  C4        -3.0180  -14.0650   -1.0680 C.ar   33  DG33        0.1722
    663  P         -6.0100  -12.0050    3.8800 P.3    34  DA34        0.2141
    664  OP1       -6.6050  -12.1340    5.2270 O.3    34  DA34       -0.4373
    665  OP2       -5.6830  -10.6550    3.3470 O.2    34  DA34       -0.5172
    666  O5'       -4.6940  -12.8770    3.8390 O.3    34  DA34       -0.3114
    667  C5'       -4.7900  -14.2840    3.9440 C.3    34  DA34        0.1811
    668  C4'       -3.4450  -14.8450    4.2330 C.3    34  DA34        0.1746
    669  O4'       -2.7400  -15.0580    2.9900 O.3    34  DA34       -0.3327
    670  C3'       -2.5790  -13.8840    5.0160 C.3    34  DA34        0.1558
    671  O3'       -2.8750  -13.8930    6.4080 O.3    34  DA34       -0.3138
    672  C2'       -1.1720  -14.3150    4.6200 C.3    34  DA34        0.0865
    673  C1'       -1.3790  -14.7150    3.1520 C.3    34  DA34        0.2094
    674  N9        -1.0460  -13.7110    2.2150 N.ar   34  DA34       -0.2714
    675  C8        -1.7990  -12.6540    1.7750 C.ar   34  DA34        0.1815
    676  N7        -1.1170  -11.7650    1.0920 N.ar   34  DA34       -0.2191
    677  C5         0.1730  -12.2720    1.0840 C.ar   34  DA34        0.1545
    678  C6         1.3720  -11.7990    0.5220 C.ar   34  DA34        0.2060
    679  N6         1.4650  -10.6610   -0.1690 N.2    34  DA34       -0.1252
    680  N1         2.4830  -12.5450    0.6980 N.ar   34  DA34       -0.2017
    681  C2         2.3880  -13.6860    1.3900 C.ar   34  DA34        0.2017
    682  N3         1.3200  -14.2350    1.9640 N.ar   34  DA34       -0.2048
    683  C4         0.2320  -13.4690    1.7720 C.ar   34  DA34        0.1693
    684  P         -1.9980  -13.0220    7.4080 P.3    35  DA35        0.2141
    685  OP1       -2.1530  -12.9830    8.8950 O.3    35  DA35       -0.4373
    686  OP2       -2.3760  -11.8460    6.6070 O.2    35  DA35       -0.5172
    687  O5'       -0.4900  -13.3690    7.0250 O.3    35  DA35       -0.3114
    688  C5'        0.1830  -14.4700    7.6110 C.3    35  DA35        0.1811
    689  C4'        1.6570  -14.3090    7.4140 C.3    35  DA35        0.1746
    690  O4'        1.9690  -14.4290    6.0020 O.3    35  DA35       -0.3327
    691  C3'        2.1820  -12.9460    7.8240 C.3    35  DA35        0.1558
    692  O3'        2.3980  -12.9640    9.2390 O.3    35  DA35       -0.3138
    693  C2'        3.4170  -12.7890    6.9340 C.3    35  DA35        0.0865
    694  C1'        2.9560  -13.4810    5.6420 C.3    35  DA35        0.2094
    695  N9         2.3400  -12.5410    4.5990 N.ar   35  DA35       -0.2714
    696  C8         1.0440  -12.1200    4.4530 C.ar   35  DA35        0.1815
    697  N7         0.8670  -11.2840    3.4570 N.ar   35  DA35       -0.2191
    698  C5         2.1340  -11.1470    2.9120 C.ar   35  DA35        0.1545
    699  C6         2.6200  -10.3960    1.8260 C.ar   35  DA35        0.2060
    700  N6         1.8520   -9.6130    1.0660 N.2    35  DA35       -0.1252
    701  N1         3.9380  -10.4810    1.5470 N.ar   35  DA35       -0.2017
    702  C2         4.7070  -11.2680    2.3080 C.ar   35  DA35        0.2017
    703  N3         4.3660  -12.0200    3.3520 N.ar   35  DA35       -0.2048
    704  C4         3.0510  -11.9130    3.6050 C.ar   35  DA35        0.1693
    705  P          2.5910  -11.1970   10.4360 P.3    36  DC36        0.2141
    706  OP1        3.0980  -11.1080   11.8340 O.3    36  DC36       -0.4373
    707  OP2        1.1590  -10.8950   10.1470 O.2    36  DC36       -0.5172
    708  O5'        3.4690  -10.2430    9.5120 O.3    36  DC36       -0.3114
    709  C5'        4.8640  -10.4780    9.3030 C.3    36  DC36        0.1812
    710  C4'        5.2920   -9.8880    7.9760 C.3    36  DC36        0.1775
    711  O4'        4.2540  -10.1860    6.9990 O.3    36  DC36       -0.3326
    712  C3'        5.4130   -8.3720    7.8590 C.3    36  DC36        0.1864
    713  O3'        6.6300   -7.8410    8.3730 O.3    36  DC36       -0.2133
    714  C2'        5.3540   -8.1930    6.3510 C.3    36  DC36        0.0895
    715  C1'        4.2510   -9.1850    5.9870 C.3    36  DC36        0.2107
    716  N1         3.0480   -8.5810    5.9470 N.ar   36  DC36       -0.2556
    717  C2         2.6790   -7.7490    4.8840 C.ar   36  DC36        0.3531
    718  O2         3.5190   -7.4960    4.0030 O.2    36  DC36       -0.2443
    719  N3         1.4220   -7.2440    4.8460 N.ar   36  DC36       -0.1739
    720  C4         0.5550   -7.5420    5.8140 C.ar   36  DC36        0.1759
    721  N4        -0.6720   -7.0220    5.7350 N.pl3  36  DC36       -0.1070
    722  C5         0.9090   -8.3830    6.9000 C.ar   36  DC36        0.0566
    723  C6         2.1510   -8.8790    6.9330 C.ar   36  DC36        0.0849
    724  P          6.7260   -6.2380    8.7630 P.3    37  DC37        0.3939
    725  OP1        6.9150   -5.2640    9.8660 O.3    37  DC37       -0.1425
    726  OP2        5.5530   -7.1660    8.8030 O.3    37  DC37       -0.1496
    727  O5'        6.6900   -5.3870    7.4020 O.3    37  DC37       -0.2926
    728  C5'        7.7950   -5.5940    6.5370 C.3    37  DC37        0.1828
    729  C4'        7.6400   -4.8300    5.2650 C.3    37  DC37        0.1747
    730  O4'        6.3550   -5.1830    4.7010 O.3    37  DC37       -0.3327
    731  C3'        7.5960   -3.3220    5.4650 C.3    37  DC37        0.1558
    732  O3'        8.8900   -2.7290    5.6140 O.3    37  DC37       -0.3138
    733  C2'        6.9500   -2.9600    4.1440 C.3    37  DC37        0.0866
    734  C1'        5.8600   -4.0450    4.0370 C.3    37  DC37        0.2106
    735  N1         4.5640   -3.7020    4.6470 N.ar   37  DC37       -0.2556
    736  C2         3.6730   -2.8480    3.9870 C.ar   37  DC37        0.3531
    737  O2         3.9970   -2.3860    2.8790 O.2    37  DC37       -0.2443
    738  N3         2.4900   -2.5490    4.5730 N.ar   37  DC37       -0.1739
    739  C4         2.1860   -3.0660    5.7640 C.ar   37  DC37        0.1759
    740  N4         1.0070   -2.7440    6.3030 N.pl3  37  DC37       -0.1070
    741  C5         3.0750   -3.9340    6.4490 C.ar   37  DC37        0.0566
    742  C6         4.2430   -4.2260    5.8670 C.ar   37  DC37        0.0849
    743  P          9.0700   -1.2500    6.4660 P.3    38  DA38        0.2141
    744  OP1       10.5100   -0.9400    6.5600 O.2    38  DA38       -0.5172
    745  OP2        8.1720   -1.0960    7.6320 O.3    38  DA38       -0.4373
    746  O5'        8.3930   -0.3440    5.3630 O.3    38  DA38       -0.3114
    747  C5'        9.0000   -0.0260    4.1640 C.3    38  DA38        0.1811
    748  C4'        7.9390    0.6850    3.3450 C.3    38  DA38        0.1746
    749  O4'        6.7090   -0.0720    3.3700 O.3    38  DA38       -0.3327
    750  C3'        7.5160    2.0390    3.8860 C.3    38  DA38        0.1558
    751  O3'        8.3890    3.0320    3.4530 O.3    38  DA38       -0.3138
    752  C2'        6.2000    2.2200    3.1810 C.3    38  DA38        0.0865
    753  C1'        5.6270    0.8240    3.2740 C.3    38  DA38        0.2094
    754  N9         4.6920    0.6670    4.4380 N.ar   38  DA38       -0.2714
    755  C8         4.9340    0.0790    5.6520 C.ar   38  DA38        0.1815
    756  N7         3.8920    0.0640    6.4490 N.ar   38  DA38       -0.2193
    757  C5         2.8980    0.6850    5.7090 C.ar   38  DA38        0.1518
    758  C6         1.5530    0.9810    5.9910 C.ar   38  DA38        0.1919
    759  N6         0.9560    0.6750    7.1460 N.pl3  38  DA38       -0.1054
    760  N1         0.8360    1.6090    5.0350 N.ar   38  DA38       -0.2040
    761  C2         1.4350    1.9130    3.8790 C.ar   38  DA38        0.2016
    762  N3         2.6900    1.6870    3.4970 N.ar   38  DA38       -0.2048
    763  C4         3.3760    1.0630    4.4680 C.ar   38  DA38        0.1691
    764  P          8.7950    3.9260    4.5490 P.3    39  DC39        0.2141
    765  OP1        9.7850    5.0210    4.4180 O.2    39  DC39       -0.5172
    766  OP2        8.4010    3.4130    5.8800 O.3    39  DC39       -0.4373
    767  O5'        7.4220    4.4170    3.9040 O.3    39  DC39       -0.3114
    768  C5'        7.3910    4.7900    2.5380 C.3    39  DC39        0.1811
    769  C4'        6.0720    5.4300    2.2110 C.3    39  DC39        0.1746
    770  O4'        5.0010    4.4980    2.4980 O.3    39  DC39       -0.3327
    771  C3'        5.7240    6.6510    3.0410 C.3    39  DC39        0.1558
    772  O3'        6.3230    7.8220    2.5290 O.3    39  DC39       -0.3138
    773  C2'        4.2060    6.6800    2.9700 C.3    39  DC39        0.0866
    774  C1'        3.8690    5.1880    2.9750 C.3    39  DC39        0.2106
    775  N1         3.6090    4.6870    4.3490 N.ar   39  DC39       -0.2556
    776  C2         2.3760    4.9500    4.9570 C.ar   39  DC39        0.3531
    777  O2         1.5140    5.5740    4.3150 O.2    39  DC39       -0.2443
    778  N3         2.1590    4.5200    6.2230 N.ar   39  DC39       -0.1739
    779  C4         3.1140    3.8550    6.8740 C.ar   39  DC39        0.1759
    780  N4         2.8550    3.4500    8.1200 N.pl3  39  DC39       -0.1070
    781  C5         4.3700    3.5780    6.2760 C.ar   39  DC39        0.0566
    782  C6         4.5800    4.0050    5.0260 C.ar   39  DC39        0.0849
    783  P          6.8340    8.9160    3.5340 P.3    40  DT40        0.2141
    784  OP1        7.3190    9.9960    2.6490 O.2    40  DT40       -0.5172
    785  OP2        7.7760    8.3450    4.5200 O.3    40  DT40       -0.4373
    786  O5'        5.4740    9.3610    4.2650 O.3    40  DT40       -0.3114
    787  C5'        4.4910   10.1230    3.5560 C.3    40  DT40        0.1811
    788  C4'        3.0960    9.9870    4.1460 C.3    40  DT40        0.1746
    789  O4'        2.8230    8.5960    4.4400 O.3    40  DT40       -0.3327
    790  C3'        2.8350   10.6860    5.4780 C.3    40  DT40        0.1558
    791  O3'        2.5660   12.0820    5.3030 O.3    40  DT40       -0.3138
    792  C2'        1.6130    9.9220    5.9860 C.3    40  DT40        0.0866
    793  C1'        1.9390    8.4960    5.5480 C.3    40  DT40        0.2106
    794  N1         2.5170    7.7020    6.6170 N.ar   40  DT40       -0.2559
    795  C2         1.6940    7.1770    7.5940 C.ar   40  DT40        0.3545
    796  O2         0.5000    7.4140    7.6550 O.2    40  DT40       -0.2443
    797  N3         2.3190    6.3600    8.5050 N.ar   40  DT40       -0.1533
    798  C4         3.6570    6.0230    8.5350 C.ar   40  DT40        0.2804
    799  O4         4.0720    5.2750    9.4160 O.2    40  DT40       -0.2654
    800  C5         4.4460    6.6090    7.4880 C.ar   40  DT40        0.0534
    801  C6         3.8630    7.4070    6.5900 C.ar   40  DT40        0.0824
    802  C7         5.9140    6.3040    7.4350 C.3    40  DT40        0.0377
    803  P          2.8300   13.3050    6.5870 P.3    41  DT41        0.2141
    804  OP1        2.3660   14.6740    6.3010 O.2    41  DT41       -0.5172
    805  OP2        3.8230   13.1020    7.6640 O.3    41  DT41       -0.4373
    806  O5'        1.5650   12.3910    6.8610 O.3    41  DT41       -0.3114
    807  C5'        0.2790   12.8760    6.7880 C.3    41  DT41        0.1811
    808  C4'       -0.4530   12.2720    7.9370 C.3    41  DT41        0.1746
    809  O4'       -0.0890   10.8860    8.0880 O.3    41  DT41       -0.3327
    810  C3'       -0.0520   12.8290    9.2680 C.3    41  DT41        0.1558
    811  O3'       -0.5750   14.1400    9.4370 O.3    41  DT41       -0.3138
    812  C2'       -0.6440   11.7740   10.1970 C.3    41  DT41        0.0866
    813  C1'       -0.2870   10.5130    9.4400 C.3    41  DT41        0.2106
    814  N1         0.9030    9.9090    9.9580 N.ar   41  DT41       -0.2559
    815  C2         0.8230    9.1330   11.0990 C.ar   41  DT41        0.3545
    816  O2        -0.2280    8.8930   11.6650 O.2    41  DT41       -0.2443
    817  N3         2.0240    8.6470   11.5560 N.ar   41  DT41       -0.1533
    818  C4         3.2690    8.8540   11.0000 C.ar   41  DT41        0.2804
    819  O4         4.2580    8.3490   11.5260 O.2    41  DT41       -0.2654
    820  C5         3.2690    9.6700    9.8190 C.ar   41  DT41        0.0534
    821  C6         2.1160   10.1560    9.3520 C.ar   41  DT41        0.0824
    822  C7         4.5760    9.9540    9.1400 C.3    41  DT41        0.0377
    823  P         -0.1390   15.1340   10.8380 P.3    42  DC42        0.2141
    824  OP1       -0.5340   16.5320   10.5600 O.2    42  DC42       -0.5172
    825  OP2        1.2640   14.7070   10.6320 O.3    42  DC42       -0.4373
    826  O5'       -0.4340   14.7910   12.3760 O.3    42  DC42       -0.3114
    827  C5'       -1.7550   14.9000   12.8930 C.3    42  DC42        0.1811
    828  C4'       -1.9590   14.0210   14.1030 C.3    42  DC42        0.1746
    829  O4'       -1.5470   12.6640   13.7940 O.3    42  DC42       -0.3327
    830  C3'       -1.1420   14.3720   15.3380 C.3    42  DC42        0.1558
    831  O3'       -1.6910   15.4350   16.0990 O.3    42  DC42       -0.3138
    832  C2'       -1.1100   13.0480   16.0880 C.3    42  DC42        0.0866
    833  C1'       -0.9660   12.0600   14.9330 C.3    42  DC42        0.2106
    834  N1         0.4590   11.6770   14.6160 N.ar   42  DC42       -0.2556
    835  C2         1.1120   10.6980   15.3740 C.ar   42  DC42        0.3531
    836  O2         0.4990   10.1610   16.3130 O.2    42  DC42       -0.2443
    837  N3         2.3880   10.3670   15.0650 N.ar   42  DC42       -0.1739
    838  C4         3.0060   10.9710   14.0500 C.ar   42  DC42        0.1759
    839  N4         4.2640   10.6120   13.7820 N.pl3  42  DC42       -0.1070
    840  C5         2.3620   11.9650   13.2690 C.ar   42  DC42        0.0566
    841  C6         1.1020   12.2890   13.5780 C.ar   42  DC42        0.0849
    842  P         -0.8000   16.2120   16.7820 P.3    43  DC43        0.2141
    843  OP1       -1.5500   17.4190   17.1870 O.3    43  DC43       -0.4373
    844  OP2        0.5290   16.3590   16.1460 O.2    43  DC43       -0.5172
    845  O5'       -0.5820   15.2380   18.0240 O.3    43  DC43       -0.3114
    846  C5'       -1.6670   14.6840   18.7560 C.3    43  DC43        0.1811
    847  C4'       -1.1160   13.7130   19.7820 C.3    43  DC43        0.1746
    848  O4'       -0.6410   12.5150   19.1210 O.3    43  DC43       -0.3327
    849  C3'        0.1170   14.1880   20.5380 C.3    43  DC43        0.1558
    850  O3'       -0.2480   15.0550   21.6000 O.3    43  DC43       -0.3138
    851  C2'        0.6930   12.8690   21.0240 C.3    43  DC43        0.0866
    852  C1'        0.5360   12.0440   19.7590 C.3    43  DC43        0.2106
    853  N1         1.6950   12.1440   18.8300 N.ar   43  DC43       -0.2556
    854  C2         2.8430   11.3960   19.1170 C.ar   43  DC43        0.3531
    855  O2         2.8500   10.6780   20.1310 O.2    43  DC43       -0.2443
    856  N3         3.9080   11.4780   18.2850 N.ar   43  DC43       -0.1739
    857  C4         3.8560   12.2630   17.2080 C.ar   43  DC43        0.1759
    858  N4         4.9300   12.3110   16.4170 N.pl3  43  DC43       -0.1070
    859  C5         2.7020   13.0290   16.9000 C.ar   43  DC43        0.0566
    860  C6         1.6520   12.9450   17.7240 C.ar   43  DC43        0.0849
    861  P          0.6420   16.2600   21.8490 P.3    44  DG44        0.2141
    862  OP1        0.6640   17.1980   23.0130 O.3    44  DG44       -0.4373
    863  OP2        1.0300   16.7610   20.5010 O.2    44  DG44       -0.5172
    864  O5'        1.5930   15.0300   22.1590 O.3    44  DG44       -0.3114
    865  C5'        1.3760   14.1910   23.2890 C.3    44  DG44        0.1811
    866  C4'        2.6940   13.6490   23.7760 C.3    44  DG44        0.1746
    867  O4'        3.2410   12.7920   22.7350 O.3    44  DG44       -0.3327
    868  C3'        3.7590   14.7190   24.0140 C.3    44  DG44        0.1558
    869  O3'        3.7300   15.2680   25.3400 O.3    44  DG44       -0.3138
    870  C2'        5.0610   13.9810   23.7230 C.3    44  DG44        0.0865
    871  C1'        4.6420   12.9890   22.6330 C.3    44  DG44        0.2094
    872  N9         4.8380   13.5080   21.2060 N.ar   44  DG44       -0.2713
    873  C8         3.9870   14.2110   20.3880 C.ar   44  DG44        0.1816
    874  N7         4.5510   14.6120   19.2820 N.ar   44  DG44       -0.2173
    875  C5         5.8490   14.1460   19.3700 C.ar   44  DG44        0.1748
    876  C6         6.9380   14.2710   18.4690 C.ar   44  DG44        0.3023
    877  O6         6.9620   14.8430   17.3710 O.2    44  DG44       -0.2633
    878  N1         8.0860   13.6480   18.9500 N.ar   44  DG44       -0.1709
    879  C2         8.1750   12.9860   20.1510 C.ar   44  DG44        0.2606
    880  N2         9.3660   12.4480   20.4420 N.pl3  44  DG44       -0.0859
    881  N3         7.1720   12.8620   20.9980 N.ar   44  DG44       -0.1918
    882  C4         6.0470   13.4600   20.5520 C.ar   44  DG44        0.1722
    883  P          4.2230   16.8590   25.6090 P.3    45  DG45        0.2141
    884  OP1        4.0260   17.1760   27.0470 O.3    45  DG45       -0.4373
    885  OP2        3.6850   17.7730   24.5750 O.2    45  DG45       -0.5172
    886  O5'        5.7790   16.6700   25.3290 O.3    45  DG45       -0.3114
    887  C5'        6.5590   15.7790   26.1160 C.3    45  DG45        0.1811
    888  C4'        7.8800   15.5040   25.4410 C.3    45  DG45        0.1746
    889  O4'        7.6840   14.9170   24.1270 O.3    45  DG45       -0.3327
    890  C3'        8.7430   16.7090   25.1290 C.3    45  DG45        0.1558
    891  O3'        9.3550   17.2180   26.3000 O.3    45  DG45       -0.3138
    892  C2'        9.7340   16.1080   24.1390 C.3    45  DG45        0.0865
    893  C1'        8.7990   15.2390   23.2960 C.3    45  DG45        0.2094
    894  N9         8.3050   15.9710   22.0570 N.ar   45  DG45       -0.2713
    895  C8         7.0120   16.3410   21.7760 C.ar   45  DG45        0.1816
    896  N7         6.8830   16.9270   20.6170 N.ar   45  DG45       -0.2173
    897  C5         8.1640   16.9460   20.0980 C.ar   45  DG45        0.1748
    898  C6         8.6550   17.4560   18.8680 C.ar   45  DG45        0.3023
    899  O6         8.0210   18.0120   17.9630 O.2    45  DG45       -0.2633
    900  N1        10.0280   17.2700   18.7390 N.ar   45  DG45       -0.1709
    901  C2        10.8310   16.6670   19.6780 C.ar   45  DG45        0.2606
    902  N2        12.1320   16.5780   19.3730 N.pl3  45  DG45       -0.0859
    903  N3        10.3900   16.1890   20.8250 N.ar   45  DG45       -0.1918
    904  C4         9.0580   16.3590   20.9730 C.ar   45  DG45        0.1722
    905  P          9.0780   18.3870   26.5020 P.3    46  DA46        0.2141
    906  OP1        8.6120   18.4330   27.9060 O.3    46  DA46       -0.4373
    907  OP2        8.5100   19.3380   25.5180 O.2    46  DA46       -0.5172
    908  O5'       10.6740   18.5150   26.5300 O.3    46  DA46       -0.3114
    909  C5'       11.3280   19.7550   26.2680 C.3    46  DA46        0.1811
    910  C4'       12.2750   19.6310   25.0860 C.3    46  DA46        0.1746
    911  O4'       11.6970   18.8270   24.0200 O.3    46  DA46       -0.3327
    912  C3'       12.6080   20.9450   24.3960 C.3    46  DA46        0.1558
    913  O3'       13.5410   21.7180   25.1600 O.3    46  DA46       -0.3138
    914  C2'       13.1590   20.4200   23.0740 C.3    46  DA46        0.0865
    915  C1'       12.1530   19.3110   22.7650 C.3    46  DA46        0.2094
    916  N9        11.0180   19.7580   21.9060 N.ar   46  DA46       -0.2714
    917  C8         9.6980   19.6840   22.2670 C.ar   46  DA46        0.1815
    918  N7         8.8660   19.9360   21.2850 N.ar   46  DA46       -0.2193
    919  C5         9.6960   20.1940   20.2050 C.ar   46  DA46        0.1518
    920  C6         9.4300   20.5270   18.8660 C.ar   46  DA46        0.1919
    921  N6         8.1980   20.6620   18.3680 N.pl3  46  DA46       -0.1054
    922  N1        10.4850   20.7190   18.0460 N.ar   46  DA46       -0.2040
    923  C2        11.7190   20.5830   18.5450 C.ar   46  DA46        0.2016
    924  N3        12.0950   20.2730   19.7840 N.ar   46  DA46       -0.2048
    925  C4        11.0240   20.0890   20.5730 C.ar   46  DA46        0.1691
    926  P         13.3780   23.3650   25.3460 P.3    47  DA47        0.2141
    927  OP1       14.2670   24.2040   26.1800 O.3    47  DA47       -0.4373
    928  OP2       11.9530   23.7130   25.1290 O.2    47  DA47       -0.5172
    929  O5'       13.9860   23.2570   23.8680 O.3    47  DA47       -0.3114
    930  C5'       15.3870   23.1620   23.6460 C.3    47  DA47        0.1811
    931  C4'       15.7190   23.1980   22.1730 C.3    47  DA47        0.1746
    932  O4'       14.9180   22.2010   21.4840 O.3    47  DA47       -0.3327
    933  C3'       15.4120   24.4990   21.4340 C.3    47  DA47        0.1558
    934  O3'       16.4160   25.4950   21.5600 O.3    47  DA47       -0.3138
    935  C2'       15.2130   24.0280   19.9990 C.3    47  DA47        0.0865
    936  C1'       14.5040   22.6920   20.2250 C.3    47  DA47        0.2094
    937  N9        13.0380   22.8710   20.3170 N.ar   47  DA47       -0.2714
    938  C8        12.3020   23.0040   21.4650 C.ar   47  DA47        0.1815
    939  N7        11.0270   23.2270   21.2530 N.ar   47  DA47       -0.2193
    940  C5        10.9180   23.2430   19.8720 C.ar   47  DA47        0.1518
    941  C6         9.8230   23.4330   19.0110 C.ar   47  DA47        0.1919
    942  N6         8.5770   23.6510   19.4380 N.pl3  47  DA47       -0.1054
    943  N1        10.0550   23.3910   17.6820 N.ar   47  DA47       -0.2040
    944  C2        11.3040   23.1710   17.2550 C.ar   47  DA47        0.2016
    945  N3        12.4130   22.9770   17.9650 N.ar   47  DA47       -0.2048
    946  C4        12.1490   23.0270   19.2810 C.ar   47  DA47        0.1691
    947  P         16.0720   26.9890   21.2950 P.3    48  DA48        0.2141
    948  OP1       17.3300   27.7670   21.4160 O.2    48  DA48       -0.5172
    949  OP2       14.8440   27.4480   22.0070 O.3    48  DA48       -0.4373
    950  O5'       15.7200   26.8090   19.7530 O.3    48  DA48       -0.3114
    951  C5'       16.7480   26.5380   18.7840 C.3    48  DA48        0.1811
    952  C4'       16.1910   26.6890   17.3890 C.3    48  DA48        0.1746
    953  O4'       15.1310   25.7210   17.2150 O.3    48  DA48       -0.3327
    954  C3'       15.5610   28.0410   17.0770 C.3    48  DA48        0.1558
    955  O3'       16.5500   28.9320   16.5510 O.3    48  DA48       -0.3138
    956  C2'       14.5160   27.6910   16.0240 C.3    48  DA48        0.0865
    957  C1'       14.0800   26.2900   16.4630 C.3    48  DA48        0.2094
    958  N9        12.8900   26.2360   17.2450 N.ar   48  DA48       -0.2714
    959  C8        12.7750   26.4640   18.5910 C.ar   48  DA48        0.1815
    960  N7        11.5400   26.6480   18.9930 N.ar   48  DA48       -0.2193
    961  C5        10.7930   26.5350   17.8310 C.ar   48  DA48        0.1518
    962  C6         9.4130   26.6280   17.5800 C.ar   48  DA48        0.1919
    963  N6         8.5040   26.8670   18.5290 N.pl3  48  DA48       -0.1054
    964  N1         8.9940   26.4660   16.3070 N.ar   48  DA48       -0.2040
    965  C2         9.9060   26.2260   15.3570 C.ar   48  DA48        0.2016
    966  N3        11.2280   26.1150   15.4690 N.ar   48  DA48       -0.2048
    967  C4        11.6110   26.2820   16.7460 C.ar   48  DA48        0.1691
    968  P         16.5740   30.6530   17.0640 P.3    49  DT49        0.2141
    969  OP1       17.8020   31.4500   16.9870 O.2    49  DT49       -0.5172
    970  OP2       15.4640   31.0310   18.0200 O.3    49  DT49       -0.4373
    971  O5'       15.9230   30.6260   15.6030 O.3    49  DT49       -0.3114
    972  C5'       15.8680   31.8090   14.8030 C.3    49  DT49        0.1811
    973  C4'       14.8440   31.6240   13.7180 C.3    49  DT49        0.1746
    974  O4'       14.0950   30.4900   14.1820 O.3    49  DT49       -0.3327
    975  C3'       13.7020   32.5920   13.5610 C.3    49  DT49        0.1558
    976  O3'       14.0430   33.7670   12.7830 O.3    49  DT49       -0.3138
    977  C2'       12.7090   31.6960   12.8360 C.3    49  DT49        0.0866
    978  C1'       12.7660   30.4790   13.6980 C.3    49  DT49        0.2106
    979  N1        11.8670   30.4700   14.8170 N.ar   49  DT49       -0.2559
    980  C2        10.4890   30.4380   14.7140 C.ar   49  DT49        0.3545
    981  O2         9.8970   30.5970   13.6610 O.2    49  DT49       -0.2443
    982  N3         9.8240   30.2130   15.8950 N.ar   49  DT49       -0.1533
    983  C4        10.3850   30.0210   17.1400 C.ar   49  DT49        0.2804
    984  O4         9.6560   29.8280   18.1100 O.2    49  DT49       -0.2654
    985  C5        11.8200   30.0690   17.1640 C.ar   49  DT49        0.0534
    986  C6        12.4920   30.2870   16.0310 C.ar   49  DT49        0.0824
    987  C7        12.5260   29.8720   18.4730 C.3    49  DT49        0.0377
    988  P         13.2670   35.1450   13.2800 P.3    50  DA50        0.2141
    989  OP1       14.2810   36.0310   12.6630 O.2    50  DA50       -0.5172
    990  OP2       12.7990   35.4400   14.6570 O.3    50  DA50       -0.4373
    991  O5'       11.9980   35.0430   12.3070 O.3    50  DA50       -0.3114
    992  C5'       11.1540   36.1620   12.1610 C.3    50  DA50        0.1811
    993  C4'        9.7830   35.7810   11.6410 C.3    50  DA50        0.1746
    994  O4'        9.3760   34.4490   12.0490 O.3    50  DA50       -0.3327
    995  C3'        8.7080   36.6800   12.2140 C.3    50  DA50        0.1558
    996  O3'        8.6980   37.8890   11.5000 O.3    50  DA50       -0.3138
    997  C2'        7.4600   35.8340   12.0120 C.3    50  DA50        0.0865
    998  C1'        8.0090   34.4780   12.4440 C.3    50  DA50        0.2094
    999  N9         7.9280   34.2430   14.0350 N.ar   50  DA50       -0.2714
   1000  C8         8.9640   34.1470   14.9270 C.ar   50  DA50        0.1815
   1001  N7         8.6090   33.6810   16.1010 N.ar   50  DA50       -0.2193
   1002  C5         7.2480   33.4570   15.9710 C.ar   50  DA50        0.1518
   1003  C6         6.2810   32.9650   16.8650 C.ar   50  DA50        0.1919
   1004  N6         6.5530   32.5940   18.1190 N.pl3  50  DA50       -0.1054
   1005  N1         5.0100   32.8660   16.4210 N.ar   50  DA50       -0.2040
   1006  C2         4.7380   33.2370   15.1650 C.ar   50  DA50        0.2016
   1007  N3         5.5590   33.7130   14.2320 N.ar   50  DA50       -0.2048
   1008  C4         6.8140   33.8000   14.7050 C.ar   50  DA50        0.1691
   1009  P          9.0460   39.1290   12.2940 P.3    51  DA51        0.2141
   1010  OP1        9.3350   40.4310   11.6600 O.2    51  DA51       -0.5172
   1011  OP2        9.9910   38.5750   13.2900 O.3    51  DA51       -0.4373
   1012  O5'        7.5950   39.1960   12.9640 O.3    51  DA51       -0.3114
   1013  C5'        6.4790   39.6950   12.2200 C.3    51  DA51        0.1811
   1014  C4'        5.1920   39.5640   13.0160 C.3    51  DA51        0.1746
   1015  O4'        4.9050   38.1680   13.2730 O.3    51  DA51       -0.3327
   1016  C3'        5.2310   40.2100   14.3860 C.3    51  DA51        0.1558
   1017  O3'        4.8760   41.5560   14.2820 O.3    51  DA51       -0.3138
   1018  C2'        4.2130   39.4100   15.1850 C.3    51  DA51        0.0865
   1019  C1'        4.3820   38.0150   14.5800 C.3    51  DA51        0.2094
   1020  N9         5.3570   37.2400   15.3690 N.ar   51  DA51       -0.2714
   1021  C8         6.7050   37.0510   15.2100 C.ar   51  DA51        0.1815
   1022  N7         7.2510   36.3150   16.1490 N.ar   51  DA51       -0.2193
   1023  C5         6.1890   36.0000   16.9820 C.ar   51  DA51        0.1518
   1024  C6         6.1060   35.2410   18.1630 C.ar   51  DA51        0.1919
   1025  N6         7.1540   34.6380   18.7290 N.pl3  51  DA51       -0.1054
   1026  N1         4.8950   35.1230   18.7480 N.ar   51  DA51       -0.2040
   1027  C2         3.8450   35.7260   18.1790 C.ar   51  DA51        0.2016
   1028  N3         3.7980   36.4630   17.0720 N.ar   51  DA51       -0.2048
   1029  C4         5.0170   36.5630   16.5150 C.ar   51  DA51        0.1691
   1030  P          5.8200   42.2380   14.7770 P.3    52  DG52        0.2141
   1031  OP1        5.1730   42.8630   13.6050 O.2    52  DG52       -0.5172
   1032  OP2        7.2820   42.3640   14.9430 O.3    52  DG52       -0.4373
   1033  O5'        5.2560   42.7730   16.1800 O.3    52  DG52       -0.3114
   1034  C5'        3.9410   43.2680   16.3410 C.3    52  DG52        0.1811
   1035  C4'        3.1980   42.5030   17.4320 C.3    52  DG52        0.1746
   1036  O4'        3.4170   41.0740   17.3090 O.3    52  DG52       -0.3327
   1037  C3'        3.4860   42.7280   18.9150 C.3    52  DG52        0.1558
   1038  O3'        2.9540   43.9620   19.3840 O.3    52  DG52       -0.3138
   1039  C2'        2.6710   41.5790   19.4950 C.3    52  DG52        0.0865
   1040  C1'        3.0330   40.4500   18.5240 C.3    52  DG52        0.2093
   1041  N9         4.1220   39.6730   18.9540 N.ar   52  DG52       -0.2736
   1042  C8         5.3660   39.7070   18.3720 C.ar   52  DG52        0.1814
   1043  N7         6.2020   38.8500   18.8930 N.ar   52  DG52       -0.2178
   1044  C5         5.4690   38.2100   19.8750 C.ar   52  DG52        0.1693
   1045  C6         5.8380   37.1810   20.7790 C.2    52  DG52        0.2890
   1046  O6         6.9330   36.6140   20.8890 O.2    52  DG52       -0.2665
   1047  N1         4.7850   36.8190   21.6150 N.am   52  DG52       -0.1496
   1048  C2         3.5300   37.3790   21.5820 C.3    52  DG52        0.3212
   1049  N2         2.6460   36.8980   22.4660 N.3    52  DG52       -0.0658
   1050  N3         3.1730   38.3360   20.7490 N.pl3  52  DG52       -0.1685
   1051  C4         4.1800   38.7040   19.9280 C.ar   52  DG52        0.1580
   1052  P          3.4750   44.6290   20.7750 P.3    53  DA53        0.2141
   1053  OP1        2.7090   45.8840   20.4670 O.2    53  DA53       -0.5172
   1054  OP2        4.9640   44.6190   20.6330 O.3    53  DA53       -0.4373
   1055  O5'        3.1720   44.2920   22.2970 O.3    53  DA53       -0.3114
   1056  C5'        1.8420   44.2740   22.7700 C.3    53  DA53        0.1811
   1057  C4'        1.7010   43.2790   23.8820 C.3    53  DA53        0.1746
   1058  O4'        2.0730   41.9530   23.3980 O.3    53  DA53       -0.3327
   1059  C3'        2.6080   43.4560   25.0810 C.3    53  DA53        0.1558
   1060  O3'        2.2460   44.5560   25.8990 O.3    53  DA53       -0.3138
   1061  C2'        2.5380   42.0720   25.7120 C.3    53  DA53        0.0865
   1062  C1'        2.6180   41.1900   24.4710 C.3    53  DA53        0.2094
   1063  N9         4.0210   40.9450   24.1790 N.ar   53  DA53       -0.2714
   1064  C8         4.7650   41.5900   23.2250 C.ar   53  DA53        0.1815
   1065  N7         5.9670   41.0910   23.0650 N.ar   53  DA53       -0.2193
   1066  C5         6.0170   40.0470   23.9750 C.ar   53  DA53        0.1518
   1067  C6         7.0240   39.1200   24.2970 C.ar   53  DA53        0.1919
   1068  N6         8.2220   39.0960   23.7090 N.pl3  53  DA53       -0.1054
   1069  N1         6.7520   38.2080   25.2550 N.ar   53  DA53       -0.2040
   1070  C2         5.5510   38.2310   25.8420 C.ar   53  DA53        0.2016
   1071  N3         4.5250   39.0510   25.6250 N.ar   53  DA53       -0.2048
   1072  C4         4.8270   39.9460   24.6700 C.ar   53  DA53        0.1691
   1073  P          3.1970   45.6520   26.0850 P.3    54  DG54        0.2141
   1074  OP1        2.5770   46.6200   27.0200 O.3    54  DG54       -0.4373
   1075  OP2        4.0100   46.1390   24.9410 O.2    54  DG54       -0.5172
   1076  O5'        4.0670   44.6100   26.9400 O.3    54  DG54       -0.3114
   1077  C5'        3.5610   44.1920   28.1900 C.3    54  DG54        0.1811
   1078  C4'        4.2690   42.9570   28.7070 C.3    54  DG54        0.1746
   1079  O4'        4.5260   42.0330   27.6240 O.3    54  DG54       -0.3327
   1080  C3'        5.6460   43.2050   29.2820 C.3    54  DG54        0.1558
   1081  O3'        5.5250   43.6900   30.5970 O.3    54  DG54       -0.3138
   1082  C2'        6.1960   41.7880   29.2710 C.3    54  DG54        0.0865
   1083  C1'        5.7030   41.3050   27.9140 C.3    54  DG54        0.2094
   1084  N9         6.6480   41.5270   26.8230 N.ar   54  DG54       -0.2713
   1085  C8         6.6290   42.5130   25.8670 C.ar   54  DG54        0.1816
   1086  N7         7.6830   42.5030   25.0970 N.ar   54  DG54       -0.2173
   1087  C5         8.4430   41.4490   25.5680 C.ar   54  DG54        0.1748
   1088  C6         9.6970   40.9480   25.1340 C.ar   54  DG54        0.3023
   1089  O6        10.4070   41.3590   24.2070 O.2    54  DG54       -0.2633
   1090  N1        10.1150   39.8590   25.8940 N.ar   54  DG54       -0.1709
   1091  C2         9.4100   39.3190   26.9430 C.ar   54  DG54        0.2606
   1092  N2         9.9740   38.2690   27.5550 N.pl3  54  DG54       -0.0859
   1093  N3         8.2450   39.7740   27.3590 N.ar   54  DG54       -0.1918
   1094  C4         7.8200   40.8320   26.6360 C.ar   54  DG54        0.1722
   1095  P          6.5980   44.7490   31.0890 P.3    55  DT55        0.2141
   1096  OP1        6.4640   45.6670   32.2430 O.3    55  DT55       -0.4373
   1097  OP2        6.5220   45.2710   29.7050 O.2    55  DT55       -0.5172
   1098  O5'        8.0210   44.0130   31.1580 O.3    55  DT55       -0.3114
   1099  C5'        8.3910   43.2580   32.3040 C.3    55  DT55        0.1811
   1100  C4'        9.0930   41.9720   31.9370 C.3    55  DT55        0.1744
   1101  O4'        8.8030   41.6200   30.5550 O.3    55  DT55       -0.3348
   1102  C3'       10.6160   41.9790   31.9830 C.3    55  DT55        0.1555
   1103  O3'       11.1510   41.8860   33.2930 O.3    55  DT55       -0.3139
   1104  C2'       10.9520   40.7810   31.1020 C.3    55  DT55        0.0836
   1105  C1'        9.9000   40.9160   30.0010 C.3    55  DT55        0.1981
   1106  N1        10.6140   41.5240   28.8440 N.am   55  DT55       -0.2374
   1107  C2        11.5070   40.8030   28.0740 C.2    55  DT55        0.3172
   1108  O2        11.9840   39.7400   28.4310 O.2    55  DT55       -0.2518
   1109  N3        11.8250   41.3730   26.8660 N.am   55  DT55       -0.1764
   1110  C4        11.3510   42.5660   26.3610 C.2    55  DT55        0.2517
   1111  O4        11.7280   42.9480   25.2560 O.2    55  DT55       -0.2689
   1112  C5        10.4290   43.2560   27.2190 C.2    55  DT55        0.0300
   1113  C6        10.1020   42.7230   28.4000 C.3    55  DT55        0.1242
   1114  C7         9.8570   44.5640   26.7590 C.3    55  DT55        0.0329
   1115  P         12.6880   41.8890   33.3540 P.3    56  DG56        0.2141
   1116  OP1       12.5630   41.8370   34.8290 O.3    56  DG56       -0.4373
   1117  OP2       12.5200   43.1710   32.6360 O.2    56  DG56       -0.5172
   1118  O5'       14.1170   41.3630   32.8440 O.3    56  DG56       -0.3114
   1119  C5'       14.6140   40.0760   33.1800 C.3    56  DG56        0.1811
   1120  C4'       14.4430   39.0800   32.0550 C.3    56  DG56        0.1767
   1121  O4'       13.3590   39.4830   31.1840 O.3    56  DG56       -0.3153
   1122  C3'       15.6180   38.8650   31.1100 C.3    56  DG56        0.1603
   1123  O3'       16.5810   37.9870   31.6720 O.3    56  DG56       -0.3137
   1124  C2'       14.9420   38.2900   29.8720 C.3    56  DG56        0.1336
   1125  C1'       13.5920   39.0030   29.8780 C.3    56  DG56        0.2934
   1126  N9        13.7700   40.1060   28.9700 N.pl3  56  DG56       -0.1281
   1127  C8        13.6490   41.3940   29.4300 C.2    56  DG56        0.2814
   1128  N7        13.5320   42.2740   28.4740 N.2    56  DG56       -0.1943
   1129  C5        13.5770   41.5260   27.3120 C.3    56  DG56        0.3390
   1130  C6        13.5000   41.9250   25.9530 C.2    56  DG56        0.3660
   1131  O6        13.3710   43.0680   25.4970 O.2    56  DG56       -0.2517
   1132  N1        13.5880   40.8400   25.0850 N.2    56  DG56       -0.2717
   1133  C2        13.7320   39.5310   25.4790 C.1    56  DG56        0.3176
   1134  N2        13.7980   38.6230   24.4960 N.2    56  DG56       -0.0557
   1135  N3        13.8050   39.1450   26.7370 N.2    56  DG56        0.0477
   1136  C4        13.7230   40.1820   27.5970 C.2    56  DG56        0.3691
   1137  P         18.0520   37.6340   31.0580 P.3    57  DG57        0.2140
   1138  OP1       17.6780   36.8980   32.2960 O.3    57  DG57       -0.4373
   1139  OP2       19.4380   37.5690   30.5660 O.2    57  DG57       -0.5172
   1140  O5'       17.0790   37.1670   29.8830 O.3    57  DG57       -0.3137
   1141  C5'       15.6650   36.9650   30.1110 C.3    57  DG57        0.1603
   1142  C4'       15.0250   36.3590   28.8810 C.3    57  DG57        0.1752
   1143  O4'       14.8520   37.3820   27.8590 O.3    57  DG57       -0.3327
   1144  C3'       15.8480   35.2480   28.2270 C.3    57  DG57        0.1863
   1145  O3'       15.0040   34.3080   27.5750 O.3    57  DG57       -0.2133
   1146  C2'       16.6140   36.0140   27.1600 C.3    57  DG57        0.0894
   1147  C1'       15.5400   36.9900   26.6890 C.3    57  DG57        0.2095
   1148  N9        16.0430   38.3040   26.0820 N.ar   57  DG57       -0.2713
   1149  C8        17.0160   39.1420   26.5720 C.ar   57  DG57        0.1816
   1150  N7        17.3880   40.0550   25.7170 N.ar   57  DG57       -0.2173
   1151  C5        16.6160   39.8100   24.5960 C.ar   57  DG57        0.1748
   1152  C6        16.5740   40.4720   23.3420 C.ar   57  DG57        0.3023
   1153  O6        17.2390   41.4460   22.9670 O.2    57  DG57       -0.2633
   1154  N1        15.6440   39.8960   22.4810 N.ar   57  DG57       -0.1709
   1155  C2        14.8530   38.8160   22.7890 C.ar   57  DG57        0.2624
   1156  N2        14.0150   38.4030   21.8290 N.pl3  57  DG57       -0.0858
   1157  N3        14.8820   38.1900   23.9490 N.ar   57  DG57       -0.1676
   1158  C4        15.7780   38.7310   24.8020 C.ar   57  DG57        0.1745
   1159  P         14.2190   32.8310   28.3210 P.3    58  DT58        0.3939
   1160  OP1       14.5040   31.4650   28.7950 O.3    58  DT58       -0.1425
   1161  OP2       14.2730   33.1180   26.8740 O.3    58  DT58       -0.1496
   1162  O5'       12.7710   33.2360   28.8260 O.3    58  DT58       -0.2926
   1163  C5'       12.2870   32.8050   30.0660 C.3    58  DT58        0.1828
   1164  C4'       10.8970   33.3770   30.2440 C.3    58  DT58        0.1747
   1165  O4'       10.9210   34.7990   29.9360 O.3    58  DT58       -0.3327
   1166  C3'        9.8450   32.8020   29.3070 C.3    58  DT58        0.1558
   1167  O3'        9.3160   31.6040   29.8420 O.3    58  DT58       -0.3138
   1168  C2'        8.8000   33.9080   29.3860 C.3    58  DT58        0.0866
   1169  C1'        9.6690   35.1660   29.3870 C.3    58  DT58        0.2106
   1170  N1         9.8740   35.7550   28.0680 N.ar   58  DT58       -0.2559
   1171  C2         8.8300   36.4370   27.4730 C.ar   58  DT58        0.3545
   1172  O2         7.7070   36.4770   27.9450 O.2    58  DT58       -0.2443
   1173  N3         9.1460   37.0730   26.2970 N.ar   58  DT58       -0.1533
   1174  C4        10.3750   37.0950   25.6710 C.ar   58  DT58        0.2804
   1175  O4        10.5060   37.7120   24.6170 O.2    58  DT58       -0.2654
   1176  C5        11.4070   36.3640   26.3500 C.ar   58  DT58        0.0534
   1177  C6        11.1270   35.7360   27.4950 C.ar   58  DT58        0.0824
   1178  C7        12.7800   36.3280   25.7470 C.3    58  DT58        0.0377
   1179  P          8.8110   30.3300   28.8900 P.3    59  DG59        0.2141
   1180  OP1        8.5380   29.1030   29.6690 O.3    59  DG59       -0.4373
   1181  OP2        9.8550   30.3240   27.8410 O.2    59  DG59       -0.5172
   1182  O5'        7.4260   30.8240   28.2500 O.3    59  DG59       -0.3114
   1183  C5'        6.2150   30.6840   28.9850 C.3    59  DG59        0.1811
   1184  C4'        5.1550   31.6580   28.5010 C.3    59  DG59        0.1746
   1185  O4'        5.7740   32.9440   28.2650 O.3    59  DG59       -0.3327
   1186  C3'        4.4910   31.3330   27.1710 C.3    59  DG59        0.1558
   1187  O3'        3.4290   30.4010   27.3280 O.3    59  DG59       -0.3138
   1188  C2'        3.9470   32.7030   26.7870 C.3    59  DG59        0.0865
   1189  C1'        5.0960   33.6060   27.2180 C.3    59  DG59        0.2094
   1190  N9         5.9980   33.8460   26.1610 N.ar   59  DG59       -0.2713
   1191  C8         7.2760   33.3420   26.1370 C.ar   59  DG59        0.1816
   1192  N7         7.9780   33.7640   25.1200 N.ar   59  DG59       -0.2173
   1193  C5         7.1160   34.5960   24.4310 C.ar   59  DG59        0.1748
   1194  C6         7.3100   35.3440   23.2400 C.ar   59  DG59        0.3023
   1195  O6         8.3260   35.4160   22.5380 O.2    59  DG59       -0.2633
   1196  N1         6.1700   36.0580   22.8830 N.ar   59  DG59       -0.1723
   1197  C2         4.9880   36.0530   23.5860 C.ar   59  DG59        0.2429
   1198  N2         4.0000   36.8060   23.0850 N.pl3  59  DG59       -0.1516
   1199  N3         4.7930   35.3630   24.6920 N.ar   59  DG59       -0.1932
   1200  C4         5.8870   34.6610   25.0580 C.ar   59  DG59        0.1722
   1201  P          2.9830   29.8090   26.1940 P.3    60  DT60        0.2141
   1202  OP1        1.8560   28.8670   26.3530 O.3    60  DT60       -0.4373
   1203  OP2        4.0580   29.4830   25.2320 O.2    60  DT60       -0.5172
   1204  O5'        2.3930   31.2190   25.7080 O.3    60  DT60       -0.3114
   1205  C5'        0.9840   31.4500   25.8010 C.3    60  DT60        0.1811
   1206  C4'        0.3400   32.2340   24.6640 C.3    60  DT60        0.1746
   1207  O4'        1.1840   33.3570   24.2680 O.3    60  DT60       -0.3327
   1208  C3'        0.0550   31.4660   23.3750 C.3    60  DT60        0.1558
   1209  O3'       -1.2870   31.0250   23.2330 O.3    60  DT60       -0.3138
   1210  C2'        0.3540   32.4480   22.2450 C.3    60  DT60        0.0866
   1211  C1'        1.2670   33.4900   22.8620 C.3    60  DT60        0.2106
   1212  N1         2.5450   33.1080   22.3350 N.ar   60  DT60       -0.2559
   1213  C2         2.8690   33.6180   21.0920 C.ar   60  DT60        0.3545
   1214  O2         2.1240   34.3420   20.4560 O.2    60  DT60       -0.2443
   1215  N3         4.1030   33.2460   20.6150 N.ar   60  DT60       -0.1533
   1216  C4         5.0240   32.4340   21.2420 C.ar   60  DT60        0.2804
   1217  O4         6.0930   32.1910   20.6870 O.2    60  DT60       -0.2654
   1218  C5         4.6140   31.9440   22.5280 C.ar   60  DT60        0.0534
   1219  C6         3.4200   32.2900   23.0150 C.ar   60  DT60        0.0824
   1220  C7         5.5480   31.0510   23.2900 C.3    60  DT60        0.0377
   1221  P         -1.2660   29.7350   22.4250 P.3    61  DT61        0.2141
   1222  OP1       -2.2990   28.7920   22.9300 O.3    61  DT61       -0.4373
   1223  OP2        0.1620   29.5270   22.7880 O.2    61  DT61       -0.5172
   1224  O5'       -1.3600   29.7830   20.8320 O.3    61  DT61       -0.3114
   1225  C5'       -2.5610   30.2290   20.1760 C.3    61  DT61        0.1811
   1226  C4'       -2.2320   30.9140   18.8670 C.3    61  DT61        0.1746
   1227  O4'       -1.1470   31.8560   19.0820 O.3    61  DT61       -0.3327
   1228  C3'       -1.7180   30.0610   17.7150 C.3    61  DT61        0.1558
   1229  O3'       -2.7840   29.4040   17.0300 O.3    61  DT61       -0.3138
   1230  C2'       -1.0730   31.1190   16.8270 C.3    61  DT61        0.0866
   1231  C1'       -0.4380   32.0390   17.8680 C.3    61  DT61        0.2106
   1232  N1         0.9340   31.6790   18.0990 N.ar   61  DT61       -0.2559
   1233  C2         1.9240   32.2190   17.2990 C.ar   61  DT61        0.3545
   1234  O2         1.6860   32.8770   16.3020 O.2    61  DT61       -0.2443
   1235  N3         3.2090   31.9580   17.7090 N.ar   61  DT61       -0.1533
   1236  C4         3.5960   31.2280   18.8140 C.ar   61  DT61        0.2804
   1237  O4         4.7920   31.0810   19.0540 O.2    61  DT61       -0.2654
   1238  C5         2.5110   30.7000   19.5930 C.ar   61  DT61        0.0534
   1239  C6         1.2520   30.9380   19.2170 C.ar   61  DT61        0.0824
   1240  C7         2.8290   29.8910   20.8150 C.3    61  DT61        0.0377
   1241  P         -2.4620   28.1740   15.9320 P.3    62  DG62        0.2141
   1242  OP1       -3.5340   27.6150   15.0800 O.2    62  DG62       -0.5172
   1243  OP2       -1.7300   27.3150   16.8900 O.3    62  DG62       -0.4373
   1244  O5'       -1.3170   28.7710   14.9850 O.3    62  DG62       -0.3114
   1245  C5'       -1.7010   29.3120   13.7300 C.3    62  DG62        0.1811
   1246  C4'       -0.5440   29.9390   12.9930 C.3    62  DG62        0.1746
   1247  O4'        0.2140   30.7890   13.8860 O.3    62  DG62       -0.3327
   1248  C3'        0.4940   28.9850   12.4240 C.3    62  DG62        0.1558
   1249  O3'        0.0880   28.4450   11.1800 O.3    62  DG62       -0.3138
   1250  C2'        1.7290   29.8640   12.2930 C.3    62  DG62        0.0865
   1251  C1'        1.5600   30.8280   13.4650 C.3    62  DG62        0.2094
   1252  N9         2.4120   30.6080   14.4370 N.ar   62  DG62       -0.2713
   1253  C8         2.2030   29.9830   15.6430 C.ar   62  DG62        0.1816
   1254  N7         3.3090   29.6570   16.2540 N.ar   62  DG62       -0.2173
   1255  C5         4.3100   30.0910   15.4050 C.ar   62  DG62        0.1748
   1256  C6         5.7220   30.0150   15.5280 C.ar   62  DG62        0.3023
   1257  O6         6.3850   29.5280   16.4510 O.2    62  DG62       -0.2633
   1258  N1         6.3700   30.5800   14.4330 N.ar   62  DG62       -0.1709
   1259  C2         5.7370   31.1490   13.3540 C.ar   62  DG62        0.2606
   1260  N2         6.5320   31.6430   12.3950 N.pl3  62  DG62       -0.0859
   1261  N3         4.4270   31.2260   13.2260 N.ar   62  DG62       -0.1918
   1262  C4         3.7770   30.6830   14.2760 C.ar   62  DG62        0.1722
   1263  P          0.2240   27.0140   10.9540 P.3    63  DG63        0.2141
   1264  OP1       -0.5930   26.4400    9.8580 O.2    63  DG63       -0.5172
   1265  OP2        0.3110   26.3670   12.2840 O.3    63  DG63       -0.4373
   1266  O5'        1.7410   27.1510   10.4710 O.3    63  DG63       -0.3114
   1267  C5'        1.9640   27.7440    9.2050 C.3    63  DG63        0.1811
   1268  C4'        3.4070   28.1070    8.9780 C.3    63  DG63        0.1746
   1269  O4'        3.8990   28.9260   10.0680 O.3    63  DG63       -0.3327
   1270  C3'        4.4060   26.9630    8.9470 C.3    63  DG63        0.1558
   1271  O3'        4.3500   26.1800    7.7670 O.3    63  DG63       -0.3138
   1272  C2'        5.7070   27.7330    9.1410 C.3    63  DG63        0.0865
   1273  C1'        5.2690   28.6480   10.2760 C.3    63  DG63        0.2094
   1274  N9         5.3530   27.9910   11.6590 N.ar   63  DG63       -0.2713
   1275  C8         4.2850   27.7710   12.4950 C.ar   63  DG63        0.1816
   1276  N7         4.6400   27.4850   13.7180 N.ar   63  DG63       -0.2173
   1277  C5         6.0210   27.5190   13.6920 C.ar   63  DG63        0.1748
   1278  C6         6.9700   27.2900   14.7210 C.ar   63  DG63        0.3023
   1279  O6         6.7610   27.0000   15.9060 O.2    63  DG63       -0.2633
   1280  N1         8.2780   27.4250   14.2640 N.ar   63  DG63       -0.1709
   1281  C2         8.6280   27.7430   12.9730 C.ar   63  DG63        0.2606
   1282  N2         9.9420   27.8300   12.7220 N.pl3  63  DG63       -0.0859
   1283  N3         7.7580   27.9580   12.0060 N.ar   63  DG63       -0.1918
   1284  C4         6.4820   27.8310   12.4270 C.ar   63  DG63        0.1722
   1285  P          4.1430   24.6590    7.8630 P.3    64  DC64        0.2141
   1286  OP1        3.7960   24.1850    6.4970 O.2    64  DC64       -0.5172
   1287  OP2        3.3750   24.1630    9.0310 O.3    64  DC64       -0.4373
   1288  O5'        5.6780   24.3460    8.1300 O.3    64  DC64       -0.3114
   1289  C5'        6.6440   24.6450    7.1230 C.3    64  DC64        0.1811
   1290  C4'        8.0170   24.7920    7.7270 C.3    64  DC64        0.1746
   1291  O4'        7.9510   25.7190    8.8450 O.3    64  DC64       -0.3327
   1292  C3'        8.6700   23.5590    8.3360 C.3    64  DC64        0.1558
   1293  O3'        9.2560   22.6730    7.3850 O.3    64  DC64       -0.3138
   1294  C2'        9.7260   24.1880    9.2360 C.3    64  DC64        0.0866
   1295  C1'        8.9840   25.4140    9.7680 C.3    64  DC64        0.2106
   1296  N1         8.4320   25.0780   11.0180 N.ar   64  DC64       -0.2556
   1297  C2         9.2340   25.0930   12.1650 C.ar   64  DC64        0.3531
   1298  O2        10.4160   25.4620   12.0630 O.2    64  DC64       -0.2443
   1299  N3         8.7010   24.7040   13.3480 N.ar   64  DC64       -0.1739
   1300  C4         7.4270   24.3150   13.4090 C.ar   64  DC64        0.1759
   1301  N4         6.9450   23.9400   14.5960 N.pl3  64  DC64       -0.1070
   1302  C5         6.5980   24.2930   12.2580 C.ar   64  DC64        0.0566
   1303  C6         7.1280   24.6770   11.0920 C.ar   64  DC64        0.0849
   1304  P          9.6280   21.0510    7.8560 P.3    65  DT65        0.2141
   1305  OP1       10.0360   20.5820    6.5060 O.2    65  DT65       -0.5172
   1306  OP2        8.3840   20.5030    8.4810 O.3    65  DT65       -0.4373
   1307  O5'       10.8410   20.8410    8.8830 O.3    65  DT65       -0.3114
   1308  C5'       12.1540   21.3430    8.5890 C.3    65  DT65        0.1811
   1309  C4'       13.0510   21.3390    9.8230 C.3    65  DT65        0.1746
   1310  O4'       12.4850   22.1920   10.8460 O.3    65  DT65       -0.3327
   1311  C3'       13.3060   20.0290   10.5570 C.3    65  DT65        0.1558
   1312  O3'       14.3020   19.2180    9.9660 O.3    65  DT65       -0.3138
   1313  C2'       13.7450   20.4920   11.9350 C.3    65  DT65        0.0866
   1314  C1'       12.8820   21.7290   12.1240 C.3    65  DT65        0.2106
   1315  N1        11.6810   21.4120   12.9200 N.ar   65  DT65       -0.2559
   1316  C2        11.7600   21.2610   14.2920 C.ar   65  DT65        0.3545
   1317  O2        12.8170   21.2510   14.8990 O.2    65  DT65       -0.2443
   1318  N3        10.5530   21.1200   14.9320 N.ar   65  DT65       -0.1533
   1319  C4         9.3020   21.1140   14.3510 C.ar   65  DT65        0.2804
   1320  O4         8.3070   20.9790   15.0580 O.2    65  DT65       -0.2654
   1321  C5         9.3030   21.2750   12.9240 C.ar   65  DT65        0.0534
   1322  C6        10.4630   21.4140   12.2770 C.ar   65  DT65        0.0824
   1323  C7         7.9900   21.2820   12.1990 C.3    65  DT65        0.0377
   1324  P         14.2780   17.8010   10.2520 P.3    66  DC66        0.2141
   1325  OP1       15.4520   17.3360    9.4730 O.2    66  DC66       -0.5172
   1326  OP2       13.0160   17.0140   10.2210 O.3    66  DC66       -0.4373
   1327  O5'       14.6830   17.9940   11.7800 O.3    66  DC66       -0.3114
   1328  C5'       16.0120   18.4010   12.1560 C.3    66  DC66        0.1811
   1329  C4'       16.2640   18.0610   13.6050 C.3    66  DC66        0.1746
   1330  O4'       15.4490   18.9100   14.4590 O.3    66  DC66       -0.3327
   1331  C3'       15.8390   16.6560   13.9900 C.3    66  DC66        0.1558
   1332  O3'       16.7920   15.6750   13.6300 O.3    66  DC66       -0.3138
   1333  C2'       15.6370   16.7790   15.4880 C.3    66  DC66        0.0866
   1334  C1'       14.9740   18.1540   15.5690 C.3    66  DC66        0.2106
   1335  N1        13.4070   18.1050   15.4070 N.ar   66  DC66       -0.2556
   1336  C2        12.6640   17.7950   16.5520 C.ar   66  DC66        0.3531
   1337  O2        13.2700   17.5320   17.6050 O.2    66  DC66       -0.2443
   1338  N3        11.3120   17.7920   16.4790 N.ar   66  DC66       -0.1739
   1339  C4        10.7050   18.0800   15.3270 C.ar   66  DC66        0.1759
   1340  N4         9.3700   18.0640   15.3030 N.pl3  66  DC66       -0.1070
   1341  C5        11.4400   18.3960   14.1560 C.ar   66  DC66        0.0566
   1342  C6        12.7750   18.3990   14.2320 C.ar   66  DC66        0.0849
   1343  P         16.2110   13.9910   13.1300 P.3    67  DC67        0.2141
   1344  OP1       17.2590   13.1780   12.4730 O.3    67  DC67       -0.4373
   1345  OP2       14.9860   14.3900   12.3980 O.2    67  DC67       -0.5172
   1346  O5'       15.6550   13.2020   14.4110 O.3    67  DC67       -0.3114
   1347  C5'       16.5430   12.4560   15.2290 C.3    67  DC67        0.1811
   1348  C4'       15.9990   12.2430   16.6210 C.3    67  DC67        0.1746
   1349  O4'       15.2940   13.4280   17.0660 O.3    67  DC67       -0.3327
   1350  C3'       14.9830   11.1280   16.8020 C.3    67  DC67        0.1558
   1351  O3'       15.5950    9.8550   16.9030 O.3    67  DC67       -0.3138
   1352  C2'       14.2920   11.5500   18.0880 C.3    67  DC67        0.0866
   1353  C1'       14.2580   13.0650   17.9420 C.3    67  DC67        0.2106
   1354  N1        12.9410   13.5930   17.3060 N.ar   67  DC67       -0.2556
   1355  C2        11.8030   13.6150   18.1210 C.ar   67  DC67        0.3531
   1356  O2        11.9080   13.2500   19.3050 O.2    67  DC67       -0.2443
   1357  N3        10.6250   14.0310   17.5980 N.ar   67  DC67       -0.1739
   1358  C4        10.5590   14.4130   16.3220 C.ar   67  DC67        0.1759
   1359  N4         9.3770   14.8140   15.8500 N.pl3  67  DC67       -0.1070
   1360  C5        11.7010   14.3980   15.4800 C.ar   67  DC67        0.0566
   1361  C6        12.8620   13.9870   16.0000 C.ar   67  DC67        0.0849
   1362  P         14.7260    8.3990   16.8140 P.3    68  DC68        0.2141
   1363  OP1       15.6430    7.2350   16.6540 O.3    68  DC68       -0.4373
   1364  OP2       14.0430    8.9170   15.6160 O.2    68  DC68       -0.5172
   1365  O5'       13.5570    8.0560   17.8610 O.3    68  DC68       -0.3114
   1366  C5'       13.8020    7.5970   19.1850 C.3    68  DC68        0.1811
   1367  C4'       12.5320    7.7360   20.0130 C.3    68  DC68        0.1746
   1368  O4'       12.0290    9.0910   19.8990 O.3    68  DC68       -0.3327
   1369  C3'       11.3140    6.9500   19.5370 C.3    68  DC68        0.1558
   1370  O3'       11.4100    5.5850   19.8130 O.3    68  DC68       -0.3138
   1371  C2'       10.2440    7.6110   20.3760 C.3    68  DC68        0.0866
   1372  C1'       10.6440    9.0880   20.2480 C.3    68  DC68        0.2106
   1373  N1         9.7950    9.7970   19.1760 N.ar   68  DC68       -0.2556
   1374  C2         8.4550   10.0840   19.4620 C.ar   68  DC68        0.3531
   1375  O2         8.0080    9.7940   20.5850 O.2    68  DC68       -0.2443
   1376  N3         7.6880   10.6660   18.5100 N.ar   68  DC68       -0.1739
   1377  C4         8.2100   10.9580   17.3180 C.ar   68  DC68        0.1759
   1378  N4         7.4160   11.5310   16.4110 N.pl3  68  DC68       -0.1070
   1379  C5         9.5650   10.6750   17.0090 C.ar   68  DC68        0.0566
   1380  C6        10.3200   10.1000   17.9520 C.ar   68  DC68        0.0849
   1381  P         10.8960    4.5040   18.7420 P.3    69  DG69        0.2141
   1382  OP1       11.7390    3.5960   19.5580 O.3    69  DG69       -0.4373
   1383  OP2       10.8350    4.5490   17.2520 O.2    69  DG69       -0.5172
   1384  O5'        9.4810    4.0600   19.2390 O.3    69  DG69       -0.3114
   1385  C5'        9.3460    4.1100   20.5880 C.3    69  DG69        0.1811
   1386  C4'        7.9360    4.6010   20.7730 C.3    69  DG69        0.1746
   1387  O4'        7.9430    6.0080   20.4390 O.3    69  DG69       -0.3327
   1388  C3'        6.8910    4.1050   19.8200 C.3    69  DG69        0.1558
   1389  O3'        6.3390    2.8490   20.2120 O.3    69  DG69       -0.3138
   1390  C2'        5.8520    5.1140   20.1800 C.3    69  DG69        0.0865
   1391  C1'        6.6180    6.3730   20.3370 C.3    69  DG69        0.2094
   1392  N9         6.3980    6.9580   18.9870 N.ar   69  DG69       -0.2713
   1393  C8         7.3580    6.8910   18.0070 C.ar   69  DG69        0.1816
   1394  N7         6.9850    7.4350   16.8810 N.ar   69  DG69       -0.2173
   1395  C5         5.7040    7.8910   17.1280 C.ar   69  DG69        0.1748
   1396  C6         4.7850    8.5670   16.2840 C.ar   69  DG69        0.3023
   1397  O6         4.9370    8.9060   15.1040 O.2    69  DG69       -0.2633
   1398  N1         3.5880    8.8480   16.9370 N.ar   69  DG69       -0.1709
   1399  C2         3.3100    8.5190   18.2420 C.ar   69  DG69        0.2606
   1400  N2         2.1010    8.8740   18.6960 N.pl3  69  DG69       -0.0859
   1401  N3         4.1530    7.8910   19.0380 N.ar   69  DG69       -0.1918
   1402  C4         5.3220    7.6070   18.4250 C.ar   69  DG69        0.1722
   1403  P          5.6150    2.0590   19.3310 P.3    70  DT70        0.2141
   1404  OP1        5.9400    0.8420   20.1080 O.3    70  DT70       -0.4373
   1405  OP2        6.4880    2.4690   18.2060 O.2    70  DT70       -0.5172
   1406  O5'        4.1690    1.9050   18.6680 O.3    70  DT70       -0.3114
   1407  C5'        3.0370    1.6580   19.4770 C.3    70  DT70        0.1811
   1408  C4'        1.9920    2.7060   19.2180 C.3    70  DT70        0.1746
   1409  O4'        2.6340    3.9380   18.7990 O.3    70  DT70       -0.3327
   1410  C3'        1.0050    2.4180   18.1000 C.3    70  DT70        0.1558
   1411  O3'       -0.0450    1.5670   18.5280 O.3    70  DT70       -0.3138
   1412  C2'        0.5020    3.8070   17.7460 C.3    70  DT70        0.0866
   1413  C1'        1.7330    4.6820   18.0070 C.3    70  DT70        0.2106
   1414  N1         2.3450    4.9900   16.6670 N.ar   70  DT70       -0.2559
   1415  C2         1.7420    5.9090   15.8300 C.ar   70  DT70        0.3545
   1416  O2         0.6610    6.4180   16.0700 O.2    70  DT70       -0.2443
   1417  N3         2.4510    6.2130   14.6930 N.ar   70  DT70       -0.1533
   1418  C4         3.6760    5.7010   14.3180 C.ar   70  DT70        0.2804
   1419  O4         4.1900    6.0710   13.2650 O.2    70  DT70       -0.2654
   1420  C5         4.2370    4.7520   15.2390 C.ar   70  DT70        0.0534
   1421  C6         3.5680    4.4390   16.3520 C.ar   70  DT70        0.0824
   1422  C7         5.5680    4.1370   14.9200 C.3    70  DT70        0.0377
   1423  P         -1.1090    0.8890   17.3960 P.3    71  DA71        0.2141
   1424  OP1       -1.9060   -0.2120   18.0010 O.3    71  DA71       -0.4373
   1425  OP2        0.1770    0.5720   16.7090 O.2    71  DA71       -0.5172
   1426  O5'       -2.0360    1.7450   16.4280 O.3    71  DA71       -0.3114
   1427  C5'       -3.1870    2.4440   16.9440 C.3    71  DA71        0.1812
   1428  C4'       -3.8000    3.3110   15.8650 C.3    71  DA71        0.1775
   1429  O4'       -2.9290    4.4470   15.5920 O.3    71  DA71       -0.3326
   1430  C3'       -3.9210    2.5820   14.5390 C.3    71  DA71        0.1859
   1431  O3'       -5.0990    1.7850   14.4630 O.3    71  DA71       -0.2203
   1432  C2'       -3.8060    3.7020   13.5070 C.3    71  DA71        0.0894
   1433  C1'       -2.8300    4.6680   14.1920 C.3    71  DA71        0.2095
   1434  N9        -1.4570    4.3950   13.7760 N.ar   71  DA71       -0.2714
   1435  C8        -0.5230    3.5560   14.3260 C.ar   71  DA71        0.1815
   1436  N7         0.5980    3.4930   13.6460 N.ar   71  DA71       -0.2193
   1437  C5         0.3850    4.3480   12.5760 C.ar   71  DA71        0.1518
   1438  C6         1.1950    4.7230   11.4890 C.ar   71  DA71        0.1919
   1439  N6         2.4330    4.2630   11.2970 N.pl3  71  DA71       -0.1054
   1440  N1         0.6810    5.5970   10.5980 N.ar   71  DA71       -0.2040
   1441  C2        -0.5600    6.0580   10.7920 C.ar   71  DA71        0.2016
   1442  N3        -1.4160    5.7810   11.7730 N.ar   71  DA71       -0.2048
   1443  C4        -0.8760    4.9100   12.6420 C.ar   71  DA71        0.1691
   1444  P         -5.1120   -0.0680   12.4120 P.3    72  DT72        0.5411
   1445  OP1       -3.9200    0.3250   13.2100 O.2    72  DT72       -0.2272
   1446  OP2       -6.3510   -0.5130   13.1080 O.2    72  DT72       -0.2272
   1447  O5'       -5.5110    1.1250   11.4320 O.3    72  DT72       -0.2722
   1448  C5'       -5.7610    2.4210   11.9540 C.3    72  DT72        0.1850
   1449  C4'       -5.6930    3.4630   10.8630 C.3    72  DT72        0.1755
   1450  O4'       -6.9400    3.4680   10.1120 O.3    72  DT72       -0.3510
   1451  C3'       -5.5880    4.8700   11.4260 C.3    72  DT72        0.1839
   1452  O3'       -4.2400    5.2060   11.7180 O.3    72  DT72       -0.2204
   1453  C2'       -6.2350    5.7240   10.3450 C.3    72  DT72        0.0676
   1454  C1'       -7.3660    4.8040    9.8830 C.3    72  DT72        0.1450
   1455  N1        -2.5110    3.2770    9.7760 N.2    72  DT72       -0.1608
   1456  C2        -1.5500    3.3230    8.7830 C.1    72  DT72        0.2395
   1457  O2        -1.6790    3.9780    7.7640 O.2    72  DT72       -0.2041
   1458  N3        -0.4270    2.5690    9.0260 N.am   72  DT72       -0.0881
   1459  C4        -0.1740    1.7920   10.1370 C.2    72  DT72        0.2768
   1460  O4         0.8830    1.1710   10.2130 O.2    72  DT72       -0.2676
   1461  C5        -1.2190    1.7960   11.1220 C.2    72  DT72        0.0541
   1462  C6        -2.3220    2.5200   10.9110 C.2    72  DT72        0.1126
   1463  C7        -1.0380    0.9800   12.3680 C.3    72  DT72        0.0376
@<TRIPOS>BOND
     1   327   328    1
     2   327   325    1
     3   341   342    1
     4   341   340    1
     5   328   324    1
     6   328   329    1
     7   326   325    1
     8   326   337    1
     9   342   343    1
    10   342   344    1
    11   324   323    1
    12   323   325    1
    13   323   322    1
    14   343   347    1
    15   338   337    2
    16   340   337    1
    17   331   330    2
    18   337   339    1
    19   345   344    1
    20   345   357    1
    21   329   330   ar
    22   329   336   ar
    23   347   346    1
    24   347   348    1
    25   344   346    1
    26   344   359    1
    27   321   322    1
    28   321   318    1
    29   330   332   ar
    30   336   335   ar
    31   358   357    2
    32   357   359    1
    33   357   360    1
    34   319   318    2
    35   348   355   ar
    36   348   349   ar
    37   332   333   ar
    38   318   320    1
    39   318   306    1
    40   355   354   ar
    41   335   333   ar
    42   350   349    2
    43   361   360    1
    44   361   362    1
    45   333   334    1
    46   349   351   ar
    47   306   305    1
    48   363   362    1
    49   363   367    1
    50   354   356    1
    51   354   352   ar
    52   362   364    1
    53   307   305    1
    54   307   308    1
    55   351   352   ar
    56   305   303    1
    57   367   368    1
    58   367   366    1
    59   352   353    2
    60   369   368   ar
    61   369   370   ar
    62   238   237    2
    63   219   218    2
    64   368   377   ar
    65   364   366    1
    66   364   365    1
    67   370   371   ar
    68   308   309    1
    69   308   304    1
    70   303   304    1
    71   303   302    1
    72   365   378    1
    73   377   371   ar
    74   377   376   ar
    75   237   239    1
    76   237   226    1
    77   237   240    1
    78   316   309   ar
    79   316   315   ar
    80   371   372   ar
    81   309   310   ar
    82   299   298    2
    83   300   298    1
    84   259   257    2
    85   301   302    1
    86   301   298    1
    87   317   315    1
    88   218   221    1
    89   218   220    1
    90   218   207    1
    91   315   313   ar
    92   226   225    1
    93   258   257    1
    94   310   311    2
    95   310   312   ar
    96   379   378    2
    97   222   221    1
    98   222   223    1
    99   376   375   ar
   100   298   287    1
   101   397   395    1
   102   313   312   ar
   103   313   314    2
   104   240   241    1
   105   241   242    1
   106   257   245    1
   107   257   260    1
   108   372   373    1
   109   372   374   ar
   110   378   380    1
   111   378   381    1
   112   207   206    1
   113   223   225    1
   114   223   224    1
   115   295   294    1
   116   375   374   ar
   117   225   227    1
   118   281   279    2
   119   395   396   ar
   120   395   393   ar
   121   245   244    1
   122   396   389   ar
   123   382   381    1
   124   382   383    1
   125   384   383    1
   126   384   388    1
   127   394   393    2
   128   294   296   ar
   129   294   293   ar
   130   393   392   ar
   131   287   286    1
   132   242   244    1
   133   242   243    1
   134   296   297   ar
   135   244   246    1
   136   293   291   ar
   137   200   199    2
   138   260   261    1
   139   389   388    1
   140   389   390   ar
   141   206   204    1
   142   206   208    1
   143   261   262    1
   144   286   288    1
   145   286   284    1
   146   383   385    1
   147   203   204    1
   148   203   202    1
   149   224   228    1
   150   227   228    1
   151   279   282    1
   152   279   280    1
   153   279   265    1
   154   388   387    1
   155   282   283    1
   156   392   390   ar
   157   204   205    1
   158   297   290   ar
   159   288   289    1
   160   256   254    1
   161   291   290   ar
   162   291   292    2
   163   390   391    2
   164   243   247    1
   165   290   289    1
   166   202   199    1
   167   208   209    1
   168   228   229    1
   169   255   254   ar
   170   255   248   ar
   171   199   201    1
   172   199   186    1
   173   417   415    1
   174   246   247    1
   175   236   229   ar
   176   236   235   ar
   177   254   252   ar
   178   414   413    2
   179   289   285    1
   180   270   269   ar
   181   270   271   ar
   182   284   283    1
   183   284   285    1
   184   385   387    1
   185   385   386    1
   186   262   264    1
   187   262   263    1
   188   269   268   ar
   189   265   264    1
   190   247   248    1
   191   229   230   ar
   192   205   209    1
   193   264   266    1
   194   248   249   ar
   195   235   233   ar
   196   186   185    1
   197   415   413   ar
   198   415   416   ar
   199   413   412   ar
   200   209   210    1
   201   263   267    1
   202   273   272    2
   203   252   253    2
   204   252   251   ar
   205   386   398    1
   206   271   272   ar
   207   271   278   ar
   208   268   267    1
   209   268   278   ar
   210   416   409   ar
   211   272   274   ar
   212   230   231    2
   213   230   232   ar
   214   412   410   ar
   215   249   251   ar
   216   249   250    2
   217   233   232   ar
   218   233   234    1
   219   267   266    1
   220   400   398    2
   221   278   277   ar
   222   210   217   ar
   223   210   211   ar
   224   185   187    1
   225   185   183    1
   226   217   216   ar
   227   409   410   ar
   228   409   408    1
   229   410   411    2
   230   434   433    1
   231   398   401    1
   232   398   399    1
   233   187   188    1
   234   212   211    2
   235   274   275   ar
   236   211   213   ar
   237   404   408    1
   238   404   403    1
   239   183   182    1
   240   183   184    1
   241   277   275   ar
   242   401   402    1
   243   179   178    2
   244   408   407    1
   245   182   181    1
   246   275   276    1
   247   216   214   ar
   248   433   432   ar
   249   433   435   ar
   250   432   430   ar
   251   402   403    1
   252   181   178    1
   253   213   214   ar
   254   188   184    1
   255   188   189    1
   256   403   405    1
   257   435   436   ar
   258   214   215    1
   259   178   180    1
   260   178   167    1
   261   430   431    2
   262   430   429   ar
   263   407   405    1
   264   197   196   ar
   265   197   198   ar
   266   405   406    1
   267   453   452    1
   268   436   429   ar
   269   508   507    2
   270   489   488    2
   271   189   198   ar
   272   189   190   ar
   273   429   428    1
   274   196   195   ar
   275   198   192   ar
   276   505   504    1
   277   505   501    1
   278   505   506    1
   279   521   520    1
   280   521   525    1
   281   451   452   ar
   282   451   449   ar
   283   167   166    1
   284   504   502    1
   285   452   454   ar
   286   501   500    1
   287   520   519    1
   288   520   522    1
   289   490   488   ar
   290   490   491   ar
   291   472   471    2
   292   525   524    1
   293   525   526    1
   294   190   191   ar
   295   488   487   ar
   296   450   449    2
   297   507   506   ar
   298   507   509   ar
   299   500   502    1
   300   500   499    1
   301   449   448   ar
   302   519   518    1
   303   420   418    2
   304   428   424    1
   305   428   427    1
   306   195   193   ar
   307   192   191   ar
   308   192   193   ar
   309   524   522    1
   310   470   471   ar
   311   470   468   ar
   312   406   418    1
   313   506   513   ar
   314   424   423    1
   315   454   455   ar
   316   471   473   ar
   317   492   491    1
   318   469   468    2
   319   193   194    1
   320   502   503    1
   321   166   168    1
   322   166   164    1
   323   168   169    1
   324   522   523    1
   325   523   537    1
   326   491   493   ar
   327   503   515    1
   328   509   510   ar
   329   526   536   ar
   330   526   527   ar
   331   541   542    1
   332   541   540    1
   333   535   536   ar
   334   535   533   ar
   335   468   467   ar
   336   448   455   ar
   337   448   447    1
   338   487   486    1
   339   487   494   ar
   340   499   498    1
   341   418   421    1
   342   418   419    1
   343   542   543    1
   344   542   544    1
   345   486   485    1
   346   486   482    1
   347   534   533    1
   348   543   547    1
   349   536   529   ar
   350   513   512   ar
   351   518   515    1
   352   485   483    1
   353   427   425    1
   354   421   422    1
   355   533   532   ar
   356   527   528   ar
   357   172   171    2
   358   538   537    2
   359   447   443    1
   360   447   446    1
   361   473   475    1
   362   473   474   ar
   363   423   422    1
   364   423   425    1
   365   164   163    1
   366   164   165    1
   367   493   494   ar
   368   510   512   ar
   369   510   511    2
   370   515   516    2
   371   515   517    1
   372   537   540    1
   373   537   539    1
   374   547   546    1
   375   547   548    1
   376   169   165    1
   377   169   170    1
   378   512   514    1
   379   467   474   ar
   380   467   466    1
   381   498   495    1
   382   482   481    1
   383   425   426    1
   384   529   528   ar
   385   529   530   ar
   386   443   442    1
   387   163   162    1
   388   171   170   ar
   389   171   173   ar
   390   162   159    1
   391   545   544    1
   392   545   557    1
   393   544   546    1
   394   532   530   ar
   395   446   444    1
   396   170   177   ar
   397   483   481    1
   398   483   484    1
   399   466   465    1
   400   466   462    1
   401   173   174   ar
   402   530   531    2
   403   548   555   ar
   404   548   549   ar
   405   481   480    1
   406   484   495    1
   407   555   554   ar
   408   550   549    2
   409   495   496    2
   410   495   497    1
   411   465   463    1
   412   426   437    1
   413   440   441    1
   414   440   437    1
   415   549   551   ar
   416   560   557    1
   417   560   561    1
   418   442   444    1
   419   442   441    1
   420   160   159    2
   421   177   176   ar
   422   159   161    1
   423   159   146    1
   424   174   176   ar
   425   174   175    1
   426   558   557    2
   427   557   559    1
   428   444   445    1
   429   462   461    1
   430   554   556    1
   431   554   552   ar
   432   563   562    1
   433   563   567    1
   434   437   439    2
   435   437   438    1
   436   480   479    1
   437   551   552   ar
   438   561   562    1
   439   562   564    1
   440   552   553    2
   441   463   461    1
   442   463   464    1
   443   567   568    1
   444   567   566    1
   445   479   476    1
   446   146   145    1
   447   445   456    1
   448   461   460    1
   449   458   456    2
   450   459   456    1
   451   459   460    1
   452   147   145    1
   453   147   148    1
   454   568   575   ar
   455   568   569   ar
   456   570   569    2
   457   156   155   ar
   458   156   157   ar
   459   566   564    1
   460   464   476    1
   461   155   153   ar
   462   478   476    2
   463   145   143    1
   464   575   574   ar
   465   476   477    1
   466   569   571   ar
   467   456   457    1
   468   564   565    1
   469   157   158   ar
   470   153   154    1
   471   153   152   ar
   472   574   576    1
   473   574   572   ar
   474   571   572   ar
   475   583   587    1
   476   583   582    1
   477   158   152   ar
   478   158   149   ar
   479   565   580    1
   480   572   573    2
   481   152   151   ar
   482   149   148    1
   483   149   150   ar
   484   148   144    1
   485   587   588    1
   486   587   586    1
   487   151   150   ar
   488   582   581    1
   489   582   584    1
   490   581   580    1
   491   143   144    1
   492   143   142    1
   493   588   589   ar
   494   588   598   ar
   495   589   590   ar
   496   141   142    1
   497   141   138    1
   498   140   138    2
   499   577   578    1
   500   577   579    2
   501   139   138    1
   502   598   597   ar
   503   598   591   ar
   504   586   584    1
   505   597   595   ar
   506   590   591   ar
   507   138   127    1
   508   591   592   ar
   509   584   585    1
   510   595   596    1
   511   595   594   ar
   512   592   594   ar
   513   592   593    2
   514   585   599    1
   515   127   126    1
   516   126   128    1
   517   126   124    1
   518   599   601    2
   519   599   600    1
   520   599   602    1
   521   132   131    2
   522   133   131   ar
   523   133   134   ar
   524   135   134    1
   525   131   130   ar
   526   128   129    1
   527   134   136   ar
   528   605   604    1
   529   605   609    1
   530   130   137   ar
   531   130   129    1
   532   602   603    1
   533   603   604    1
   534   136   137   ar
   535   123   124    1
   536   123   122    1
   537   121   119    2
   538   124   125    1
   539   611   612   ar
   540   611   610   ar
   541   612   613   ar
   542   129   125    1
   543   604   606    1
   544   610   609    1
   545   610   619   ar
   546   609   608    1
   547   613   619   ar
   548   613   614   ar
   549   120   119    1
   550   619   618   ar
   551   615   614    1
   552   119   122    1
   553   119   107    1
   554   614   616   ar
   555   618   617   ar
   556   616   617   ar
   557   606   608    1
   558   606   607    1
   559   115   114    2
   560   113   114   ar
   561   113   111   ar
   562   114   116   ar
   563   107   106    1
   564   607   620    1
   565   112   111    2
   566   111   110   ar
   567   108   106    1
   568   108   109    1
   569   106   104    1
   570   116   118    1
   571   116   117   ar
   572   110   117   ar
   573   110   109    1
   574    93    92    2
   575   101    99    2
   576   109   105    1
   577   102    99    1
   578   102   103    1
   579   621   620    2
   580    92    94   ar
   581    92    91   ar
   582   620   622    1
   583   620   623    1
   584    94    95   ar
   585   104   103    1
   586   104   105    1
   587    99   100    1
   588    99    85    1
   589   633   632   ar
   590   633   634   ar
   591    96    95    1
   592   632   631   ar
   593    95    97   ar
   594    91    90   ar
   595    91    98   ar
   596   626   630    1
   597   626   625    1
   598    90    89   ar
   599   636    74    1
   600   636   635    2
   601   623   624    1
   602   634   635   ar
   603   634   640   ar
   604   624   625    1
   605    74    73    1
   606   631   630    1
   607   631   640   ar
   608   630   629    1
   609    21    19    2
   610    98    97   ar
   611    98    88   ar
   612   635   637   ar
   613   625   627    1
   614   640   639   ar
   615    89    88   ar
   616    85    84    1
   617    88    87    1
   618    41    39    2
   619    84    86    1
   620    84    82    1
   621   637   638   ar
   622    20    19    1
   623    86    87    1
   624    73    75   ar
   625    73    72   ar
   626   639   638   ar
   627    19    22    1
   628    19     6    1
   629    75    76   ar
   630    60    58    2
   631    79    77    2
   632    40    39    1
   633   629   627    1
   634   627   628    1
   635    87    83    1
   636    39    42    1
   637    39    27    1
   638    72    70   ar
   639    80    77    1
   640    80    81    1
   641    55    54    1
   642    23    22    1
   643    23    24    1
   644     1     2    1
   645    82    83    1
   646    82    81    1
   647    76    69   ar
   648    77    78    1
   649    77    66    1
   650   657   656    2
   651    58    59    1
   652    58    61    1
   653    58    47    1
   654    38    36    1
   655    56    54   ar
   656    56    57   ar
   657    42    43    1
   658   628   641    1
   659     6     5    1
   660   643   641    2
   661    54    53   ar
   662    27    26    1
   663    70    69   ar
   664    70    71    2
   665    26    24    1
   666    26    28    1
   667   654   655   ar
   668   654   653   ar
   669    61    62    1
   670    69    68    1
   671     2     3    1
   672   656   655   ar
   673   656   658   ar
   674     5     3    1
   675     5     7    1
   676    24    25    1
   677    57    50   ar
   678   641   642    1
   679   641   644    1
   680   655   662   ar
   681    36    37   ar
   682    36    34   ar
   683    65    66    1
   684    65    67    1
   685    65    63    1
   686   653   652   ar
   687    37    30   ar
   688    47    46    1
   689    53    51   ar
   690   658   659   ar
   691    67    68    1
   692    35    34    2
   693    43    44    1
   694    46    44    1
   695    46    48    1
   696     3     4    1
   697    11    10   ar
   698    11    12   ar
   699    34    33   ar
   700    28    29    1
   701    10     9   ar
   702    68    64    1
   703   662   652   ar
   704   662   661   ar
   705   652   651    1
   706     7     8    1
   707    25    29    1
   708    50    51   ar
   709    50    49    1
   710    62    63    1
   711   647   651    1
   712   647   646    1
   713    14    13    1
   714   659   661   ar
   715   659   660    1
   716   644   645    1
   717    51    52    2
   718    30    29    1
   719    30    31   ar
   720    63    64    1
   721    44    45    1
   722    12    13   ar
   723    12    18   ar
   724   651   650    1
   725     4     8    1
   726    33    31   ar
   727     9     8    1
   728     9    18   ar
   729    13    15   ar
   730    45    49    1
   731    48    49    1
   732   645   646    1
   733   679   678    2
   734   679   700    1
   735    31    32    2
   736    18    17   ar
   737   646   648    1
   738    15    16   ar
   739   678   680   ar
   740   678   677   ar
   741   680   681   ar
   742    17    16   ar
   743   700   699    2
   744   677   676   ar
   745   677   683   ar
   746   676   675   ar
   747   650   648    1
   748   648   649    1
   749   681   682   ar
   750   701   699   ar
   751   701   702   ar
   752   683   682   ar
   753   683   674   ar
   754   675   674   ar
   755   699   698   ar
   756   769   770    1
   757   769   768    1
   758   769   771    1
   759   674   673    1
   760   702   703   ar
   761   770   774    1
   762   772   771    1
   763   772   783    1
   764   768   767    1
   765   649   663    1
   766   784   783    2
   767   737   736    2
   768   698   697   ar
   769   698   704   ar
   770   773   774    1
   771   773   771    1
   772   774   775    1
   773   669   673    1
   774   669   668    1
   775   673   672    1
   776   752   753    1
   777   752   750    1
   778   753   749    1
   779   753   754    1
   780   748   749    1
   781   748   750    1
   782   748   747    1
   783   665   663    2
   784   703   704   ar
   785   751   750    1
   786   751   764    1
   787   697   696   ar
   788   762   761   ar
   789   762   763   ar
   790   783   786    1
   791   783   785    1
   792   787   788    1
   793   787   786    1
   794   704   695   ar
   795   666   663    1
   796   666   667    1
   797   761   760   ar
   798   663   664    1
   799   767   764    1
   800   667   668    1
   801   736   738   ar
   802   736   735   ar
   803   718   717    2
   804   734   733    1
   805   734   735    1
   806   734   730    1
   807   733   731    1
   808   788   789    1
   809   788   790    1
   810   747   746    1
   811   668   670    1
   812   777   776    2
   813   775   776   ar
   814   775   782   ar
   815   765   764    2
   816   754   763   ar
   817   754   755   ar
   818   789   793    1
   819   696   695   ar
   820   763   757   ar
   821   764   766    1
   822   738   739   ar
   823   695   694    1
   824   672   670    1
   825   735   742   ar
   826   730   729    1
   827   719   717   ar
   828   719   720   ar
   829   717   716   ar
   830   776   778   ar
   831   670   671    1
   832   782   781   ar
   833   760   758   ar
   834   729   731    1
   835   729   728    1
   836   791   790    1
   837   791   803    1
   838   746   743    1
   839   731   732    1
   840   790   792    1
   841   793   792    1
   842   793   794    1
   843   732   743    1
   844   694   690    1
   845   694   693    1
   846   755   756   ar
   847   757   758   ar
   848   757   756   ar
   849   721   720    1
   850   739   740    1
   851   739   741   ar
   852   720   722   ar
   853   742   741   ar
   854   716   715    1
   855   716   723   ar
   856   715   714    1
   857   715   711    1
   858   758   759    1
   859   690   689    1
   860   778   779   ar
   861   781   779   ar
   862   804   803    2
   863   714   712    1
   864   671   684    1
   865   743   744    2
   866   743   745    1
   867  1286  1285    2
   868  1305  1304    2
   869   728   727    1
   870   803   806    1
   871   803   805    1
   872   801   794   ar
   873   801   800   ar
   874   686   684    2
   875   794   795   ar
   876   807   806    1
   877   807   808    1
   878   779   780    1
   879   722   723   ar
   880   693   691    1
   881   711   710    1
   882   687   684    1
   883   687   688    1
   884  1289  1290    1
   885  1289  1288    1
   886  1293  1304    1
   887  1293  1292    1
   888   727   724    1
   889   684   685    1
   890   689   688    1
   891   689   691    1
   892   802   800    1
   893   800   798   ar
   894   795   796    2
   895   795   797   ar
   896  1290  1292    1
   897  1290  1291    1
   898  1457  1456    2
   899  1271  1285    1
   900  1271  1270    1
   901   691   692    1
   902  1304  1306    1
   903  1304  1307    1
   904   712   710    1
   905   712   713    1
   906  1285  1288    1
   907  1285  1287    1
   908   808   809    1
   909   808   810    1
   910   710   709    1
   911   809   813    1
   912  1292  1294    1
   913   713   726    1
   914   797   798   ar
   915   798   799    2
   916  1308  1307    1
   917  1308  1309    1
   918   724   726    1
   919   724   725    1
   920  1456  1458   am
   921  1456  1455    2
   922  1291  1295    1
   923  1270  1268    1
   924  1270  1272    1
   925  1268  1267    1
   926  1268  1269    1
   927  1458  1459   am
   928   822   820    1
   929  1272  1273    1
   930  1267  1266    1
   931  1294  1295    1
   932   692   705    1
   933   810   811    1
   934   810   812    1
   935   709   708    1
   936   821   820   ar
   937   821   814   ar
   938   811   823    1
   939   813   814    1
   940   813   812    1
   941  1325  1324    2
   942   708   705    1
   943  1295  1296    1
   944  1455  1462    1
   945   820   818   ar
   946  1309  1311    1
   947  1309  1310    1
   948  1264  1263    2
   949  1454  1450    1
   950  1454  1453    1
   951   814   815   ar
   952  1312  1324    1
   953  1312  1311    1
   954  1269  1273    1
   955  1450  1449    1
   956  1459  1460    2
   957  1459  1461    1
   958   707   705    2
   959  1326  1324    1
   960  1324  1327    1
   961  1273  1274    1
   962  1453  1451    1
   963   705   706    1
   964  1266  1263    1
   965  1311  1313    1
   966   824   823    2
   967  1440  1441   ar
   968  1440  1438   ar
   969   825   823    1
   970  1441  1442   ar
   971   823   826    1
   972  1310  1314    1
   973  1449  1451    1
   974  1449  1448    1
   975  1462  1461    2
   976  1263  1249    1
   977  1263  1265    1
   978   818   819    2
   979   818   817   ar
   980  1296  1303   ar
   981  1296  1297   ar
   982  1303  1302   ar
   983   815   817   ar
   984   815   816    2
   985  1461  1463    1
   986  1249  1248    1
   987  1439  1438    1
   988  1451  1452    1
   989  1447  1448    1
   990  1447  1444    1
   991  1438  1437   ar
   992   996   995    1
   993   996  1009    1
   994   993   994    1
   995   993   992    1
   996   993   995    1
   997  1274  1284   ar
   998  1274  1275   ar
   999  1010  1009    2
  1000  1442  1443   ar
  1001  1327  1328    1
  1002  1313  1314    1
  1003  1283  1284   ar
  1004  1283  1281   ar
  1005   997   995    1
  1006   997   998    1
  1007   994   998    1
  1008  1298  1297    2
  1009  1314  1315    1
  1010  1328  1329    1
  1011   992   991    1
  1012  1297  1299   ar
  1013  1323  1321    1
  1014  1013  1012    1
  1015  1013  1014    1
  1016  1302  1300   ar
  1017  1322  1315   ar
  1018  1322  1321   ar
  1019  1250  1248    1
  1020  1250  1251    1
  1021  1009  1012    1
  1022  1009  1011    1
  1023   991   988    1
  1024   826   827    1
  1025  1260  1259    1
  1026  1345  1343    2
  1027  1444  1446    2
  1028  1444  1445    2
  1029  1248  1246    1
  1030  1284  1277   ar
  1031   998   999    1
  1032  1344  1343    1
  1033  1275  1276   ar
  1034  1437  1443   ar
  1035  1437  1436   ar
  1036  1443  1434   ar
  1037   989   988    2
  1038  1282  1281    1
  1039   976   988    1
  1040   976   975    1
  1041   977   975    1
  1042   977   978    1
  1043   827   828    1
  1044  1315  1316   ar
  1045  1321  1319   ar
  1046  1281  1280   ar
  1047  1246  1245    1
  1048  1246  1247    1
  1049  1014  1015    1
  1050  1014  1016    1
  1051  1343  1332    1
  1052  1343  1346    1
  1053  1261  1259   ar
  1054  1261  1262   ar
  1055  1419  1418    2
  1056   840   841   ar
  1057   840   838   ar
  1058  1015  1019    1
  1059   988   990    1
  1060  1299  1300   ar
  1061  1259  1258   ar
  1062  1300  1301    1
  1063  1251  1247    1
  1064  1251  1252    1
  1065  1432  1433    1
  1066  1432  1430    1
  1067   975   973    1
  1068   841   834   ar
  1069  1329  1331    1
  1070  1329  1330    1
  1071  1031  1030    2
  1072  1332  1331    1
  1073  1436  1435   ar
  1074   981   980    2
  1075  1277  1276   ar
  1076  1277  1278   ar
  1077   978   974    1
  1078   978   979    1
  1079   973   974    1
  1080   973   972    1
  1081  1245  1244    1
  1082  1434  1433    1
  1083  1434  1435   ar
  1084   839   838    1
  1085   829   828    1
  1086   829   833    1
  1087  1331  1333    1
  1088   999  1008   ar
  1089   999  1000   ar
  1090   838   837   ar
  1091   828   830    1
  1092  1341  1342   ar
  1093  1341  1339   ar
  1094  1433  1429    1
  1095  1007  1008   ar
  1096  1007  1006   ar
  1097  1342  1335   ar
  1098  1280  1278   ar
  1099  1262  1252   ar
  1100  1262  1255   ar
  1101  1017  1016    1
  1102  1017  1030    1
  1103  1316  1317    2
  1104  1316  1318   ar
  1105  1418  1417   ar
  1106  1418  1420   ar
  1107  1319  1318   ar
  1108  1319  1320    2
  1109  1016  1018    1
  1110  1346  1347    1
  1111  1258  1256   ar
  1112  1252  1253   ar
  1113  1330  1334    1
  1114  1431  1430    1
  1115  1430  1428    1
  1116  1019  1018    1
  1117  1019  1020    1
  1118   834   833    1
  1119   834   835   ar
  1120  1417  1415   ar
  1121  1008  1002   ar
  1122   980   979   ar
  1123   980   982   ar
  1124  1278  1279    2
  1125  1030  1032    1
  1126  1030  1033    1
  1127   972   971    1
  1128   979   986   ar
  1129  1422  1420    1
  1130  1000  1001   ar
  1131   833   832    1
  1132  1244  1241    1
  1133   837   835   ar
  1134  1242  1241    2
  1135  1397  1396    2
  1136  1006  1005   ar
  1137  1021  1020   ar
  1138  1021  1022   ar
  1139  1347  1348    1
  1140  1420  1421   ar
  1141  1340  1339    1
  1142  1339  1338   ar
  1143   830   832    1
  1144   830   831    1
  1145   965   966   ar
  1146   965   964   ar
  1147  1020  1029   ar
  1148   835   836    2
  1149  1255  1256   ar
  1150  1255  1254   ar
  1151  1335  1334    1
  1152  1335  1336   ar
  1153   966   967   ar
  1154  1360  1361   ar
  1155  1360  1358   ar
  1156  1333  1334    1
  1157  1256  1257    2
  1158  1429  1428    1
  1159   971   968    1
  1160  1364  1362    2
  1161  1253  1254   ar
  1162  1415  1416    2
  1163  1415  1414   ar
  1164  1359  1358    1
  1165  1428  1427    1
  1166   982   983   ar
  1167  1241  1243    1
  1168  1241  1229    1
  1169  1002  1001   ar
  1170  1002  1003   ar
  1171  1361  1354   ar
  1172   956   957    1
  1173   956   954    1
  1174   986   985   ar
  1175   831   842    1
  1176   844   842    2
  1177  1022  1023   ar
  1178  1033  1034    1
  1179  1396  1398   ar
  1180  1396  1395   ar
  1181  1234  1233    2
  1182   964   962   ar
  1183  1358  1357   ar
  1184  1034  1035    1
  1185  1421  1414   ar
  1186  1378  1377    1
  1187   858   857    1
  1188  1005  1003   ar
  1189  1426  1427    1
  1190  1426  1423    1
  1191   957   953    1
  1192   957   958    1
  1193  1338  1336   ar
  1194  1029  1023   ar
  1195  1029  1028   ar
  1196   955   968    1
  1197   955   954    1
  1198  1336  1337    2
  1199  1348  1350    1
  1200  1348  1349    1
  1201  1363  1362    1
  1202  1414  1413    1
  1203  1425  1423    2
  1204   967   958   ar
  1205   967   961   ar
  1206   842   843    1
  1207   842   845    1
  1208  1350  1351    1
  1209  1350  1352    1
  1210  1362  1351    1
  1211  1362  1365    1
  1212  1230  1228    1
  1213  1230  1231    1
  1214  1003  1004    1
  1215  1394  1395   ar
  1216  1394  1393   ar
  1217   859   857   ar
  1218   859   860   ar
  1219  1398  1399   ar
  1220  1023  1024   ar
  1221   969   968    2
  1222  1379  1377   ar
  1223  1379  1380   ar
  1224  1229  1228    1
  1225   968   970    1
  1226  1349  1353    1
  1227  1028  1027   ar
  1228   954   952    1
  1229  1395  1402   ar
  1230   983   985   ar
  1231   983   984    2
  1232   985   987    1
  1233   857   856   ar
  1234   953   952    1
  1235   958   959   ar
  1236  1383  1381    2
  1237   944   943   ar
  1238   944   945   ar
  1239  1233  1235   ar
  1240  1233  1232   ar
  1241  1354  1353    1
  1242  1354  1355   ar
  1243  1036  1035    1
  1244  1036  1040    1
  1245  1377  1376   ar
  1246   877   876    2
  1247   952   951    1
  1248  1423  1424    1
  1249  1423  1411    1
  1250  1035  1037    1
  1251   962   961   ar
  1252   962   963    1
  1253  1357  1355   ar
  1254   943   941   ar
  1255  1235  1236   ar
  1256  1228  1226    1
  1257   860   853   ar
  1258  1412  1413    1
  1259  1412  1410    1
  1260   961   960   ar
  1261  1365  1366    1
  1262  1231  1232    1
  1263  1231  1227    1
  1264  1353  1352    1
  1265  1380  1373   ar
  1266   899   898    2
  1267   945   946   ar
  1268  1393  1392   ar
  1269  1413  1409    1
  1270   845   846    1
  1271   922   923   ar
  1272   922   920   ar
  1273  1232  1239   ar
  1274  1410  1411    1
  1275  1410  1408    1
  1276  1355  1356    2
  1277  1024  1025    1
  1278  1024  1026   ar
  1279  1027  1026   ar
  1280  1405  1403    2
  1281  1399  1400    1
  1282  1399  1401   ar
  1283   856   854   ar
  1284   921   920    1
  1285  1042  1043   ar
  1286  1042  1041   ar
  1287  1402  1392   ar
  1288  1402  1401   ar
  1289   876   878   ar
  1290   876   875   ar
  1291  1376  1374   ar
  1292  1040  1041    1
  1293  1040  1039    1
  1294   923   924   ar
  1295   959   960   ar
  1296  1406  1403    1
  1297  1406  1407    1
  1298   900   898   ar
  1299   900   901   ar
  1300  1381  1384    1
  1301  1381  1382    1
  1302  1381  1370    1
  1303   846   847    1
  1304   951   950    1
  1305  1409  1408    1
  1306  1236  1237    2
  1307  1236  1238   ar
  1308   853   854   ar
  1309   853   852    1
  1310   920   919   ar
  1311  1226  1227    1
  1312  1226  1225    1
  1313   898   897   ar
  1314  1043  1044   ar
  1315  1037  1038    1
  1316  1037  1039    1
  1317   878   879   ar
  1318  1041  1051   ar
  1319  1392  1391    1
  1320   941   942    1
  1321   941   940   ar
  1322   854   855    2
  1323   848   852    1
  1324   848   847    1
  1325  1373  1374   ar
  1326  1373  1372    1
  1327  1366  1367    1
  1328  1239  1238   ar
  1329  1408  1407    1
  1330  1384  1385    1
  1331   946   940   ar
  1332   946   937   ar
  1333   874   875   ar
  1334   874   873   ar
  1335  1403  1404    1
  1336  1403  1389    1
  1337   875   882   ar
  1338   902   901    1
  1339  1038  1052    1
  1340  1374  1375    2
  1341  1369  1370    1
  1342  1369  1367    1
  1343  1369  1371    1
  1344  1238  1240    1
  1345   901   903   ar
  1346   950   947    1
  1347   852   851    1
  1348   847   849    1
  1349   924   925   ar
  1350  1388  1390    1
  1351  1388  1389    1
  1352  1388  1386    1
  1353   940   939   ar
  1354  1044  1051   ar
  1355  1044  1045    1
  1356  1368  1367    1
  1357  1368  1372    1
  1358  1051  1050    1
  1359   935   936    1
  1360   935   933    1
  1361   897   896   ar
  1362   897   904   ar
  1363   879   880    1
  1364   879   881   ar
  1365  1225  1224    1
  1366  1390  1391    1
  1367   919   925   ar
  1368   919   918   ar
  1369   936   937    1
  1370   936   932    1
  1371  1372  1371    1
  1372   937   938   ar
  1373  1391  1387    1
  1374   873   872   ar
  1375  1387  1386    1
  1376  1214  1213    2
  1377  1053  1052    2
  1378   863   861    2
  1379   849   851    1
  1380   849   850    1
  1381   882   881   ar
  1382   882   872   ar
  1383   925   916   ar
  1384  1385  1386    1
  1385  1215  1213   ar
  1386  1215  1216   ar
  1387   896   895   ar
  1388  1054  1052    1
  1389  1217  1216    2
  1390  1050  1048    1
  1391  1052  1055    1
  1392  1045  1046    2
  1393  1045  1047   am
  1394   903   904   ar
  1395  1224  1221    1
  1396   904   894   ar
  1397  1213  1212   ar
  1398   872   871    1
  1399  1216  1218   ar
  1400   939   938   ar
  1401   918   917   ar
  1402   947   948    2
  1403   947   934    1
  1404   947   949    1
  1405   933   934    1
  1406   933   931    1
  1407   932   931    1
  1408  1048  1047    1
  1409  1048  1049    1
  1410  1048  1198    1
  1411   850   861    1
  1412  1047  1198    1
  1413   895   894   ar
  1414  1156  1155    1
  1415   861   864    1
  1416   861   862    1
  1417   916   917   ar
  1418   916   915    1
  1419   894   893    1
  1420   864   865    1
  1421   931   930    1
  1422  1210  1211    1
  1423  1210  1208    1
  1424  1055  1056    1
  1425  1212  1211    1
  1426  1212  1219   ar
  1427  1221  1223    2
  1428  1221  1222    1
  1429  1221  1209    1
  1430  1049  1198    1
  1431  1154  1155   ar
  1432  1154  1152   ar
  1433  1218  1219   ar
  1434  1218  1220    1
  1435  1195  1194    2
  1436   871   867    1
  1437   871   870    1
  1438   867   866    1
  1439   915   914    1
  1440   915   911    1
  1441  1056  1057    1
  1442  1155  1157   ar
  1443  1211  1207    1
  1444  1196  1194   ar
  1445  1196  1197   ar
  1446  1153  1152    2
  1447  1065  1064   ar
  1448  1065  1066   ar
  1449   914   912    1
  1450  1198  1197    1
  1451  1064  1063   ar
  1452  1209  1208    1
  1453  1194  1193   ar
  1454   865   866    1
  1455   893   889    1
  1456   893   892    1
  1457  1152  1151   ar
  1458  1208  1206    1
  1459  1058  1057    1
  1460  1058  1062    1
  1461  1197  1199   ar
  1462   930   929    1
  1463  1068  1067    1
  1464   870   868    1
  1465   866   868    1
  1466   929   926    1
  1467  1057  1059    1
  1468  1157  1134    1
  1469  1157  1158   ar
  1470  1066  1067   ar
  1471  1066  1072   ar
  1472   868   869    1
  1473   911   910    1
  1474   889   888    1
  1475   892   890    1
  1476  1063  1062    1
  1477  1063  1072   ar
  1478  1089  1088    2
  1479  1207  1206    1
  1480  1067  1069   ar
  1481   912   910    1
  1482   912   913    1
  1483  1193  1200   ar
  1484  1193  1192   ar
  1485  1062  1061    1
  1486  1134  1133    2
  1487   885   883    2
  1488  1151  1158   ar
  1489  1151  1150   ar
  1490  1175  1174    2
  1491  1206  1205    1
  1492  1072  1071   ar
  1493  1199  1200   ar
  1494  1158  1148   ar
  1495  1075  1073    2
  1496  1200  1190   ar
  1497  1059  1061    1
  1498  1059  1060    1
  1499  1132  1133    2
  1500  1132  1130    2
  1501   910   909    1
  1502  1086  1087   ar
  1503  1086  1085   ar
  1504  1192  1191   ar
  1505   928   926    2
  1506   890   888    1
  1507   890   891    1
  1508  1088  1087   ar
  1509  1088  1090   ar
  1510   913   926    1
  1511  1203  1201    2
  1512  1069  1070   ar
  1513  1111  1131    1
  1514  1111  1110    1
  1515   886   883    1
  1516   886   887    1
  1517   869   883    1
  1518   926   927    1
  1519   888   887    1
  1520  1133  1135    1
  1521  1131  1130    1
  1522   907   905    2
  1523  1087  1094   ar
  1524   883   884    1
  1525  1071  1070   ar
  1526  1174  1173   ar
  1527  1174  1176   ar
  1528  1204  1205    1
  1529  1204  1201    1
  1530  1150  1149   ar
  1531  1178  1176    1
  1532  1085  1084   ar
  1533  1090  1091   ar
  1534  1060  1073    1
  1535  1130  1129    1
  1536  1148  1149   ar
  1537  1148  1147    1
  1538  1073  1076    1
  1539  1073  1074    1
  1540  1191  1190   ar
  1541  1190  1189    1
  1542  1201  1202    1
  1543  1201  1187    1
  1544   909   908    1
  1545  1173  1171   ar
  1546   891   905    1
  1547  1176  1177   ar
  1548  1110  1109    1
  1549  1110  1112    2
  1550   905   908    1
  1551   905   906    1
  1552  1094  1084   ar
  1553  1094  1093   ar
  1554  1147  1146    1
  1555  1147  1143    1
  1556  1135  1136    2
  1557  1114  1112    1
  1558  1188  1186    1
  1559  1188  1189    1
  1560  1084  1083    1
  1561  1109  1129    1
  1562  1109  1107   am
  1563  1161  1145    1
  1564  1161  1159    1
  1565  1076  1077    1
  1566  1091  1093   ar
  1567  1091  1092    1
  1568  1146  1144    1
  1569  1186  1187    1
  1570  1186  1184    1
  1571  1189  1185    1
  1572  1112  1113    1
  1573  1129  1136    1
  1574  1129  1128    1
  1575  1171  1172    2
  1576  1171  1170   ar
  1577  1177  1170   ar
  1578  1145  1144    1
  1579  1136  1126    1
  1580  1079  1083    1
  1581  1079  1078    1
  1582  1181  1179    2
  1583  1143  1142    1
  1584  1083  1082    1
  1585  1170  1169    1
  1586  1107  1108    2
  1587  1107  1106   am
  1588  1077  1078    1
  1589  1144  1142    1
  1590  1182  1179    1
  1591  1182  1183    1
  1592  1185  1184    1
  1593  1159  1160    1
  1594  1159  1162    1
  1595  1113  1106    1
  1596  1128  1127    2
  1597  1184  1183    1
  1598  1078  1080    1
  1599  1162  1163    1
  1600  1106  1105    1
  1601  1142  1141    1
  1602  1179  1180    1
  1603  1179  1167    1
  1604  1126  1127    1
  1605  1126  1125    1
  1606  1082  1080    1
  1607  1080  1081    1
  1608  1166  1168    1
  1609  1166  1167    1
  1610  1166  1164    1
  1611  1168  1169    1
  1612  1169  1165    1
  1613  1097  1095    2
  1614  1124  1125    1
  1615  1124  1141    1
  1616  1124  1122    1
  1617  1125  1121    1
  1618  1140  1141    1
  1619  1140  1137    1
  1620  1165  1164    1
  1621  1105  1101    1
  1622  1105  1104    1
  1623  1163  1164    1
  1624  1101  1100    1
  1625  1139  1137    2
  1626  1081  1095    1
  1627  1137  1123    1
  1628  1137  1138    1
  1629  1095  1098    1
  1630  1095  1096    1
  1631  1104  1102    1
  1632  1122  1123    1
  1633  1122  1120    1
  1634  1098  1099    1
  1635  1121  1120    1
  1636  1100  1102    1
  1637  1100  1099    1
  1638  1102  1103    1
  1639  1120  1119    1
  1640  1117  1115    2
  1641  1118  1119    1
  1642  1118  1115    1
  1643  1103  1115    1
  1644  1115  1116    1
