@<TRIPOS>MOLECULE
dna.pdb
 1463 1646 0 0 0
SMALL
GASTEIGER

@<TRIPOS>ATOM
      1  O5'      -10.3180    3.0100   18.1000 O.3     1  DA1        -0.2176
      2  C5'       -9.7950    3.7980   17.0170 C.3     1  DA1         0.2140
      3  C4'       -8.3770    3.3850   16.7020 C.3     1  DA1         0.1776
      4  O4'       -8.3780    2.0880   16.0540 O.3     1  DA1        -0.3326
      5  C3'       -7.6870    4.2470   15.6580 C.3     1  DA1         0.1559
      6  O3'       -7.1800    5.4320   16.2740 O.3     1  DA1        -0.3138
      7  C2'       -6.5530    3.3390   15.1760 C.3     1  DA1         0.0866
      8  C1'       -7.1680    1.9440   15.3350 C.3     1  DA1         0.2109
      9  N9        -7.1640    1.6630   14.2800 N.ar    1  DA1        -0.2521
     10  C8        -8.3840    1.2980   13.7740 C.ar    1  DA1         0.1829
     11  N7        -8.3770    1.0840   12.4790 N.ar    1  DA1        -0.2186
     12  C5        -7.0630    1.3260   12.1100 C.ar    1  DA1         0.1860
     13  C6        -6.4040    1.2710   10.8690 C.3     1  DA1         0.3511
     14  N6        -7.0070    0.9400    9.7250 N.3     1  DA1        -0.0715
     15  N1        -5.0880    1.5720   10.8450 N.2     1  DA1        -0.0392
     16  C2        -4.4840    1.9030   11.9920 C.2     1  DA1         0.3857
     17  N3        -4.9960    1.9890   13.2180 N.pl3   1  DA1         0.0139
     18  C4        -6.3050    1.6850   13.2080 C.ar    1  DA1         0.2702
     19  P         -7.8160    7.1440   15.9610 P.3     2  DT2         0.2141
     20  OP1       -7.5030    8.2040   16.9620 O.3     2  DT2        -0.4373
     21  OP2       -9.0950    7.2050   15.2120 O.2     2  DT2        -0.5172
     22  O5'       -6.6160    7.0620   14.9020 O.3     2  DT2        -0.3114
     23  C5'       -5.2280    7.0420   15.3470 C.3     2  DT2         0.1811
     24  C4'       -4.2590    6.9730   14.1710 C.3     2  DT2         0.1746
     25  O4'       -4.4590    5.7400   13.4310 O.3     2  DT2        -0.3327
     26  C3'       -4.3170    8.0760   13.1220 C.3     2  DT2         0.1558
     27  O3'       -3.5540    9.2010   13.5010 O.3     2  DT2        -0.3138
     28  C2'       -3.7040    7.3980   11.9070 C.3     2  DT2         0.0866
     29  C1'       -4.2330    5.9710   12.0480 C.3     2  DT2         0.2106
     30  N1        -5.5460    5.7970   11.3170 N.ar    2  DT2        -0.2559
     31  C2        -5.4490    5.5010    9.9710 C.ar    2  DT2         0.3545
     32  O2        -4.3870    5.4600    9.3750 O.2     2  DT2        -0.2443
     33  N3        -6.6450    5.2530    9.3420 N.ar    2  DT2        -0.1533
     34  C4        -7.9010    5.2710    9.9120 C.ar    2  DT2         0.2804
     35  O4        -8.8840    5.0260    9.2170 O.2     2  DT2        -0.2654
     36  C5        -7.9190    5.5880   11.3120 C.ar    2  DT2         0.0534
     37  C6        -6.7700    5.8330   11.9480 C.ar    2  DT2         0.0824
     38  C7        -9.2390    5.6340   12.0230 C.3     2  DT2         0.0377
     39  P         -3.8220   10.5920   12.7690 P.3     3  DC3         0.2141
     40  OP1       -2.9690   11.6010   13.4420 O.3     3  DC3        -0.4373
     41  OP2       -5.3090   10.7480   12.7840 O.2     3  DC3        -0.5172
     42  O5'       -3.3450   10.4500   11.2610 O.3     3  DC3        -0.3114
     43  C5'       -1.9740   10.1610   10.9580 C.3     3  DC3         0.1811
     44  C4'       -1.7950    9.9980    9.4720 C.3     3  DC3         0.1746
     45  O4'       -2.4150    8.7680    9.0210 O.3     3  DC3        -0.3327
     46  C3'       -2.4520   11.0580    8.6110 C.3     3  DC3         0.1558
     47  O3'       -1.6700   12.2370    8.5940 O.3     3  DC3        -0.3138
     48  C2'       -2.5070   10.3580    7.2590 C.3     3  DC3         0.0866
     49  C1'       -2.8310    8.9250    7.6780 C.3     3  DC3         0.2106
     50  N1        -4.2440    8.6070    7.5720 N.ar    3  DC3        -0.2556
     51  C2        -4.7560    8.1540    6.3500 C.ar    3  DC3         0.3531
     52  O2        -3.9680    7.9520    5.4100 O.2     3  DC3        -0.2443
     53  N3        -6.0890    7.9510    6.2280 N.ar    3  DC3        -0.1739
     54  C4        -6.8970    8.1820    7.2640 C.ar    3  DC3         0.1759
     55  N4        -8.2040    7.9680    7.0970 N.pl3   3  DC3        -0.1070
     56  C5        -6.3980    8.6410    8.5100 C.ar    3  DC3         0.0566
     57  C6        -5.0810    8.8400    8.6260 C.ar    3  DC3         0.0849
     58  P         -2.2510   13.5490    7.9140 P.3     4  DC4         0.2141
     59  OP1       -1.2190   14.5980    7.9760 O.2     4  DC4        -0.5172
     60  OP2       -3.6060   13.8240    8.4230 O.3     4  DC4        -0.4373
     61  O5'       -2.4830   13.1270    6.3910 O.3     4  DC4        -0.3114
     62  C5'       -1.4170   13.2390    5.4630 C.3     4  DC4         0.1811
     63  C4'       -1.6870   12.4200    4.2290 C.3     4  DC4         0.1746
     64  O4'       -2.5130   11.2870    4.5890 O.3     4  DC4        -0.3327
     65  C3'       -2.5080   13.0840    3.1380 C.3     4  DC4         0.1558
     66  O3'       -1.7880   14.0100    2.3550 O.3     4  DC4        -0.3138
     67  C2'       -3.0280   11.8840    2.3600 C.3     4  DC4         0.0866
     68  C1'       -3.3870   10.9780    3.5250 C.3     4  DC4         0.2106
     69  N1        -4.8100   11.2140    3.8960 N.ar    4  DC4        -0.2556
     70  C2        -5.8870   10.8020    3.1030 C.ar    4  DC4         0.3531
     71  O2        -5.6640   10.4310    1.9380 O.2     4  DC4        -0.2443
     72  N3        -7.1360   10.8210    3.6260 N.ar    4  DC4        -0.1739
     73  C4        -7.3270   11.2280    4.8820 C.ar    4  DC4         0.1759
     74  N4        -8.5760   11.2290    5.3540 N.pl3   4  DC4        -0.1070
     75  C5        -6.2490   11.6490    5.7020 C.ar    4  DC4         0.0566
     76  C6        -5.0170   11.6290    5.1810 C.ar    4  DC4         0.0849
     77  P         -2.4180   15.2170    2.1810 P.3     5  DG5         0.2141
     78  OP1       -1.2390   15.8950    1.6020 O.2     5  DG5        -0.5172
     79  OP2       -3.0980   15.7940    3.3630 O.3     5  DG5        -0.4373
     80  O5'       -3.4910   15.0090    1.0070 O.3     5  DG5        -0.3114
     81  C5'       -3.0500   14.7020   -0.3110 C.3     5  DG5         0.1811
     82  C4'       -4.1410   14.0190   -1.1170 C.3     5  DG5         0.1747
     83  O4'       -4.8070   13.0490   -0.2760 O.3     5  DG5        -0.3326
     84  C3'       -5.2780   14.9040   -1.6070 C.3     5  DG5         0.1580
     85  O3'       -4.9370   15.5770   -2.8120 O.3     5  DG5        -0.3138
     86  C2'       -6.3560   13.8600   -1.8640 C.3     5  DG5         0.1098
     87  C1'       -6.1570   12.9340   -0.6710 C.3     5  DG5         0.2117
     88  N9        -7.0220   13.3050    0.4160 N.ar    5  DG5        -0.2713
     89  C8        -6.5830   13.8540    1.5960 C.ar    5  DG5         0.1816
     90  N7        -7.5280   13.9820    2.4870 N.ar    5  DG5        -0.2173
     91  C5        -8.6580   13.4880    1.8630 C.ar    5  DG5         0.1748
     92  C6        -9.9920   13.3670    2.3280 C.ar    5  DG5         0.3023
     93  O6       -10.4500   13.6870    3.4320 O.2     5  DG5        -0.2633
     94  N1       -10.8310   12.8110    1.3670 N.ar    5  DG5        -0.1709
     95  C2       -10.4330   12.4190    0.1110 C.ar    5  DG5         0.2606
     96  N2       -11.3870   11.9020   -0.6760 N.pl3   5  DG5        -0.0859
     97  N3        -9.1980   12.5250   -0.3360 N.ar    5  DG5        -0.1918
     98  C4        -8.3660   13.0640    0.5800 C.ar    5  DG5         0.1722
     99  P         -5.5530   16.5470   -2.9150 P.3     6  DT6         0.2140
    100  OP1       -5.0660   16.5590   -4.3120 O.2     6  DT6        -0.5172
    101  OP2       -6.3710   17.6650   -2.3910 O.3     6  DT6        -0.4373
    102  O5'       -6.4600   15.2540   -2.6800 O.3     6  DT6        -0.3138
    103  C5'       -6.7400   14.3390   -3.7230 C.3     6  DT6         0.1579
    104  C4'       -8.2280   14.2350   -3.9300 C.3     6  DT6         0.1723
    105  O4'       -8.8600   13.7710   -2.7080 O.3     6  DT6        -0.3328
    106  C3'       -8.9370   15.5450   -4.2250 C.3     6  DT6         0.1557
    107  O3'       -8.8160   15.9460   -5.5760 O.3     6  DT6        -0.3138
    108  C2'      -10.3620   15.2210   -3.8120 C.3     6  DT6         0.0866
    109  C1'      -10.1240   14.3800   -2.5600 C.3     6  DT6         0.2106
    110  N1       -10.1860   15.2620   -1.3730 N.ar    6  DT6        -0.2559
    111  C2       -11.4380   15.4400   -0.8140 C.ar    6  DT6         0.3545
    112  O2       -12.4200   14.8130   -1.1700 O.2     6  DT6        -0.2443
    113  N3       -11.5000   16.3850    0.1820 N.ar    6  DT6        -0.1533
    114  C4       -10.4610   17.1520    0.6650 C.ar    6  DT6         0.2804
    115  O4       -10.6720   17.9600    1.5650 O.2     6  DT6        -0.2654
    116  C5        -9.1940   16.9100    0.0330 C.ar    6  DT6         0.0534
    117  C6        -9.1050   15.9970   -0.9380 C.ar    6  DT6         0.0824
    118  C7        -8.0000   17.6960    0.4880 C.3     6  DT6         0.0377
    119  P         -8.8260   17.5760   -5.8770 P.3     7  DC7         0.2141
    120  OP1       -8.5060   17.6200   -7.3230 O.2     7  DC7        -0.5172
    121  OP2       -8.2990   18.5940   -4.9420 O.3     7  DC7        -0.4373
    122  O5'      -10.4060   17.6880   -5.6990 O.3     7  DC7        -0.3114
    123  C5'      -11.2460   17.2200   -6.7360 C.3     7  DC7         0.1811
    124  C4'      -12.6680   17.0900   -6.2610 C.3     7  DC7         0.1746
    125  O4'      -12.6960   16.5540   -4.9110 O.3     7  DC7        -0.3327
    126  C3'      -13.4750   18.3740   -6.1430 C.3     7  DC7         0.1558
    127  O3'      -13.9310   18.8700   -7.3890 O.3     7  DC7        -0.3138
    128  C2'      -14.6060   17.9000   -5.2480 C.3     7  DC7         0.0866
    129  C1'      -13.8470   17.0240   -4.2510 C.3     7  DC7         0.2106
    130  N1       -13.4920   17.7790   -3.0670 N.ar    7  DC7        -0.2556
    131  C2       -14.4790   18.0920   -2.1260 C.ar    7  DC7         0.3531
    132  O2       -15.6440   17.7110   -2.3320 O.2     7  DC7        -0.2443
    133  N3       -14.1370   18.8000   -1.0230 N.ar    7  DC7        -0.1739
    134  C4       -12.8740   19.1890   -0.8450 C.ar    7  DC7         0.1759
    135  N4       -12.5850   19.8850    0.2580 N.pl3   7  DC7        -0.1070
    136  C5       -11.8590   18.8820   -1.7870 C.ar    7  DC7         0.0566
    137  C6       -12.2010   18.1830   -2.8750 C.ar    7  DC7         0.0849
    138  P        -14.2770   20.4440   -7.6520 P.3     8  DA8         0.2141
    139  OP1      -13.7400   20.7520   -8.9920 O.2     8  DA8        -0.5172
    140  OP2      -13.5350   20.9310   -6.4570 O.3     8  DA8        -0.4373
    141  O5'      -15.7840   20.9690   -7.5360 O.3     8  DA8        -0.3114
    142  C5'      -16.9420   20.1400   -7.5500 C.3     8  DA8         0.1811
    143  C4'      -17.9440   20.5870   -6.5000 C.3     8  DA8         0.1746
    144  O4'      -17.6570   19.9570   -5.2190 O.3     8  DA8        -0.3327
    145  C3'      -17.9120   22.0670   -6.1720 C.3     8  DA8         0.1558
    146  O3'      -18.6560   22.8240   -7.0890 O.3     8  DA8        -0.3138
    147  C2'      -18.6210   22.0760   -4.8280 C.3     8  DA8         0.0865
    148  C1'      -17.9420   20.8790   -4.1810 C.3     8  DA8         0.2094
    149  N9       -16.7640   21.2830   -3.4030 N.ar    8  DA8        -0.2714
    150  C8       -15.4320   21.1140   -3.6760 C.ar    8  DA8         0.1815
    151  N7       -14.6370   21.5950   -2.7490 N.ar    8  DA8        -0.2193
    152  C5       -15.5060   22.1160   -1.8040 C.ar    8  DA8         0.1518
    153  C6       -15.2900   22.7670   -0.5770 C.ar    8  DA8         0.1919
    154  N6       -14.0780   23.0120   -0.0740 N.pl3   8  DA8        -0.1054
    155  N1       -16.3750   23.1610    0.1230 N.ar    8  DA8        -0.2040
    156  C2       -17.5890   22.9140   -0.3820 C.ar    8  DA8         0.2016
    157  N3       -17.9190   22.3110   -1.5210 N.ar    8  DA8        -0.2048
    158  C4       -16.8200   21.9320   -2.1930 C.ar    8  DA8         0.1691
    159  P        -18.1650   24.0050   -7.4870 P.3     9  DC9         0.2141
    160  OP1      -18.9020   24.6010   -8.6220 O.2     9  DC9        -0.5172
    161  OP2      -16.7030   23.8080   -7.5760 O.3     9  DC9        -0.4373
    162  O5'      -18.4970   24.8460   -6.1770 O.3     9  DC9        -0.3114
    163  C5'      -19.8660   25.0130   -5.7480 C.3     9  DC9         0.1811
    164  C4'      -19.9310   25.8430   -4.4900 C.3     9  DC9         0.1746
    165  O4'      -19.1580   25.1960   -3.4400 O.3     9  DC9        -0.3327
    166  C3'      -19.3110   27.2220   -4.5800 C.3     9  DC9         0.1558
    167  O3'      -20.1900   28.1530   -5.1720 O.3     9  DC9        -0.3138
    168  C2'      -19.0480   27.5370   -3.1150 C.3     9  DC9         0.0866
    169  C1'      -18.5620   26.1810   -2.6160 C.3     9  DC9         0.2106
    170  N1       -17.0980   26.1250   -2.7070 N.ar    9  DC9        -0.2556
    171  C2       -16.3050   26.5130   -1.6220 C.ar    9  DC9         0.3531
    172  O2       -16.8600   26.9730   -0.6090 O.2     9  DC9        -0.2443
    173  N3       -14.9600   26.3790   -1.7070 N.ar    9  DC9        -0.1739
    174  C4       -14.4080   25.8820   -2.8140 C.ar    9  DC9         0.1759
    175  N4       -13.0780   25.7690   -2.8530 N.pl3   9  DC9        -0.1070
    176  C5       -15.1940   25.4830   -3.9250 C.ar    9  DC9         0.0566
    177  C6       -16.5220   25.6170   -3.8370 C.ar    9  DC9         0.0849
    178  P        -19.6440   29.2470   -5.9450 P.3    10  DA10        0.2141
    179  OP1      -20.7890   29.8180   -6.6960 O.2    10  DA10       -0.5172
    180  OP2      -18.2850   29.3700   -6.5000 O.3    10  DA10       -0.4373
    181  O5'      -19.6780   29.9270   -4.5170 O.3    10  DA10       -0.3114
    182  C5'      -19.1580   31.2070   -4.3390 C.3    10  DA10        0.1812
    183  C4'      -18.5940   31.3350   -2.9670 C.3    10  DA10        0.1775
    184  O4'      -17.9700   30.0960   -2.5370 O.3    10  DA10       -0.3326
    185  C3'      -17.4450   32.3040   -2.9830 C.3    10  DA10        0.1864
    186  O3'      -17.9390   33.6160   -3.0650 O.3    10  DA10       -0.2133
    187  C2'      -16.7030   31.9190   -1.7160 C.3    10  DA10        0.0894
    188  C1'      -16.8000   30.3960   -1.7860 C.3    10  DA10        0.2095
    189  N9       -15.5620   29.9480   -2.5840 N.ar   10  DA10       -0.2714
    190  C8       -15.6500   29.3480   -3.8130 C.ar   10  DA10        0.1815
    191  N7       -14.5580   28.7160   -4.1730 N.ar   10  DA10       -0.2193
    192  C5       -13.6940   28.9150   -3.1080 C.ar   10  DA10        0.1518
    193  C6       -12.3720   28.4980   -2.8720 C.ar   10  DA10        0.1919
    194  N6       -11.6640   27.7620   -3.7320 N.pl3  10  DA10       -0.1054
    195  N1       -11.7970   28.8680   -1.7080 N.ar   10  DA10       -0.2040
    196  C2       -12.5070   29.6050   -0.8460 C.ar   10  DA10        0.2016
    197  N3       -13.7550   30.0570   -0.9550 N.ar   10  DA10       -0.2048
    198  C4       -14.2980   29.6730   -2.1230 C.ar   10  DA10        0.1691
    199  P        -17.1430   34.6620   -3.9470 P.3    11  DC11        0.3939
    200  OP1      -18.3710   34.8530   -3.1460 O.3    11  DC11       -0.1496
    201  OP2      -16.9910   35.4300   -5.1980 O.3    11  DC11       -0.1425
    202  O5'      -15.8530   34.9450   -3.0420 O.3    11  DC11       -0.2926
    203  C5'      -16.0180   35.6360   -1.8100 C.3    11  DC11        0.1828
    204  C4'      -14.7760   35.6040   -0.9420 C.3    11  DC11        0.1747
    205  O4'      -14.3900   34.2400   -0.6600 O.3    11  DC11       -0.3327
    206  C3'      -13.5470   36.2310   -1.5740 C.3    11  DC11        0.1558
    207  O3'      -13.5530   37.6300   -1.3800 O.3    11  DC11       -0.3138
    208  C2'      -12.4130   35.5300   -0.8370 C.3    11  DC11        0.0866
    209  C1'      -12.9810   34.1150   -0.7300 C.3    11  DC11        0.2106
    210  N1       -12.6020   33.2620   -1.9130 N.ar   11  DC11       -0.2556
    211  C2       -11.2740   32.8190   -1.9140 C.ar   11  DC11        0.3531
    212  O2       -10.5480   33.1050   -0.9470 O.2    11  DC11       -0.2443
    213  N3       -10.8210   32.0960   -2.9660 N.ar   11  DC11       -0.1739
    214  C4       -11.6370   31.8140   -3.9830 C.ar   11  DC11        0.1759
    215  N4       -11.1460   31.0990   -4.9980 N.pl3  11  DC11       -0.1070
    216  C5       -12.9850   32.2530   -4.0010 C.ar   11  DC11        0.0566
    217  C6       -13.4290   32.9670   -2.9600 C.ar   11  DC11        0.0849
    218  P        -13.2040   38.5980   -2.5980 P.3    12  DC12        0.2141
    219  OP1      -13.6330   40.0220   -2.5970 O.3    12  DC12       -0.4373
    220  OP2      -13.7010   37.6870   -3.6550 O.2    12  DC12       -0.5172
    221  O5'      -11.6110   38.5120   -2.6280 O.3    12  DC12       -0.3114
    222  C5'      -10.8220   39.0740   -1.5680 C.3    12  DC12        0.1811
    223  C4'       -9.4030   38.5500   -1.6210 C.3    12  DC12        0.1746
    224  O4'       -9.4170   37.1000   -1.5790 O.3    12  DC12       -0.3327
    225  C3'       -8.5720   38.8560   -2.8580 C.3    12  DC12        0.1558
    226  O3'       -8.0360   40.1770   -2.7890 O.3    12  DC12       -0.3138
    227  C2'       -7.4710   37.8100   -2.7450 C.3    12  DC12        0.0866
    228  C1'       -8.2440   36.6050   -2.2030 C.3    12  DC12        0.2106
    229  N1        -8.7090   35.6090   -3.2310 N.ar   12  DC12       -0.2556
    230  C2        -7.7740   34.6560   -3.6520 C.ar   12  DC12        0.3531
    231  O2        -6.6420   34.6620   -3.1390 O.2    12  DC12       -0.2443
    232  N3        -8.1290   33.7600   -4.6040 N.ar   12  DC12       -0.1739
    233  C4        -9.3550   33.7920   -5.1270 C.ar   12  DC12        0.1759
    234  N4        -9.6590   32.8890   -6.0620 N.pl3  12  DC12       -0.1070
    235  C5       -10.3170   34.7490   -4.7140 C.ar   12  DC12        0.0566
    236  C6        -9.9630   35.6330   -3.7740 C.ar   12  DC12        0.0849
    237  P         -7.3790   40.9150   -4.1520 P.3    13  DT13        0.2141
    238  OP1       -6.7970   42.2670   -3.9790 O.3    13  DT13       -0.4373
    239  OP2       -8.4990   40.6660   -5.0860 O.2    13  DT13       -0.5172
    240  O5'       -6.2300   39.9200   -4.6360 O.3    13  DT13       -0.3114
    241  C5'       -4.9690   40.1320   -4.0250 C.3    13  DT13        0.1811
    242  C4'       -4.0110   39.0370   -4.3960 C.3    13  DT13        0.1746
    243  O4'       -4.6140   37.7540   -4.0900 O.3    13  DT13       -0.3327
    244  C3'       -3.6860   38.9240   -5.8730 C.3    13  DT13        0.1558
    245  O3'       -2.7480   39.8810   -6.3250 O.3    13  DT13       -0.3138
    246  C2'       -3.1990   37.4850   -5.9660 C.3    13  DT13        0.0866
    247  C1'       -4.2130   36.8050   -5.0530 C.3    13  DT13        0.2106
    248  N1        -5.4020   36.3720   -5.8400 N.ar   13  DT13       -0.2559
    249  C2        -5.3040   35.2660   -6.6630 C.ar   13  DT13        0.3545
    250  O2        -4.2870   34.6040   -6.7680 O.2    13  DT13       -0.2443
    251  N3        -6.4460   34.9600   -7.3630 N.ar   13  DT13       -0.1533
    252  C4        -7.6480   35.6340   -7.3250 C.ar   13  DT13        0.2804
    253  O4        -8.5870   35.2380   -8.0120 O.2    13  DT13       -0.2654
    254  C5        -7.6700   36.7720   -6.4480 C.ar   13  DT13        0.0534
    255  C6        -6.5740   37.0910   -5.7560 C.ar   13  DT13        0.0824
    256  C7        -8.9340   37.5720   -6.3370 C.3    13  DT13        0.0377
    257  P         -3.1630   40.7180   -7.6270 P.3    14  DG14        0.2141
    258  OP1       -2.7470   42.1260   -7.8320 O.3    14  DG14       -0.4373
    259  OP2       -4.5620   40.3170   -7.9040 O.2    14  DG14       -0.5172
    260  O5'       -2.2990   39.7070   -8.5270 O.3    14  DG14       -0.3114
    261  C5'       -1.0560   39.1730   -8.0880 C.3    14  DG14        0.1811
    262  C4'       -0.6340   37.9550   -8.8820 C.3    14  DG14        0.1746
    263  O4'       -1.4800   36.8200   -8.5600 O.3    14  DG14       -0.3327
    264  C3'       -0.7310   38.0540  -10.3960 C.3    14  DG14        0.1558
    265  O3'        0.3610   38.7360  -10.9800 O.3    14  DG14       -0.3138
    266  C2'       -0.7820   36.5920  -10.8100 C.3    14  DG14        0.0865
    267  C1'       -1.6180   35.9820   -9.6890 C.3    14  DG14        0.2094
    268  N9        -3.0660   35.9470  -10.0130 N.ar   14  DG14       -0.2713
    269  C8        -4.0640   36.7620   -9.5370 C.ar   14  DG14        0.1816
    270  N7        -5.2390   36.4830  -10.0330 N.ar   14  DG14       -0.2173
    271  C5        -5.0070   35.4200  -10.8860 C.ar   14  DG14        0.1748
    272  C6        -5.8990   34.6850  -11.7100 C.ar   14  DG14        0.3023
    273  O6        -7.1180   34.8410  -11.8470 O.2    14  DG14       -0.2633
    274  N1        -5.2450   33.6820  -12.4200 N.ar   14  DG14       -0.1709
    275  C2        -3.8980   33.4190  -12.3460 C.ar   14  DG14        0.2606
    276  N2        -3.4500   32.4100  -13.1050 N.pl3  14  DG14       -0.0859
    277  N3        -3.0570   34.0930  -11.5860 N.ar   14  DG14       -0.1918
    278  C4        -3.6700   35.0730  -10.8880 C.ar   14  DG14        0.1722
    279  P          0.2690   39.2800  -12.5310 P.3    15  DC15        0.2141
    280  OP1        1.4120   40.0880  -13.0300 O.2    15  DC15       -0.5172
    281  OP2       -1.0480   39.9330  -12.3150 O.3    15  DC15       -0.4373
    282  O5'        0.0710   38.0760  -13.5540 O.3    15  DC15       -0.3114
    283  C5'        1.1940   37.2890  -14.0060 C.3    15  DC15        0.1811
    284  C4'        0.7830   36.3990  -15.1590 C.3    15  DC15        0.1746
    285  O4'       -0.1830   35.4100  -14.7060 O.3    15  DC15       -0.3327
    286  C3'        0.0860   37.1120  -16.3070 C.3    15  DC15        0.1558
    287  O3'        1.0060   37.7060  -17.2130 O.3    15  DC15       -0.3138
    288  C2'       -0.7370   35.9970  -16.9420 C.3    15  DC15        0.0866
    289  C1'       -1.1550   35.1870  -15.7170 C.3    15  DC15        0.2106
    290  N1        -2.4580   35.6010  -15.1900 N.ar   15  DC15       -0.2556
    291  C2        -3.5760   35.0570  -15.8340 C.ar   15  DC15        0.3531
    292  O2        -3.4040   34.1490  -16.6650 O.2    15  DC15       -0.2443
    293  N3        -4.8070   35.5350  -15.5330 N.ar   15  DC15       -0.1739
    294  C4        -4.9420   36.5110  -14.6350 C.ar   15  DC15        0.1759
    295  N4        -6.1750   36.9510  -14.3710 N.pl3  15  DC15       -0.1070
    296  C5        -3.8220   37.0750  -13.9720 C.ar   15  DC15        0.0566
    297  C6        -2.6080   36.6000  -14.2710 C.ar   15  DC15        0.0849
    298  P          0.5510   39.0980  -18.1460 P.3    16  DT16        0.2141
    299  OP1        1.7280   39.3690  -19.0130 O.2    16  DT16       -0.5172
    300  OP2       -0.0880   40.2180  -17.4040 O.3    16  DT16       -0.4373
    301  O5'       -0.5700   38.4090  -19.0390 O.3    16  DT16       -0.3114
    302  C5'       -0.2480   37.3320  -19.9120 C.3    16  DT16        0.1811
    303  C4'       -1.3820   37.1040  -20.8720 C.3    16  DT16        0.1746
    304  O4'       -2.5060   36.4880  -20.1810 O.3    16  DT16       -0.3327
    305  C3'       -1.9600   38.3890  -21.4240 C.3    16  DT16        0.1558
    306  O3'       -1.1760   38.9110  -22.4850 O.3    16  DT16       -0.3138
    307  C2'       -3.3530   37.9450  -21.8430 C.3    16  DT16        0.0866
    308  C1'       -3.7260   37.0320  -20.6710 C.3    16  DT16        0.2106
    309  N1        -4.3190   37.8680  -19.5080 N.ar   16  DT16       -0.2559
    310  C2        -5.6890   38.0400  -19.5380 C.ar   16  DT16        0.3544
    311  O2        -6.4020   37.5500  -20.3950 O.3    16  DT16       -0.2458
    312  N3        -6.2000   38.8130  -18.5220 N.ar   16  DT16       -0.1533
    313  C4        -5.4930   39.4160  -17.5030 C.ar   16  DT16        0.2804
    314  O4        -6.0930   40.0810  -16.6620 O.2    16  DT16       -0.2654
    315  C5        -4.0760   39.1910  -17.5420 C.ar   16  DT16        0.0534
    316  C6        -3.5530   38.4440  -18.5180 C.ar   16  DT16        0.0824
    317  C7        -3.2190   39.8070  -16.4760 C.3    16  DT16        0.0377
    318  P         -1.1230   40.4760  -22.7430 P.3    17  DC17        0.2141
    319  OP1       -0.1900   40.9030  -23.8290 O.2    17  DC17       -0.5172
    320  OP2       -1.0100   41.0980  -21.3780 O.3    17  DC17       -0.4373
    321  O5'       -2.6180   40.6830  -23.2720 O.3    17  DC17       -0.3114
    322  C5'       -3.0040   40.1820  -24.5560 C.3    17  DC17        0.1811
    323  C4'       -4.5150   40.2000  -24.7090 C.3    17  DC17        0.1764
    324  O4'       -5.0950   39.5800  -23.5280 O.3    17  DC17       -0.3314
    325  C3'       -5.2160   41.5580  -24.7710 C.3    17  DC17        0.1737
    326  O3'       -5.1950   42.1240  -26.0890 O.3    17  DC17       -0.3121
    327  C2'       -6.6460   41.2070  -24.3500 C.3    17  DC17        0.1543
    328  C1'       -6.3990   40.0970  -23.3320 C.3    17  DC17        0.2293
    329  N1        -6.5260   40.4890  -21.9730 N.ar   17  DC17       -0.2543
    330  C2        -7.7740   40.4640  -21.3380 C.ar   17  DC17        0.3531
    331  O2        -8.7590   40.0510  -21.9730 O.2    17  DC17       -0.2443
    332  N3        -7.8700   40.8920  -20.0570 N.ar   17  DC17       -0.1739
    333  C4        -6.7860   41.3280  -19.4150 C.ar   17  DC17        0.1759
    334  N4        -6.9300   41.7390  -18.1530 N.pl3  17  DC17       -0.1070
    335  C5        -5.5130   41.3610  -20.0400 C.ar   17  DC17        0.0566
    336  C6        -5.4220   40.9380  -21.3060 C.ar   17  DC17        0.0850
    337  P         -5.7060   43.8170  -26.4130 P.3    18  DT18        0.2141
    338  OP1       -4.3570   44.2090  -26.9120 O.2    18  DT18       -0.5172
    339  OP2       -6.0130   43.9250  -24.9540 O.3    18  DT18       -0.4373
    340  O5'       -6.7930   44.6220  -27.2640 O.3    18  DT18       -0.3114
    341  C5'       -7.8900   45.3230  -26.6310 C.3    18  DT18        0.1811
    342  C4'       -9.2070   44.9480  -27.2820 C.3    18  DT18        0.1746
    343  O4'       -9.1140   45.2300  -28.6970 O.3    18  DT18       -0.3327
    344  C3'       -9.5860   43.4710  -27.2090 C.3    18  DT18        0.1558
    345  O3'      -10.3830   43.1230  -26.0610 O.3    18  DT18       -0.3138
    346  C2'      -10.4710   43.2730  -28.4440 C.3    18  DT18        0.0866
    347  C1'       -9.9750   44.3590  -29.4010 C.3    18  DT18        0.2106
    348  N1        -9.5600   43.9700  -30.6090 N.ar   18  DT18       -0.2559
    349  C2       -10.3870   43.9890  -31.7160 C.ar   18  DT18        0.3545
    350  O2       -11.5730   44.2640  -31.6540 O.2    18  DT18       -0.2443
    351  N3        -9.7760   43.6720  -32.9040 N.ar   18  DT18       -0.1533
    352  C4        -8.4490   43.3450  -33.0930 C.ar   18  DT18        0.2804
    353  O4        -8.0450   43.0840  -34.2240 O.2    18  DT18       -0.2654
    354  C5        -7.6550   43.3460  -31.8960 C.ar   18  DT18        0.0534
    355  C6        -8.2250   43.6510  -30.7270 C.ar   18  DT18        0.0824
    356  C7        -6.1980   43.0020  -31.9970 C.3    18  DT18        0.0377
    357  P        -10.3230   43.7700  -24.1160 P.3    19  DA19        0.2141
    358  OP1      -11.2140   44.9370  -24.2910 O.2    19  DA19       -0.5172
    359  OP2       -9.4630   43.6800  -22.9160 O.3    19  DA19       -0.4373
    360  O5'      -11.2280   42.4660  -24.2010 O.3    19  DA19       -0.3114
    361  C5'      -12.3460   42.4060  -25.1060 C.3    19  DA19        0.1811
    362  C4'      -12.4540   41.0320  -25.7130 C.3    19  DA19        0.1744
    363  O4'      -11.2680   40.7610  -26.5030 O.3    19  DA19       -0.3349
    364  C3'      -12.5010   39.8880  -24.7190 C.3    19  DA19        0.1555
    365  O3'      -13.8160   39.6850  -24.2480 O.3    19  DA19       -0.3139
    366  C2'      -12.0180   38.7120  -25.5540 C.3    19  DA19        0.0835
    367  C1'      -10.9470   39.3810  -26.4180 C.3    19  DA19        0.1970
    368  N9        -9.6680   39.1550  -25.8180 N.pl3  19  DA19       -0.2525
    369  C8        -8.9360   40.1140  -25.1680 C.3    19  DA19        0.1917
    370  N7        -7.7230   39.7290  -24.8510 N.pl3  19  DA19       -0.2813
    371  C5        -7.6530   38.4280  -25.3250 C.ar   19  DA19        0.1166
    372  C6        -6.6280   37.4670  -25.3020 C.ar   19  DA19        0.1874
    373  N6        -5.4260   37.6810  -24.7620 N.pl3  19  DA19       -0.1057
    374  N1        -6.8830   36.2650  -25.8610 N.ar   19  DA19       -0.2043
    375  C2        -8.0880   36.0520  -26.4040 C.ar   19  DA19        0.2014
    376  N3        -9.1300   36.8760  -26.4860 N.ar   19  DA19       -0.2075
    377  C4        -8.8440   38.0610  -25.9210 C.ar   19  DA19        0.1526
    378  P        -14.0360   39.3300  -22.6980 P.3    20  DT20        0.2141
    379  OP1      -15.3360   39.7350  -22.1030 O.3    20  DT20       -0.4373
    380  OP2      -12.7820   39.9770  -22.2210 O.2    20  DT20       -0.5172
    381  O5'      -13.8860   37.7500  -22.5140 O.3    20  DT20       -0.3114
    382  C5'      -14.8970   36.8310  -22.9950 C.3    20  DT20        0.1811
    383  C4'      -14.3370   35.4240  -23.0780 C.3    20  DT20        0.1746
    384  O4'      -13.0640   35.4750  -23.7790 O.3    20  DT20       -0.3327
    385  C3'      -14.0150   34.7480  -21.7500 C.3    20  DT20        0.1558
    386  O3'      -15.1460   34.0730  -21.2110 O.3    20  DT20       -0.3138
    387  C2'      -12.9080   33.7670  -22.1220 C.3    20  DT20        0.0866
    388  C1'      -12.1600   34.5420  -23.2080 C.3    20  DT20        0.2106
    389  N1       -10.9730   35.2790  -22.7300 N.ar   20  DT20       -0.2559
    390  C2        -9.7590   34.6220  -22.7720 C.ar   20  DT20        0.3545
    391  O2        -9.6330   33.4860  -23.1950 O.2    20  DT20       -0.2443
    392  N3        -8.6900   35.3440  -22.2990 N.ar   20  DT20       -0.1533
    393  C4        -8.7140   36.6290  -21.7980 C.ar   20  DT20        0.2805
    394  O4        -7.6690   37.1460  -21.4100 O.3    20  DT20       -0.2639
    395  C5       -10.0110   37.2440  -21.7860 C.ar   20  DT20        0.0534
    396  C6       -11.0670   36.5640  -22.2410 C.ar   20  DT20        0.0824
    397  C7       -10.1410   38.6420  -21.2590 C.3    20  DT20        0.0377
    398  P        -15.2260   33.9390  -19.7780 P.3    21  DT21        0.2141
    399  OP1      -16.5750   33.8470  -19.1680 O.3    21  DT21       -0.4373
    400  OP2      -14.4390   35.1870  -19.6500 O.2    21  DT21       -0.5172
    401  O5'      -14.2960   32.7630  -19.2170 O.3    21  DT21       -0.3114
    402  C5'      -14.4710   31.4040  -19.6150 C.3    21  DT21        0.1811
    403  C4'      -13.1290   30.7670  -19.8850 C.3    21  DT21        0.1746
    404  O4'      -12.2370   31.7960  -20.3920 O.3    21  DT21       -0.3327
    405  C3'      -12.3640   30.2340  -18.6950 C.3    21  DT21        0.1558
    406  O3'      -12.8290   28.9330  -18.3610 O.3    21  DT21       -0.3138
    407  C2'      -10.9380   30.1920  -19.2430 C.3    21  DT21        0.0866
    408  C1'      -10.8960   31.4680  -20.0680 C.3    21  DT21        0.2106
    409  N1       -10.3820   32.5840  -19.4040 N.ar   21  DT21       -0.2559
    410  C2        -9.0870   32.5910  -18.9210 C.ar   21  DT21        0.3545
    411  O2        -8.3440   31.6290  -18.9960 O.2    21  DT21       -0.2443
    412  N3        -8.6900   33.7730  -18.3420 N.ar   21  DT21       -0.1533
    413  C4        -9.4400   34.9210  -18.2010 C.ar   21  DT21        0.2804
    414  O4        -8.9440   35.9050  -17.6580 O.2    21  DT21       -0.2654
    415  C5       -10.7740   34.8340  -18.7270 C.ar   21  DT21        0.0534
    416  C6       -11.1860   33.6970  -19.2950 C.ar   21  DT21        0.0824
    417  C7       -11.6700   36.0320  -18.6210 C.3    21  DT21        0.0377
    418  P        -12.3670   28.2270  -16.9370 P.3    22  DC22        0.2141
    419  OP1      -13.2060   27.0420  -16.9240 O.2    22  DC22       -0.5172
    420  OP2      -12.8290   29.4270  -16.1430 O.3    22  DC22       -0.4373
    421  O5'      -10.9090   27.9330  -16.3740 O.3    22  DC22       -0.3114
    422  C5'      -10.1260   26.9260  -17.0260 C.3    22  DC22        0.1811
    423  C4'       -8.6770   27.1410  -16.7310 C.3    22  DC22        0.1746
    424  O4'       -8.3540   28.5150  -17.1090 O.3    22  DC22       -0.3327
    425  C3'       -8.2050   27.0760  -15.2680 C.3    22  DC22        0.1558
    426  O3'       -7.9230   25.6970  -14.9700 O.3    22  DC22       -0.3138
    427  C2'       -6.8820   27.8610  -15.3870 C.3    22  DC22        0.0866
    428  C1'       -7.3680   29.0130  -16.2110 C.3    22  DC22        0.2106
    429  N1        -7.8620   30.2600  -15.5170 N.ar   22  DC22       -0.2556
    430  C2        -6.9810   31.1080  -14.8360 C.ar   22  DC22        0.3531
    431  O2        -5.7810   30.7920  -14.7660 O.2    22  DC22       -0.2443
    432  N3        -7.4600   32.2440  -14.2760 N.ar   22  DC22       -0.1739
    433  C4        -8.7560   32.5420  -14.3760 C.ar   22  DC22        0.1759
    434  N4        -9.1830   33.6730  -13.8080 N.pl3  22  DC22       -0.1070
    435  C5        -9.6650   31.6960  -15.0610 C.ar   22  DC22        0.0566
    436  C6        -9.1870   30.5750  -15.6130 C.ar   22  DC22        0.0849
    437  P         -7.9790   25.2620  -13.6110 P.3    23  DC23        0.2141
    438  OP1       -8.0130   23.7810  -13.5460 O.2    23  DC23       -0.5172
    439  OP2       -9.0460   26.0740  -12.9780 O.3    23  DC23       -0.4373
    440  O5'       -6.6370   25.8080  -12.9200 O.3    23  DC23       -0.3115
    441  C5'       -5.3830   25.1590  -13.1000 C.3    23  DC23        0.1785
    442  C4'       -4.2340   25.9450  -12.5080 C.3    23  DC23        0.1473
    443  O4'       -4.3320   27.3370  -12.9110 O.3    23  DC23       -0.3353
    444  C3'       -4.1580   26.0170  -10.9870 C.3    23  DC23        0.0368
    445  O3'       -3.5970   24.8670  -10.3820 O.3    23  DC23       -0.1270
    446  C2'       -3.3240   27.2680  -10.7590 C.3    23  DC23        0.0566
    447  C1'       -3.8420   28.1710  -11.8800 C.3    23  DC23        0.2081
    448  N1        -4.9170   29.0960  -11.3950 N.ar   23  DC23       -0.2557
    449  C2        -4.5550   30.1690  -10.5720 C.ar   23  DC23        0.3531
    450  O2        -3.3570   30.3200  -10.2800 O.2    23  DC23       -0.2443
    451  N3        -5.5180   31.0070  -10.1190 N.ar   23  DC23       -0.1739
    452  C4        -6.7920   30.8050  -10.4580 C.ar   23  DC23        0.1759
    453  N4        -7.7060   31.6570   -9.9880 N.pl3  23  DC23       -0.1070
    454  C5        -7.1790   29.7240  -11.2910 C.ar   23  DC23        0.0566
    455  C6        -6.2250   28.8990  -11.7360 C.ar   23  DC23        0.0849
    456  P         -4.4900   24.2790   -9.6400 P.3    24  DT24        0.5677
    457  OP1       -3.8240   22.9620   -9.4930 O.2    24  DT24       -0.2249
    458  OP2       -5.7320   24.5940   -8.8950 O.2    24  DT24       -0.2249
    459  O5'       -3.4090   25.4280   -9.3360 O.3    24  DT24       -0.2092
    460  C5'       -2.2810   25.2390   -8.5160 C.3    24  DT24        0.2145
    461  C4'       -1.9340   26.5770   -7.9160 C.3    24  DT24        0.1776
    462  O4'       -2.5760   27.6570   -8.6520 O.3    24  DT24       -0.3326
    463  C3'       -2.4850   26.7810   -6.5280 C.3    24  DT24        0.1559
    464  O3'       -1.7200   26.0740   -5.5750 O.3    24  DT24       -0.3138
    465  C2'       -2.2750   28.2810   -6.4240 C.3    24  DT24        0.0866
    466  C1'       -2.8090   28.7620   -7.7790 C.3    24  DT24        0.2106
    467  N1        -4.2850   29.0800   -7.6330 N.ar   24  DT24       -0.2559
    468  C2        -4.7100   30.2090   -6.9590 C.ar   24  DT24        0.3545
    469  O2        -3.9650   30.9010   -6.2880 O.2    24  DT24       -0.2443
    470  N3        -6.0450   30.5010   -7.0990 N.ar   24  DT24       -0.1533
    471  C4        -6.9780   29.7930   -7.8280 C.ar   24  DT24        0.2804
    472  O4        -8.1430   30.1810   -7.8580 O.2    24  DT24       -0.2654
    473  C5        -6.4600   28.6330   -8.4980 C.ar   24  DT24        0.0534
    474  C6        -5.1650   28.3260   -8.3790 C.ar   24  DT24        0.0824
    475  C7        -7.3970   27.7960   -9.3170 C.3    24  DT24        0.0377
    476  P         -2.4300   25.3530   -4.4900 P.3    25  DC25        0.2141
    477  OP1       -1.4250   24.2870   -4.2550 O.2    25  DC25       -0.5172
    478  OP2       -3.8620   25.1470   -4.1640 O.3    25  DC25       -0.4373
    479  O5'       -2.0300   26.7100   -3.7380 O.3    25  DC25       -0.3114
    480  C5'       -1.7270   26.7890   -2.3590 C.3    25  DC25        0.1811
    481  C4'       -1.8960   28.1990   -1.8730 C.3    25  DC25        0.1746
    482  O4'       -2.6090   28.9800   -2.8630 O.3    25  DC25       -0.3327
    483  C3'       -2.7720   28.3160   -0.6460 C.3    25  DC25        0.1558
    484  O3'       -2.0910   28.0040    0.5460 O.3    25  DC25       -0.3138
    485  C2'       -3.2860   29.7430   -0.7170 C.3    25  DC25        0.0866
    486  C1'       -3.4910   29.8820   -2.2210 C.3    25  DC25        0.2106
    487  N1        -4.9530   29.5160   -2.6510 N.ar   25  DC25       -0.2556
    488  C2        -6.0350   30.3620   -2.3850 C.ar   25  DC25        0.3531
    489  O2        -5.8600   31.3420   -1.6410 O.2    25  DC25       -0.2443
    490  N3        -7.2390   30.0890   -2.9430 N.ar   25  DC25       -0.1739
    491  C4        -7.3800   29.0250   -3.7350 C.ar   25  DC25        0.1759
    492  N4        -8.5850   28.7950   -4.2630 N.pl3  25  DC25       -0.1070
    493  C5        -6.2960   28.1550   -4.0170 C.ar   25  DC25        0.0566
    494  C6        -5.1090   28.4290   -3.4630 C.ar   25  DC25        0.0849
    495  P         -2.9940   27.0230    1.4700 P.3    26  DT26        0.2141
    496  OP1       -1.9550   26.6560    2.4580 O.3    26  DT26       -0.4373
    497  OP2       -3.6510   25.9630    0.6740 O.2    26  DT26       -0.5172
    498  O5'       -4.2140   27.7760    2.1900 O.3    26  DT26       -0.3114
    499  C5'       -3.9910   28.9560    2.9480 C.3    26  DT26        0.1811
    500  C4'       -5.2620   29.7420    3.1620 C.3    26  DT26        0.1746
    501  O4'       -5.8630   30.0610    1.8820 O.3    26  DT26       -0.3327
    502  C3'       -6.3730   29.0300    3.9200 C.3    26  DT26        0.1558
    503  O3'       -6.1790   29.0380    5.3240 O.3    26  DT26       -0.3138
    504  C2'       -7.6200   29.7780    3.4590 C.3    26  DT26        0.0866
    505  C1'       -7.2710   30.0440    1.9940 C.3    26  DT26        0.2106
    506  N1        -7.7890   29.0190    1.0450 N.ar   26  DT26       -0.2559
    507  C2        -9.0150   29.2680    0.4570 C.ar   26  DT26        0.3545
    508  O2        -9.6590   30.2800    0.6670 O.2    26  DT26       -0.2443
    509  N3        -9.4630   28.2830   -0.3900 N.ar   26  DT26       -0.1533
    510  C4        -8.8240   27.1010   -0.7000 C.ar   26  DT26        0.2804
    511  O4        -9.3530   26.3140   -1.4810 O.2    26  DT26       -0.2654
    512  C5        -7.5580   26.9160   -0.0490 C.ar   26  DT26        0.0534
    513  C6        -7.0980   27.8570    0.7790 C.ar   26  DT26        0.0824
    514  C7        -6.7850   25.6600   -0.3220 C.3    26  DT26        0.0377
    515  P         -6.9870   27.9830    6.3190 P.3    27  DG27        0.2141
    516  OP1       -6.6080   28.1600    7.7470 O.3    27  DG27       -0.4373
    517  OP2       -6.9350   26.6310    5.7070 O.2    27  DG27       -0.5172
    518  O5'       -8.4680   28.5450    6.1430 O.3    27  DG27       -0.3114
    519  C5'       -8.8110   29.8660    6.5830 C.3    27  DG27        0.1811
    520  C4'      -10.1840   30.2520    6.0820 C.3    27  DG27        0.1746
    521  O4'      -10.1930   30.2820    4.6290 O.3    27  DG27       -0.3327
    522  C3'      -11.3290   29.3100    6.4140 C.3    27  DG27        0.1558
    523  O3'      -11.7950   29.4830    7.7470 O.3    27  DG27       -0.3138
    524  C2'      -12.3730   29.7410    5.3900 C.3    27  DG27        0.0865
    525  C1'      -11.5000   29.9820    4.1600 C.3    27  DG27        0.2094
    526  N9       -11.4530   28.8340    3.2820 N.ar   27  DG27       -0.2713
    527  C8       -10.3530   28.0310    3.1040 C.ar   27  DG27        0.1816
    528  N7       -10.5130   27.1380    2.1660 N.ar   27  DG27       -0.2173
    529  C5       -11.7920   27.3630    1.6930 C.ar   27  DG27        0.1748
    530  C6       -12.5290   26.7060    0.6730 C.ar   27  DG27        0.3023
    531  O6       -12.1730   25.7580   -0.0380 O.2    27  DG27       -0.2633
    532  N1       -13.7990   27.2530    0.5140 N.ar   27  DG27       -0.1709
    533  C2       -14.2980   28.3030    1.2460 C.ar   27  DG27        0.2606
    534  N2       -15.5450   28.6920    0.9460 N.pl3  27  DG27       -0.0859
    535  N3       -13.6270   28.9230    2.1960 N.ar   27  DG27       -0.1918
    536  C4       -12.3910   28.4080    2.3700 C.ar   27  DG27        0.1722
    537  P        -12.2800   28.1770    8.6230 P.3    28  DT28        0.2141
    538  OP1      -12.5420   28.6150   10.0080 O.3    28  DT28       -0.4373
    539  OP2      -11.4200   27.0120    8.4220 O.2    28  DT28       -0.5172
    540  O5'      -13.6980   27.9690    7.9310 O.3    28  DT28       -0.3114
    541  C5'      -14.7670   28.7340    8.4070 C.3    28  DT28        0.1811
    542  C4'      -16.0290   28.4030    7.6360 C.3    28  DT28        0.1744
    543  O4'      -15.8400   28.6630    6.2420 O.3    28  DT28       -0.3348
    544  C3'      -16.4030   26.9330    7.6730 C.3    28  DT28        0.1555
    545  O3'      -17.1060   26.5850    8.8440 O.3    28  DT28       -0.3139
    546  C2'      -17.2330   26.7500    6.4010 C.3    28  DT28        0.0836
    547  C1'      -16.5460   27.7090    5.4440 C.3    28  DT28        0.1981
    548  N1       -15.6620   26.8110    4.7080 N.am   28  DT28       -0.2373
    549  C2       -16.1230   26.1460    3.5880 C.2    28  DT28        0.3182
    550  O2       -17.2830   26.1900    3.2200 O.2    28  DT28       -0.2517
    551  N3       -15.1720   25.4220    2.9100 N.am   28  DT28       -0.1685
    552  C4       -13.8370   25.2990    3.2340 C.2    28  DT28        0.2397
    553  O4       -13.1040   24.6120    2.5260 O.2    28  DT28       -0.3148
    554  C5       -13.4360   26.0180    4.4100 C.2    28  DT28        0.0289
    555  C6       -14.3400   26.7300    5.0880 C.3    28  DT28        0.1241
    556  C7       -12.0020   25.9470    4.8450 C.3    28  DT28        0.0328
    557  P        -16.2210   25.9090    9.6820 P.3    29  DT29        0.2141
    558  OP1      -16.8050   26.0870   11.0270 O.3    29  DT29       -0.4373
    559  OP2      -14.8900   25.3090    9.4790 O.2    29  DT29       -0.5172
    560  O5'      -17.2780   25.0470    8.8860 O.3    29  DT29       -0.3114
    561  C5'      -18.6270   25.3870    8.9990 C.3    29  DT29        0.1811
    562  C4'      -19.2720   24.8890    7.7400 C.3    29  DT29        0.1744
    563  O4'      -18.6510   25.4830    6.5730 O.3    29  DT29       -0.3346
    564  C3'      -19.0900   23.3960    7.4950 C.3    29  DT29        0.1555
    565  O3'      -19.8400   22.6670    8.4690 O.3    29  DT29       -0.3139
    566  C2'      -19.6200   23.3740    6.0720 C.3    29  DT29        0.0839
    567  C1'      -18.8550   24.5830    5.5030 C.3    29  DT29        0.2017
    568  N1       -17.5340   24.3300    4.9220 N.am   29  DT29       -0.2180
    569  C2       -17.3990   24.0610    3.5730 C.2    29  DT29        0.3323
    570  O2       -18.3470   23.9850    2.8130 O.2    29  DT29       -0.2502
    571  N3       -16.1060   23.8810    3.1440 N.am   29  DT29       -0.1396
    572  C4       -14.9610   23.9430    3.9100 C.3    29  DT29        0.3066
    573  O4       -13.8680   23.7600    3.3800 O.3    29  DT29       -0.1308
    574  C5       -15.1850   24.2260    5.3000 C.2    29  DT29        0.0375
    575  C6       -16.4310   24.4050    5.7440 C.2    29  DT29        0.0685
    576  C7       -14.0010   24.3130    6.2170 C.3    29  DT29        0.0338
    577  P        -19.7280   20.9720    8.6620 P.3    30  DG30        0.2141
    578  OP1      -20.6210   20.2990    9.6210 O.3    30  DG30       -0.4373
    579  OP2      -18.2690   20.8040    8.7780 O.2    30  DG30       -0.5172
    580  O5'      -20.0650   20.4670    7.1840 O.3    30  DG30       -0.3114
    581  C5'      -21.3810   20.0450    6.8710 C.3    30  DG30        0.1811
    582  C4'      -21.6000   20.0180    5.3820 C.3    30  DG30        0.1746
    583  O4'      -20.7570   21.0200    4.7660 O.3    30  DG30       -0.3327
    584  C3'      -21.1810   18.7530    4.6550 C.3    30  DG30        0.1558
    585  O3'      -22.0840   17.6780    4.7980 O.3    30  DG30       -0.3138
    586  C2'      -21.0250   19.2470    3.2250 C.3    30  DG30        0.0865
    587  C1'      -20.3260   20.5670    3.5000 C.3    30  DG30        0.2094
    588  N9       -18.8530   20.2590    3.5220 N.ar   30  DG30       -0.2713
    589  C8       -18.0890   20.5060    4.6360 C.ar   30  DG30        0.1816
    590  N7       -16.8080   20.3720    4.4230 N.ar   30  DG30       -0.2173
    591  C5       -16.7170   20.0170    3.0900 C.ar   30  DG30        0.1748
    592  C6       -15.5840   19.7340    2.2840 C.ar   30  DG30        0.3023
    593  O6       -14.3910   19.7460    2.6110 O.2    30  DG30       -0.2633
    594  N1       -15.9410   19.4120    0.9780 N.ar   30  DG30       -0.1709
    595  C2       -17.2310   19.3680    0.5060 C.ar   30  DG30        0.2606
    596  N2       -17.3770   19.0390   -0.7850 N.pl3  30  DG30       -0.0859
    597  N3       -18.2940   19.6270    1.2420 N.ar   30  DG30       -0.1918
    598  C4       -17.9710   19.9420    2.5140 C.ar   30  DG30        0.1722
    599  P        -21.5250   16.3420    5.3190 P.3    31  DA31        0.2141
    600  OP1      -22.4090   16.0670    6.4700 O.3    31  DA31       -0.4373
    601  OP2      -20.0600   16.2110    5.4950 O.2    31  DA31       -0.5172
    602  O5'      -21.9720   15.3750    4.1210 O.3    31  DA31       -0.3114
    603  C5'      -22.3410   15.8650    2.8290 C.3    31  DA31        0.1811
    604  C4'      -21.4340   15.3410    1.7240 C.3    31  DA31        0.1746
    605  O4'      -20.3990   16.3180    1.4390 O.3    31  DA31       -0.3327
    606  C3'      -20.6320   14.0750    2.0090 C.3    31  DA31        0.1558
    607  O3'      -21.4150   12.8880    1.9010 O.3    31  DA31       -0.3138
    608  C2'      -19.5700   14.1590    0.9170 C.3    31  DA31        0.0865
    609  C1'      -19.2560   15.6540    0.9160 C.3    31  DA31        0.2094
    610  N9       -18.1370   16.0470    1.7780 N.ar   31  DA31       -0.2714
    611  C8       -18.2040   16.2770    3.1270 C.ar   31  DA31        0.1815
    612  N7       -17.0410   16.5340    3.6780 N.ar   31  DA31       -0.2193
    613  C5       -16.1500   16.4660    2.6190 C.ar   31  DA31        0.1518
    614  C6       -14.7570   16.6430    2.5420 C.ar   31  DA31        0.1919
    615  N6       -13.9900   16.9360    3.5950 N.pl3  31  DA31       -0.1054
    616  N1       -14.1740   16.5060    1.3320 N.ar   31  DA31       -0.2040
    617  C2       -14.9440   16.2130    0.2780 C.ar   31  DA31        0.2016
    618  N3       -16.2610   16.0240    0.2250 N.ar   31  DA31       -0.2048
    619  C4       -16.8100   16.1660    1.4430 C.ar   31  DA31        0.1691
    620  P        -20.9880   11.4560    2.8200 P.3    32  DA32        0.2141
    621  OP1      -22.3320   10.8380    2.8610 O.2    32  DA32       -0.5172
    622  OP2      -20.3180   11.9220    4.0540 O.3    32  DA32       -0.4373
    623  O5'      -19.9900   10.4440    2.0970 O.3    32  DA32       -0.3114
    624  C5'      -20.4090    9.7200    0.9600 C.3    32  DA32        0.1811
    625  C4'      -19.3980    9.9340   -0.1490 C.3    32  DA32        0.1746
    626  O4'      -18.8800   11.2770   -0.0420 O.3    32  DA32       -0.3327
    627  C3'      -18.1440    9.0860   -0.0570 C.3    32  DA32        0.1558
    628  O3'      -18.3850    7.7760   -0.5420 O.3    32  DA32       -0.3138
    629  C2'      -17.1790    9.8810   -0.9360 C.3    32  DA32        0.0865
    630  C1'      -17.5750   11.3070   -0.5860 C.3    32  DA32        0.2094
    631  N9       -16.7140   11.8400    0.4090 N.ar   32  DA32       -0.2714
    632  C8       -16.7720   11.6250    1.7610 C.ar   32  DA32        0.1815
    633  N7       -15.8690   12.2900    2.4410 N.ar   32  DA32       -0.2193
    634  C5       -15.1700   12.9890    1.4700 C.ar   32  DA32        0.1518
    635  C6       -14.0850   13.8810    1.5420 C.ar   32  DA32        0.1919
    636  N6       -13.4930   14.2330    2.6860 N.pl3  32  DA32       -0.1054
    637  N1       -13.6250   14.4030    0.3860 N.ar   32  DA32       -0.2040
    638  C2       -14.2200   14.0500   -0.7600 C.ar   32  DA32        0.2016
    639  N3       -15.2450   13.2240   -0.9550 N.ar   32  DA32       -0.2048
    640  C4       -15.6780   12.7210    0.2130 C.ar   32  DA32        0.1691
    641  P        -17.5190    6.6570   -0.1200 P.3    33  DG33        0.2141
    642  OP1      -18.2730    5.4010   -0.3540 O.2    33  DG33       -0.5172
    643  OP2      -17.2170    7.0840    1.2670 O.3    33  DG33       -0.4373
    644  O5'      -16.0770    6.6240   -0.8240 O.3    33  DG33       -0.3114
    645  C5'      -15.8850    7.0190   -2.1770 C.3    33  DG33        0.1811
    646  C4'      -14.4320    7.3040   -2.4970 C.3    33  DG33        0.1746
    647  O4'      -14.0000    8.5310   -1.8510 O.3    33  DG33       -0.3327
    648  C3'      -13.4120    6.2780   -2.0310 C.3    33  DG33        0.1558
    649  O3'      -13.3160    5.1590   -2.8910 O.3    33  DG33       -0.3138
    650  C2'      -12.1280    7.0920   -2.0060 C.3    33  DG33        0.0865
    651  C1'      -12.6300    8.4470   -1.5180 C.3    33  DG33        0.2094
    652  N9       -12.3750    8.6760   -0.2650 N.ar   33  DG33       -0.2713
    653  C8       -13.3120    8.4870    0.7220 C.ar   33  DG33        0.1816
    654  N7       -12.8600    8.7500    1.9180 N.ar   33  DG33       -0.2173
    655  C5       -11.5500    9.1380    1.7120 C.ar   33  DG33        0.1748
    656  C6       -10.5510    9.5430    2.6340 C.ar   33  DG33        0.3023
    657  O6       -10.6380    9.6400    3.8650 O.2    33  DG33       -0.2633
    658  N1        -9.3510    9.8520    2.0000 N.ar   33  DG33       -0.1709
    659  C2        -9.1390    9.7800    0.6440 C.ar   33  DG33        0.2606
    660  N2        -7.9150   10.1200    0.2180 N.pl3  33  DG33       -0.0859
    661  N3       -10.0570    9.4060   -0.2250 N.ar   33  DG33       -0.1918
    662  C4       -11.2300    9.1000    0.3680 C.ar   33  DG33        0.1722
    663  P        -12.9010    3.6870   -2.3080 P.3    34  DA34        0.2141
    664  OP1      -13.1540    2.6760   -3.3780 O.2    34  DA34       -0.5172
    665  OP2      -13.4510    3.4660   -0.9350 O.3    34  DA34       -0.4373
    666  O5'      -11.3340    3.9730   -2.1910 O.3    34  DA34       -0.3114
    667  C5'      -10.5920    4.3310   -3.3520 C.3    34  DA34        0.1811
    668  C4'       -9.1850    4.7120   -2.9870 C.3    34  DA34        0.1746
    669  O4'       -9.1580    5.9460   -2.2270 O.3    34  DA34       -0.3327
    670  C3'       -8.4260    3.7450   -2.1080 C.3    34  DA34        0.1558
    671  O3'       -7.9410    2.6230   -2.8310 O.3    34  DA34       -0.3138
    672  C2'       -7.3130    4.6280   -1.5490 C.3    34  DA34        0.0865
    673  C1'       -8.0510    5.9440   -1.3410 C.3    34  DA34        0.2094
    674  N9        -8.5610    6.0770    0.0150 N.ar   34  DA34       -0.2714
    675  C8        -9.8130    5.7820    0.4900 C.ar   34  DA34        0.1815
    676  N7        -9.9770    6.0660    1.7610 N.ar   34  DA34       -0.2193
    677  C5        -8.7490    6.5810    2.1460 C.ar   34  DA34        0.1518
    678  C6        -8.2730    7.0700    3.3760 C.ar   34  DA34        0.1919
    679  N6        -9.0100    7.1210    4.4870 N.pl3  34  DA34       -0.1054
    680  N1        -6.9970    7.5100    3.4230 N.ar   34  DA34       -0.2040
    681  C2        -6.2590    7.4600    2.3080 C.ar   34  DA34        0.2016
    682  N3        -6.5950    7.0240    1.0960 N.ar   34  DA34       -0.2048
    683  C4        -7.8670    6.5930    1.0830 C.ar   34  DA34        0.1691
    684  P         -7.3270    1.2430   -1.9610 P.3    35  DA35        0.2141
    685  OP1       -6.6500    0.2250   -2.7940 O.2    35  DA35       -0.5172
    686  OP2       -8.5260    0.8750   -1.1710 O.3    35  DA35       -0.4373
    687  O5'       -6.2870    1.7930   -0.8720 O.3    35  DA35       -0.3114
    688  C5'       -4.9390    1.9980   -1.2630 C.3    35  DA35        0.1811
    689  C4'       -4.1560    2.8050   -0.2550 C.3    35  DA35        0.1746
    690  O4'       -4.9510    3.9080    0.2540 O.3    35  DA35       -0.3327
    691  C3'       -3.7020    2.0890    1.0060 C.3    35  DA35        0.1558
    692  O3'       -2.5640    1.2770    0.8100 O.3    35  DA35       -0.3138
    693  C2'       -3.4170    3.2530    1.9430 C.3    35  DA35        0.0865
    694  C1'       -4.5450    4.2130    1.5710 C.3    35  DA35        0.2094
    695  N9        -5.6900    4.0790    2.4750 N.ar   35  DA35       -0.2714
    696  C8        -6.9310    3.5930    2.1590 C.ar   35  DA35        0.1815
    697  N7        -7.7660    3.5750    3.1710 N.ar   35  DA35       -0.2193
    698  C5        -7.0220    4.0840    4.2230 C.ar   35  DA35        0.1518
    699  C6        -7.3330    4.3240    5.5730 C.ar   35  DA35        0.1919
    700  N6        -8.5280    4.0710    6.1120 N.pl3  35  DA35       -0.1054
    701  N1        -6.3630    4.8380    6.3580 N.ar   35  DA35       -0.2040
    702  C2        -5.1660    5.0920    5.8170 C.ar   35  DA35        0.2016
    703  N3        -4.7540    4.9110    4.5640 N.ar   35  DA35       -0.2048
    704  C4        -5.7410    4.3980    3.8100 C.ar   35  DA35        0.1691
    705  P         -2.4300    0.1040    1.7170 P.3    36  DC36        0.2141
    706  OP1       -1.1170   -0.3910    1.2450 O.2    36  DC36       -0.5172
    707  OP2       -3.6370   -0.7530    1.6460 O.3    36  DC36       -0.4373
    708  O5'       -2.3220    0.4890    3.2690 O.3    36  DC36       -0.3114
    709  C5'       -1.1470    1.1090    3.7710 C.3    36  DC36        0.1811
    710  C4'       -1.4000    1.8690    5.0500 C.3    36  DC36        0.1746
    711  O4'       -2.6950    2.5170    4.9950 O.3    36  DC36       -0.3327
    712  C3'       -1.4540    1.0590    6.3340 C.3    36  DC36        0.1558
    713  O3'       -0.1640    0.7540    6.8320 O.3    36  DC36       -0.3138
    714  C2'       -2.2310    1.9910    7.2510 C.3    36  DC36        0.0866
    715  C1'       -3.2360    2.6090    6.2880 C.3    36  DC36        0.2106
    716  N1        -4.5350    1.8240    6.2190 N.ar   36  DC36       -0.2556
    717  C2        -5.3590    1.7560    7.3480 C.ar   36  DC36        0.3531
    718  O2        -5.0240    2.3780    8.3710 O.2    36  DC36       -0.2443
    719  N3        -6.4920    1.0170    7.2940 N.ar   36  DC36       -0.1739
    720  C4        -6.8110    0.3650    6.1750 C.ar   36  DC36        0.1759
    721  N4        -7.9380   -0.3510    6.1680 N.pl3  36  DC36       -0.1070
    722  C5        -5.9900    0.4210    5.0200 C.ar   36  DC36        0.0566
    723  C6        -4.8710    1.1520    5.0780 C.ar   36  DC36        0.0849
    724  P          0.1730   -0.3270    7.6820 P.3    37  DC37        0.2141
    725  OP1        1.6240   -0.6470    7.6450 O.3    37  DC37       -0.4373
    726  OP2       -0.7850   -1.1010    6.8450 O.2    37  DC37       -0.5172
    727  O5'       -0.4090   -0.3820    9.1780 O.3    37  DC37       -0.3114
    728  C5'       -0.2900    0.7240   10.0790 C.3    37  DC37        0.1811
    729  C4'       -1.3980    0.7060   11.1150 C.3    37  DC37        0.1751
    730  O4'       -2.6700    1.0440   10.5140 O.3    37  DC37       -0.3272
    731  C3'       -1.7110   -0.6470   11.7280 C.3    37  DC37        0.1563
    732  O3'       -0.7190   -1.0530   12.6390 O.3    37  DC37       -0.3138
    733  C2'       -3.0550   -0.3780   12.3900 C.3    37  DC37        0.0948
    734  C1'       -3.7120    0.4480   11.2830 C.3    37  DC37        0.2701
    735  N1        -4.5050   -0.4440   10.4310 N.ar   37  DC37       -0.2496
    736  C2        -5.7900   -0.8600   10.7980 C.ar   37  DC37        0.3534
    737  O2        -6.1700   -0.6660   11.9660 O.2    37  DC37       -0.2443
    738  N3        -6.5790   -1.4590    9.8750 N.ar   37  DC37       -0.1739
    739  C4        -6.1290   -1.6470    8.6330 C.ar   37  DC37        0.1759
    740  N4        -6.9420   -2.2420    7.7570 N.pl3  37  DC37       -0.1070
    741  C5        -4.8300   -1.2330    8.2410 C.ar   37  DC37        0.0566
    742  C6        -4.0540   -0.6420    9.1560 C.ar   37  DC37        0.0854
    743  P         -0.2820   -2.4150   12.2810 P.3    38  DA38        0.2141
    744  OP1        1.0230   -2.2300   12.9640 O.3    38  DA38       -0.4373
    745  OP2       -0.4560   -3.4340   11.2180 O.2    38  DA38       -0.5172
    746  O5'       -1.4550   -2.7120   13.3300 O.3    38  DA38       -0.3114
    747  C5'       -1.4030   -3.7360   14.3040 C.3    38  DA38        0.1811
    748  C4'       -2.7890   -4.0840   14.7630 C.3    38  DA38        0.1746
    749  O4'       -3.7660   -3.5060   13.8630 O.3    38  DA38       -0.3327
    750  C3'       -3.0950   -5.5630   14.6980 C.3    38  DA38        0.1558
    751  O3'       -2.5710   -6.2800   15.7910 O.3    38  DA38       -0.3138
    752  C2'       -4.6090   -5.6040   14.5920 C.3    38  DA38        0.0865
    753  C1'       -4.8490   -4.3990   13.6890 C.3    38  DA38        0.2094
    754  N9        -4.9550   -4.6990   12.2730 N.ar   38  DA38       -0.2714
    755  C8        -4.0860   -4.2480   11.3140 C.ar   38  DA38        0.1815
    756  N7        -4.4670   -4.5140   10.0870 N.ar   38  DA38       -0.2193
    757  C5        -5.6680   -5.1860   10.2510 C.ar   38  DA38        0.1518
    758  C6        -6.5770   -5.7370    9.3300 C.ar   38  DA38        0.1919
    759  N6        -6.4060   -5.6940    8.0070 N.pl3  38  DA38       -0.1054
    760  N1        -7.6790   -6.3410    9.8240 N.ar   38  DA38       -0.2040
    761  C2        -7.8490   -6.3830   11.1500 C.ar   38  DA38        0.2016
    762  N3        -7.0670   -5.9010   12.1140 N.ar   38  DA38       -0.2048
    763  C4        -5.9810   -5.3090   11.5910 C.ar   38  DA38        0.1691
    764  P         -2.0420   -7.3190   15.3220 P.3    39  DC39        0.2141
    765  OP1       -1.5660   -8.1320   16.4590 O.3    39  DC39       -0.4373
    766  OP2       -1.1130   -6.9560   14.2310 O.2    39  DC39       -0.5172
    767  O5'       -3.3320   -8.0390   14.7000 O.3    39  DC39       -0.3114
    768  C5'       -4.3380   -8.6360   15.5200 C.3    39  DC39        0.1811
    769  C4'       -5.4290   -9.2510   14.6610 C.3    39  DC39        0.1746
    770  O4'       -5.6810   -8.3820   13.5420 O.3    39  DC39       -0.3327
    771  C3'       -5.0880  -10.5240   13.9090 C.3    39  DC39        0.1558
    772  O3'       -5.0170  -11.6620   14.7600 O.3    39  DC39       -0.3138
    773  C2'       -6.2520  -10.5640   12.9210 C.3    39  DC39        0.0866
    774  C1'       -6.2410   -9.1160   12.4720 C.3    39  DC39        0.2106
    775  N1        -5.4810   -8.8140   11.2890 N.ar   39  DC39       -0.2556
    776  C2        -6.1000   -9.0040   10.0480 C.ar   39  DC39        0.3531
    777  O2        -7.2920   -9.3570   10.0230 O.2    39  DC39       -0.2443
    778  N3        -5.3850   -8.8010    8.9160 N.ar   39  DC39       -0.1739
    779  C4        -4.1080   -8.4240    8.9930 C.ar   39  DC39        0.1759
    780  N4        -3.4430   -8.2360    7.8510 N.pl3  39  DC39       -0.1070
    781  C5        -3.4620   -8.2260   10.2400 C.ar   39  DC39        0.0566
    782  C6        -4.1720   -8.4280   11.3560 C.ar   39  DC39        0.0849
    783  P         -3.9580  -12.3990   14.5090 P.3    40  DT40        0.2141
    784  OP1       -4.1020  -13.4000   15.6110 O.3    40  DT40       -0.4373
    785  OP2       -2.5790  -12.0920   14.0040 O.2    40  DT40       -0.5172
    786  O5'       -4.7670  -12.9050   13.2560 O.3    40  DT40       -0.3114
    787  C5'       -6.1000  -13.4030   13.4640 C.3    40  DT40        0.1811
    788  C4'       -6.7100  -13.6040   12.1180 C.3    40  DT40        0.1746
    789  O4'       -6.7910  -12.3170   11.4110 O.3    40  DT40       -0.3327
    790  C3'       -6.0600  -14.5110   11.1180 C.3    40  DT40        0.1558
    791  O3'       -6.2850  -15.8670   11.4910 O.3    40  DT40       -0.3138
    792  C2'       -6.8120  -14.1040    9.8490 C.3    40  DT40        0.0866
    793  C1'       -6.7930  -12.5810   10.0300 C.3    40  DT40        0.2106
    794  N1        -5.5100  -11.9930    9.4410 N.ar   40  DT40       -0.2559
    795  C2        -5.4250  -11.8000    8.0750 C.ar   40  DT40        0.3545
    796  O2        -6.3050  -12.1340    7.3010 O.2    40  DT40       -0.2443
    797  N3        -4.2680  -11.1980    7.6440 N.ar   40  DT40       -0.1533
    798  C4        -3.2100  -10.7800    8.4240 C.ar   40  DT40        0.2804
    799  O4        -2.2360  -10.2530    7.8920 O.2    40  DT40       -0.2654
    800  C5        -3.3730  -11.0160    9.8310 C.ar   40  DT40        0.0534
    801  C6        -4.4880  -11.6000   10.2770 C.ar   40  DT40        0.0824
    802  C7        -2.2760  -10.5970   10.7640 C.3    40  DT40        0.0377
    803  P         -5.2400  -16.9320   11.0040 P.3    41  DT41        0.2141
    804  OP1       -5.3200  -17.9410   12.0870 O.3    41  DT41       -0.4373
    805  OP2       -3.9680  -16.1700   10.8040 O.2    41  DT41       -0.5172
    806  O5'       -5.6000  -17.6540    9.6320 O.3    41  DT41       -0.3114
    807  C5'       -6.9550  -17.8880    9.2710 C.3    41  DT41        0.1811
    808  C4'       -7.0890  -17.9500    7.7760 C.3    41  DT41        0.1746
    809  O4'       -7.0920  -16.6250    7.1800 O.3    41  DT41       -0.3327
    810  C3'       -5.9440  -18.6590    7.0930 C.3    41  DT41        0.1558
    811  O3'       -6.0710  -20.0630    7.2080 O.3    41  DT41       -0.3138
    812  C2'       -6.0260  -18.1330    5.6690 C.3    41  DT41        0.0866
    813  C1'       -6.4960  -16.6840    5.8920 C.3    41  DT41        0.2106
    814  N1        -5.4240  -15.7110    5.8080 N.ar   41  DT41       -0.2559
    815  C2        -5.2110  -15.0400    4.6190 C.ar   41  DT41        0.3545
    816  O2        -5.9190  -15.1850    3.6380 O.2    41  DT41       -0.2443
    817  N3        -4.1330  -14.1880    4.6170 N.ar   41  DT41       -0.1533
    818  C4        -3.2650  -13.9460    5.6620 C.ar   41  DT41        0.2804
    819  O4        -2.3410  -13.1520    5.5090 O.2    41  DT41       -0.2654
    820  C5        -3.5520  -14.6810    6.8620 C.ar   41  DT41        0.0534
    821  C6        -4.5940  -15.5160    6.8910 C.ar   41  DT41        0.0824
    822  C7        -2.6650  -14.4870    8.0560 C.3    41  DT41        0.0377
    823  P         -4.8130  -21.0780    6.7330 P.3    42  DC42        0.2141
    824  OP1       -5.2990  -22.4750    6.7880 O.2    42  DC42       -0.5172
    825  OP2       -3.5440  -20.7210    7.4270 O.3    42  DC42       -0.4373
    826  O5'       -4.6670  -20.6080    5.2090 O.3    42  DC42       -0.3114
    827  C5'       -5.7160  -20.8820    4.2670 C.3    42  DC42        0.1811
    828  C4'       -5.4110  -20.1940    2.9540 C.3    42  DC42        0.1746
    829  O4'       -5.3280  -18.7660    3.1540 O.3    42  DC42       -0.3327
    830  C3'       -4.0500  -20.5000    2.3710 C.3    42  DC42        0.1558
    831  O3'       -4.0700  -21.7660    1.7500 O.3    42  DC42       -0.3138
    832  C2'       -3.9410  -19.3800    1.3530 C.3    42  DC42        0.0866
    833  C1'       -4.3650  -18.2310    2.2580 C.3    42  DC42        0.2106
    834  N1        -3.2180  -17.6290    3.0120 N.ar   42  DC42       -0.2556
    835  C2        -2.4040  -16.7220    2.3230 C.ar   42  DC42        0.3531
    836  O2        -2.6230  -16.5190    1.1170 O.2    42  DC42       -0.2443
    837  N3        -1.4040  -16.0960    2.9890 N.ar   42  DC42       -0.1739
    838  C4        -1.2050  -16.3460    4.2840 C.ar   42  DC42        0.1759
    839  N4        -0.2080  -15.7060    4.8980 N.pl3  42  DC42       -0.1070
    840  C5        -2.0190  -17.2610    5.0000 C.ar   42  DC42        0.0566
    841  C6        -3.0050  -17.8770    4.3390 C.ar   42  DC42        0.0849
    842  P         -2.7110  -22.6380    1.6290 P.3    43  DC43        0.2141
    843  OP1       -3.0110  -23.9770    1.0810 O.2    43  DC43       -0.5172
    844  OP2       -1.9160  -22.4800    2.8650 O.3    43  DC43       -0.4373
    845  O5'       -1.8360  -21.8640    0.5370 O.3    43  DC43       -0.3114
    846  C5'       -2.1860  -21.8970   -0.8390 C.3    43  DC43        0.1811
    847  C4'       -1.3570  -20.9370   -1.6600 C.3    43  DC43        0.1746
    848  O4'       -1.3900  -19.5860   -1.1190 O.3    43  DC43       -0.3327
    849  C3'        0.1260  -21.2330   -1.6930 C.3    43  DC43        0.1558
    850  O3'        0.4470  -22.3500   -2.4920 O.3    43  DC43       -0.3138
    851  C2'        0.6840  -19.9190   -2.2070 C.3    43  DC43        0.0866
    852  C1'       -0.1600  -18.9390   -1.3920 C.3    43  DC43        0.2106
    853  N1         0.5580  -18.6870   -0.0050 N.ar   43  DC43       -0.2556
    854  C2         1.5900  -17.7420    0.0360 C.ar   43  DC43        0.3531
    855  O2         2.0090  -17.2680   -1.0340 O.2    43  DC43       -0.2443
    856  N3         2.1000  -17.3740    1.2360 N.ar   43  DC43       -0.1739
    857  C4         1.6190  -17.9100    2.3580 C.ar   43  DC43        0.1759
    858  N4         2.1530  -17.5170    3.5170 N.pl3  43  DC43       -0.1070
    859  C5         0.5740  -18.8690    2.3380 C.ar   43  DC43        0.0566
    860  C6         0.0730  -19.2300    1.1510 C.ar   43  DC43        0.0849
    861  P          1.2580  -23.3440   -1.7970 P.3    44  DG44        0.2141
    862  OP1        1.2390  -24.5900   -2.5840 O.2    44  DG44       -0.5172
    863  OP2        1.0810  -23.4030   -0.3280 O.3    44  DG44       -0.4373
    864  O5'        2.6140  -22.5560   -2.0950 O.3    44  DG44       -0.3114
    865  C5'        2.9040  -22.1110   -3.4190 C.3    44  DG44        0.1811
    866  C4'        3.8150  -20.8960   -3.4070 C.3    44  DG44        0.1746
    867  O4'        3.2250  -19.7890   -2.6780 O.3    44  DG44       -0.3327
    868  C3'        5.1360  -21.1070   -2.6960 C.3    44  DG44        0.1558
    869  O3'        6.0150  -21.8170   -3.5380 O.3    44  DG44       -0.3138
    870  C2'        5.5630  -19.6700   -2.4320 C.3    44  DG44        0.0865
    871  C1'        4.2320  -19.0820   -1.9680 C.3    44  DG44        0.2094
    872  N9         3.9950  -19.1960   -0.4530 N.ar   44  DG44       -0.2713
    873  C8         2.9800  -19.8170    0.2340 C.ar   44  DG44        0.1816
    874  N7         3.0910  -19.7050    1.5300 N.ar   44  DG44       -0.2173
    875  C5         4.2460  -18.9660    1.7130 C.ar   44  DG44        0.1748
    876  C6         4.8820  -18.5270    2.9020 C.ar   44  DG44        0.3023
    877  O6         4.5300  -18.7150    4.0730 O.2    44  DG44       -0.2633
    878  N1         6.0400  -17.8010    2.6350 N.ar   44  DG44       -0.1709
    879  C2         6.5240  -17.5320    1.3780 C.ar   44  DG44        0.2606
    880  N2         7.6550  -16.8150    1.3210 N.pl3  44  DG44       -0.0859
    881  N3         5.9450  -17.9340    0.2640 N.ar   44  DG44       -0.1918
    882  C4         4.8190  -18.6410    0.4980 C.ar   44  DG44        0.1722
    883  P          6.8920  -22.8270   -2.9270 P.3    45  DG45        0.2141
    884  OP1        7.9320  -23.4990   -3.7620 O.2    45  DG45       -0.5172
    885  OP2        6.1780  -23.5880   -1.8760 O.3    45  DG45       -0.4373
    886  O5'        7.5730  -21.5250   -2.3180 O.3    45  DG45       -0.3114
    887  C5'        8.3430  -20.6690   -3.1540 C.3    45  DG45        0.1811
    888  C4'        9.3120  -19.8560   -2.3370 C.3    45  DG45        0.1746
    889  O4'        8.5680  -19.0240   -1.4090 O.3    45  DG45       -0.3327
    890  C3'       10.2550  -20.6460   -1.4420 C.3    45  DG45        0.1558
    891  O3'       11.3940  -21.1020   -2.1560 O.3    45  DG45       -0.3138
    892  C2'       10.6270  -19.6130   -0.3890 C.3    45  DG45        0.0865
    893  C1'        9.3020  -18.8820   -0.2060 C.3    45  DG45        0.2094
    894  N9         8.5040  -19.5130    0.8960 N.ar   45  DG45       -0.2713
    895  C8         7.5280  -20.4780    0.8440 C.ar   45  DG45        0.1816
    896  N7         7.1510  -20.8930    2.0230 N.ar   45  DG45       -0.2173
    897  C5         7.9200  -20.1600    2.9070 C.ar   45  DG45        0.1748
    898  C6         7.9610  -20.1720    4.3250 C.ar   45  DG45        0.3023
    899  O6         7.2940  -20.8630    5.1050 O.2    45  DG45       -0.2633
    900  N1         8.8920  -19.2660    4.8270 N.ar   45  DG45       -0.1709
    901  C2         9.6850  -18.4500    4.0570 C.ar   45  DG45        0.2606
    902  N2        10.5220  -17.6420    4.7220 N.pl3  45  DG45       -0.0859
    903  N3         9.6590  -18.4280    2.7390 N.ar   45  DG45       -0.1918
    904  C4         8.7630  -19.3000    2.2300 C.ar   45  DG45        0.1722
    905  P         12.2980  -22.3990   -1.5990 P.3    46  DA46        0.2141
    906  OP1       13.4450  -22.6770   -2.4940 O.2    46  DA46       -0.5172
    907  OP2       11.3680  -23.4970   -1.2350 O.3    46  DA46       -0.4373
    908  O5'       12.8500  -21.8200   -0.2260 O.3    46  DA46       -0.3114
    909  C5'       13.8100  -20.7570   -0.2020 C.3    46  DA46        0.1811
    910  C4'       14.3100  -20.5620    1.2060 C.3    46  DA46        0.1746
    911  O4'       13.2250  -20.0880    2.0480 O.3    46  DA46       -0.3327
    912  C3'       14.7790  -21.8360    1.8850 C.3    46  DA46        0.1558
    913  O3'       16.1170  -22.1680    1.5300 O.3    46  DA46       -0.3138
    914  C2'       14.6030  -21.5150    3.3640 C.3    46  DA46        0.0865
    915  C1'       13.3390  -20.6570    3.3430 C.3    46  DA46        0.2094
    916  N9        12.1050  -21.3940    3.6240 N.ar   46  DA46       -0.2714
    917  C8        11.2280  -21.9680    2.7410 C.ar   46  DA46        0.1815
    918  N7        10.2680  -22.6520    3.3180 N.ar   46  DA46       -0.2193
    919  C5        10.5330  -22.5190    4.6710 C.ar   46  DA46        0.1518
    920  C6         9.8800  -23.0100    5.8160 C.ar   46  DA46        0.1919
    921  N6         8.7810  -23.7660    5.7720 N.pl3  46  DA46       -0.1054
    922  N1        10.4030  -22.6940    7.0190 N.ar   46  DA46       -0.2040
    923  C2        11.5050  -21.9360    7.0620 C.ar   46  DA46        0.2016
    924  N3        12.2060  -21.4140    6.0580 N.ar   46  DA46       -0.2048
    925  C4        11.6610  -21.7480    4.8760 C.ar   46  DA46        0.1691
    926  P         16.5660  -23.7070    1.4930 P.3    47  DA47        0.2141
    927  OP1       17.7090  -23.9520    0.5760 O.2    47  DA47       -0.5172
    928  OP2       15.4280  -24.6570    1.5470 O.3    47  DA47       -0.4373
    929  O5'       17.1320  -23.5140    2.9780 O.3    47  DA47       -0.3114
    930  C5'       18.3000  -22.7270    3.2240 C.3    47  DA47        0.1811
    931  C4'       18.4620  -22.4930    4.7180 C.3    47  DA47        0.1746
    932  O4'       17.2600  -21.8770    5.2400 O.3    47  DA47       -0.3327
    933  C3'       18.6420  -23.7530    5.5520 C.3    47  DA47        0.1558
    934  O3'       20.0230  -24.0050    5.7170 O.3    47  DA47       -0.3138
    935  C2'       17.9560  -23.4410    6.8810 C.3    47  DA47        0.0865
    936  C1'       16.8450  -22.5310    6.4250 C.3    47  DA47        0.2094
    937  N9        15.5850  -23.1130    6.1950 N.ar   47  DA47       -0.2714
    938  C8        15.2100  -23.8310    5.0900 C.ar   47  DA47        0.1815
    939  N7        14.0600  -24.4490    5.2250 N.ar   47  DA47       -0.2193
    940  C5        13.6530  -24.1150    6.5070 C.ar   47  DA47        0.1518
    941  C6        12.5120  -24.4540    7.2560 C.ar   47  DA47        0.1919
    942  N6        11.5320  -25.2350    6.7970 N.pl3  47  DA47       -0.1054
    943  N1        12.4120  -23.9540    8.5060 N.ar   47  DA47       -0.2040
    944  C2        13.3950  -23.1700    8.9650 C.ar   47  DA47        0.2016
    945  N3        14.5130  -22.7810    8.3570 N.ar   47  DA47       -0.2048
    946  C4        14.5830  -23.2950    7.1180 C.ar   47  DA47        0.1691
    947  P         20.5140  -25.5400    6.1300 P.3    48  DA48        0.2141
    948  OP1       21.9640  -25.2730    6.2050 O.3    48  DA48       -0.4373
    949  OP2       20.0110  -26.7270    5.3930 O.2    48  DA48       -0.5172
    950  O5'       19.8090  -25.5740    7.5920 O.3    48  DA48       -0.3114
    951  C5'       20.2590  -24.7100    8.6460 C.3    48  DA48        0.1811
    952  C4'       19.5340  -24.9700    9.9550 C.3    48  DA48        0.1746
    953  O4'       18.1440  -24.7880    9.7620 O.3    48  DA48       -0.3327
    954  C3'       19.6350  -26.3710   10.4850 C.3    48  DA48        0.1558
    955  O3'       20.8080  -26.5420   11.2290 O.3    48  DA48       -0.3138
    956  C2'       18.4010  -26.5210   11.3370 C.3    48  DA48        0.0865
    957  C1'       17.3960  -25.6930   10.5520 C.3    48  DA48        0.2104
    958  N9        16.6700  -26.6930    9.6290 N.ar   48  DA48       -0.2578
    959  C8        16.8180  -26.7320    8.2670 C.ar   48  DA48        0.1824
    960  N7        15.9100  -27.4570    7.6570 N.ar   48  DA48       -0.2203
    961  C5        15.1120  -27.9260    8.6880 C.ar   48  DA48        0.1663
    962  C6        13.9730  -28.7500    8.7030 C.3    48  DA48        0.2953
    963  N6        13.4200  -29.2680    7.6040 N.3    48  DA48       -0.0840
    964  N1        13.4160  -29.0280    9.9020 N.pl3  48  DA48       -0.0631
    965  C2        13.9710  -28.5080   11.0030 C.cat  48  DA48        0.4402
    966  N3        15.0380  -27.7210   11.1160 N.2    48  DA48       -0.0508
    967  C4        15.5680  -27.4650    9.9080 C.ar   48  DA48        0.2438
    968  P         21.3760  -28.0280   10.9700 P.3    49  DT49        0.2141
    969  OP1       22.7570  -28.2010   11.4850 O.3    49  DT49       -0.4373
    970  OP2       21.1440  -27.6790    9.5470 O.2    49  DT49       -0.5172
    971  O5'       20.5320  -29.3550   11.2920 O.3    49  DT49       -0.3114
    972  C5'       20.5850  -29.9610   12.5890 C.3    49  DT49        0.1811
    973  C4'       19.2080  -30.4230   13.0470 C.3    49  DT49        0.1746
    974  O4'       18.1720  -29.6870   12.3410 O.3    49  DT49       -0.3327
    975  C3'       18.8840  -31.8770   12.7660 C.3    49  DT49        0.1558
    976  O3'       19.4100  -32.6950   13.7900 O.3    49  DT49       -0.3138
    977  C2'       17.3640  -31.8340   12.8240 C.3    49  DT49        0.0866
    978  C1'       17.0850  -30.5470   12.0410 C.3    49  DT49        0.2106
    979  N1        16.9750  -30.8130   10.5040 N.ar   49  DT49       -0.2559
    980  C2        15.8660  -31.4770   10.0160 C.ar   49  DT49        0.3545
    981  O2        15.0470  -32.0210   10.7360 O.2    49  DT49       -0.2443
    982  N3        15.7490  -31.4830    8.6470 N.ar   49  DT49       -0.1533
    983  C4        16.6100  -30.9050    7.7380 C.ar   49  DT49        0.2804
    984  O4        16.3700  -30.9940    6.5360 O.2    49  DT49       -0.2654
    985  C5        17.7370  -30.2350    8.3220 C.ar   49  DT49        0.0534
    986  C6        17.8760  -30.2140    9.6510 C.ar   49  DT49        0.0824
    987  C7        18.7320  -29.5740    7.4150 C.3    49  DT49        0.0377
    988  P         19.9990  -34.1280   13.4470 P.3    50  DA50        0.2141
    989  OP1       20.8060  -35.0220   14.3120 O.3    50  DA50       -0.4373
    990  OP2       20.4050  -33.9140   12.0370 O.2    50  DA50       -0.5172
    991  O5'       18.5050  -34.6850   13.4430 O.3    50  DA50       -0.3114
    992  C5'       18.0690  -35.6420   14.4120 C.3    50  DA50        0.1811
    993  C4'       17.1520  -36.6570   13.7670 C.3    50  DA50        0.1746
    994  O4'       16.0120  -35.9650   13.1980 O.3    50  DA50       -0.3327
    995  C3'       17.7630  -37.4350   12.6130 C.3    50  DA50        0.1558
    996  O3'       18.3970  -38.6130   13.1030 O.3    50  DA50       -0.3138
    997  C2'       16.5480  -37.7790   11.7620 C.3    50  DA50        0.0865
    998  C1'       15.6730  -36.5350   11.9450 C.3    50  DA50        0.2094
    999  N9        15.8000  -35.6030   10.8880 N.ar   50  DA50       -0.2714
   1000  C8        16.7560  -34.6350   10.7210 C.ar   50  DA50        0.1815
   1001  N7        16.7000  -34.0300    9.5580 N.ar   50  DA50       -0.2193
   1002  C5        15.6360  -34.6430    8.9170 C.ar   50  DA50        0.1518
   1003  C6        15.0600  -34.4540    7.6480 C.ar   50  DA50        0.1919
   1004  N6        15.4970  -33.5530    6.7650 N.pl3  50  DA50       -0.1054
   1005  N1        14.0070  -35.2310    7.3160 N.ar   50  DA50       -0.2040
   1006  C2        13.5690  -36.1330    8.2020 C.ar   50  DA50        0.2016
   1007  N3        14.0270  -36.4030    9.4230 N.ar   50  DA50       -0.2048
   1008  C4        15.0720  -35.6150    9.7230 C.ar   50  DA50        0.1691
   1009  P         19.7080  -39.3920   12.1920 P.3    51  DA51        0.2141
   1010  OP1       20.4890  -40.3600   13.0010 O.3    51  DA51       -0.4373
   1011  OP2       20.3760  -38.1810   11.6490 O.2    51  DA51       -0.5172
   1012  O5'       19.0240  -40.1720   10.9780 O.3    51  DA51       -0.3114
   1013  C5'       18.2680  -41.3620   11.2100 C.3    51  DA51        0.1811
   1014  C4'       17.4010  -41.6930   10.0120 C.3    51  DA51        0.1746
   1015  O4'       16.5820  -40.5410    9.6780 O.3    51  DA51       -0.3327
   1016  C3'       18.0980  -42.0130    8.6960 C.3    51  DA51        0.1558
   1017  O3'       18.5290  -43.3690    8.6390 O.3    51  DA51       -0.3138
   1018  C2'       16.9810  -41.7800    7.6870 C.3    51  DA51        0.0865
   1019  C1'       16.2650  -40.5740    8.2950 C.3    51  DA51        0.2094
   1020  N9        16.6740  -39.4160    7.6570 N.ar   51  DA51       -0.2714
   1021  C8        17.5750  -38.5090    8.1520 C.ar   51  DA51        0.1815
   1022  N7        17.7040  -37.4340    7.4120 N.ar   51  DA51       -0.2193
   1023  C5        16.8290  -37.6490    6.3580 C.ar   51  DA51        0.1518
   1024  C6        16.4990  -36.8780    5.2300 C.ar   51  DA51        0.1919
   1025  N6        17.0350  -35.6840    4.9680 N.pl3  51  DA51       -0.1054
   1026  N1        15.5880  -37.3830    4.3710 N.ar   51  DA51       -0.2040
   1027  C2        15.0500  -38.5790    4.6350 C.ar   51  DA51        0.2016
   1028  N3        15.2790  -39.3960    5.6610 N.ar   51  DA51       -0.2048
   1029  C4        16.1890  -38.8660    6.4950 C.ar   51  DA51        0.1691
   1030  P         19.5210  -43.8810    7.4030 P.3    52  DG52        0.2141
   1031  OP1       19.7380  -45.3370    7.5790 O.2    52  DG52       -0.5172
   1032  OP2       20.6410  -42.9370    7.6590 O.3    52  DG52       -0.4373
   1033  O5'       18.9690  -43.6040    5.9310 O.3    52  DG52       -0.3114
   1034  C5'       17.9040  -44.3900    5.3890 C.3    52  DG52        0.1811
   1035  C4'       17.5520  -43.9360    3.9860 C.3    52  DG52        0.1746
   1036  O4'       16.8390  -42.6690    4.0260 O.3    52  DG52       -0.3327
   1037  C3'       18.7030  -43.6780    3.0250 C.3    52  DG52        0.1558
   1038  O3'       19.2440  -44.8540    2.4420 O.3    52  DG52       -0.3138
   1039  C2'       18.0690  -42.7600    1.9840 C.3    52  DG52        0.0865
   1040  C1'       17.1160  -41.9330    2.8450 C.3    52  DG52        0.2093
   1041  N9        17.7430  -40.7460    3.1860 N.ar   52  DG52       -0.2736
   1042  C8        18.5540  -40.4370    4.2510 C.ar   52  DG52        0.1814
   1043  N7        19.0830  -39.2470    4.1670 N.ar   52  DG52       -0.2177
   1044  C5        18.5940  -38.7360    2.9790 C.ar   52  DG52        0.1708
   1045  C6        18.8170  -37.4840    2.3510 C.2    52  DG52        0.3054
   1046  O6        19.5210  -36.5450    2.7430 O.2    52  DG52       -0.2648
   1047  N1        18.1240  -37.3740    1.1490 N.am   52  DG52       -0.0862
   1048  C2        17.3150  -38.3500    0.6170 C.3    52  DG52        0.2278
   1049  N2        16.7290  -38.0600   -0.5520 N.3    52  DG52       -0.0120
   1050  N3        17.0990  -39.5180    1.1890 N.pl3  52  DG52       -0.1963
   1051  C4        17.7630  -39.6480    2.3570 C.ar   52  DG52        0.1556
   1052  P         20.6680  -44.7980    1.7530 P.3    53  DA53        0.2141
   1053  OP1       21.4740  -45.9980    2.0700 O.2    53  DA53       -0.5172
   1054  OP2       21.1000  -43.4810    2.2760 O.3    53  DA53       -0.4373
   1055  O5'       20.5590  -44.6740    0.1560 O.3    53  DA53       -0.3114
   1056  C5'       19.3230  -44.3590   -0.4980 C.3    53  DA53        0.1811
   1057  C4'       19.4730  -43.3540   -1.6280 C.3    53  DA53        0.1746
   1058  O4'       18.6950  -42.1740   -1.2970 O.3    53  DA53       -0.3327
   1059  C3'       20.8650  -42.7940   -1.8870 C.3    53  DA53        0.1558
   1060  O3'       21.6630  -43.7040   -2.6430 O.3    53  DA53       -0.3138
   1061  C2'       20.5260  -41.5080   -2.6440 C.3    53  DA53        0.0865
   1062  C1'       19.3280  -41.0220   -1.8330 C.3    53  DA53        0.2094
   1063  N9        19.6240  -40.1140   -0.7980 N.ar   53  DA53       -0.2714
   1064  C8        19.9690  -40.3830    0.5010 C.ar   53  DA53        0.1815
   1065  N7        20.3820  -39.3300    1.1680 N.ar   53  DA53       -0.2193
   1066  C5        20.3030  -38.3010    0.2430 C.ar   53  DA53        0.1518
   1067  C6        20.6010  -36.9290    0.3280 C.ar   53  DA53        0.1919
   1068  N6        21.0550  -36.3380    1.4350 N.pl3  53  DA53       -0.1054
   1069  N1        20.4130  -36.1780   -0.7780 N.ar   53  DA53       -0.2040
   1070  C2        19.9560  -36.7710   -1.8870 C.ar   53  DA53        0.2016
   1071  N3        19.6410  -38.0490   -2.0890 N.ar   53  DA53       -0.2048
   1072  C4        19.8400  -38.7680   -0.9720 C.ar   53  DA53        0.1691
   1073  P         23.2010  -43.8650   -2.3430 P.3    54  DG54        0.2141
   1074  OP1       23.8230  -45.1040   -2.8710 O.2    54  DG54       -0.5172
   1075  OP2       23.1120  -43.6620   -0.8840 O.3    54  DG54       -0.4373
   1076  O5'       23.9660  -42.5970   -2.9420 O.3    54  DG54       -0.3114
   1077  C5'       24.1160  -42.4010   -4.3520 C.3    54  DG54        0.1811
   1078  C4'       24.1260  -40.9210   -4.6780 C.3    54  DG54        0.1746
   1079  O4'       23.2210  -40.2420   -3.7670 O.3    54  DG54       -0.3327
   1080  C3'       25.4240  -40.1450   -4.5130 C.3    54  DG54        0.1558
   1081  O3'       26.2810  -40.2860   -5.6420 O.3    54  DG54       -0.3138
   1082  C2'       24.9100  -38.7180   -4.4200 C.3    54  DG54        0.0865
   1083  C1'       23.6650  -38.9120   -3.5580 C.3    54  DG54        0.2094
   1084  N9        23.9970  -38.7420   -2.1490 N.ar   54  DG54       -0.2713
   1085  C8        24.1430  -39.7130   -1.1890 C.ar   54  DG54        0.1816
   1086  N7        24.5180  -39.2410   -0.0310 N.ar   54  DG54       -0.2173
   1087  C5        24.6240  -37.8780   -0.2350 C.ar   54  DG54        0.1748
   1088  C6        24.9950  -36.8370    0.6550 C.ar   54  DG54        0.3023
   1089  O6        25.3140  -36.9270    1.8480 O.2    54  DG54       -0.2633
   1090  N1        24.9750  -35.5900    0.0360 N.ar   54  DG54       -0.1709
   1091  C2        24.6380  -35.3730   -1.2780 C.ar   54  DG54        0.2606
   1092  N2        24.6760  -34.1000   -1.6950 N.pl3  54  DG54       -0.0859
   1093  N3        24.2920  -36.3290   -2.1170 N.ar   54  DG54       -0.1918
   1094  C4        24.3060  -37.5490   -1.5390 C.ar   54  DG54        0.1722
   1095  P         27.8380  -39.8280   -5.4580 P.3    55  DT55        0.2141
   1096  OP1       28.2980  -40.2500   -6.7930 O.2    55  DT55       -0.5172
   1097  OP2       28.4910  -40.3700   -4.2390 O.3    55  DT55       -0.4373
   1098  O5'       27.8140  -38.2340   -5.3290 O.3    55  DT55       -0.3114
   1099  C5'       27.7460  -37.3620   -6.4680 C.3    55  DT55        0.1812
   1100  C4'       28.1900  -35.9520   -6.0920 C.3    55  DT55        0.1775
   1101  O4'       27.3220  -35.4440   -5.0330 O.3    55  DT55       -0.3326
   1102  C3'       29.6070  -35.8130   -5.5370 C.3    55  DT55        0.1864
   1103  O3'       30.4990  -35.5360   -6.6090 O.3    55  DT55       -0.2133
   1104  C2'       29.4990  -34.6130   -4.6150 C.3    55  DT55        0.0895
   1105  C1'       28.0860  -34.7670   -4.0480 C.3    55  DT55        0.2107
   1106  N1        28.0840  -35.6690   -2.8570 N.ar   55  DT55       -0.2559
   1107  C2        28.2390  -35.0620   -1.6260 C.ar   55  DT55        0.3545
   1108  O2        28.1810  -33.8550   -1.4680 O.2    55  DT55       -0.2443
   1109  N3        28.4670  -35.9220   -0.5790 N.ar   55  DT55       -0.1533
   1110  C4        28.5530  -37.2970   -0.6390 C.ar   55  DT55        0.2804
   1111  O4        28.7620  -37.9350    0.3900 O.2    55  DT55       -0.2654
   1112  C5        28.3830  -37.8520   -1.9520 C.ar   55  DT55        0.0534
   1113  C6        28.1600  -37.0380   -2.9880 C.ar   55  DT55        0.0824
   1114  C7        28.4610  -39.3400   -2.1210 C.3    55  DT55        0.0377
   1115  P         32.0440  -35.5300   -6.3800 P.3    56  DG56        0.3939
   1116  OP1       30.9600  -36.2270   -7.1040 O.3    56  DG56       -0.1496
   1117  OP2       33.3430  -35.3040   -7.0490 O.3    56  DG56       -0.1425
   1118  O5'       31.5270  -34.0480   -6.0540 O.3    56  DG56       -0.2926
   1119  C5'       32.4160  -32.9610   -6.2840 C.3    56  DG56        0.1828
   1120  C4'       31.7180  -31.6380   -6.4970 C.3    56  DG56        0.1747
   1121  O4'       31.0230  -31.6530   -7.7750 O.3    56  DG56       -0.3327
   1122  C3'       30.6870  -31.2590   -5.4350 C.3    56  DG56        0.1558
   1123  O3'       31.0670  -30.1320   -4.6510 O.3    56  DG56       -0.3138
   1124  C2'       29.4130  -30.9040   -6.1970 C.3    56  DG56        0.0865
   1125  C1'       29.7470  -31.0550   -7.6740 C.3    56  DG56        0.2094
   1126  N9        28.7910  -32.2730   -7.9320 N.ar   56  DG56       -0.2713
   1127  C8        28.9830  -33.6330   -7.9230 C.ar   56  DG56        0.1816
   1128  N7        27.8760  -34.3100   -8.0680 N.ar   56  DG56       -0.2173
   1129  C5        26.8950  -33.3440   -8.1820 C.ar   56  DG56        0.1748
   1130  C6        25.4920  -33.4680   -8.3570 C.ar   56  DG56        0.3023
   1131  O6        24.8210  -34.5030   -8.4500 O.2    56  DG56       -0.2633
   1132  N1        24.8640  -32.2280   -8.4220 N.ar   56  DG56       -0.1709
   1133  C2        25.5070  -31.0170   -8.3310 C.ar   56  DG56        0.2606
   1134  N2        24.7310  -29.9280   -8.4180 N.pl3  56  DG56       -0.0859
   1135  N3        26.8090  -30.8850   -8.1680 N.ar   56  DG56       -0.1918
   1136  C4        27.4400  -32.0770   -8.1010 C.ar   56  DG56        0.1722
   1137  P         30.5150  -30.2170   -3.2030 P.3    57  DG57        0.2141
   1138  OP1       31.1980  -29.3470   -2.2140 O.3    57  DG57       -0.4373
   1139  OP2       30.5550  -31.6950   -3.0380 O.2    57  DG57       -0.5172
   1140  O5'       28.9830  -29.7690   -3.2810 O.3    57  DG57       -0.3114
   1141  C5'       28.6090  -28.3840   -3.4580 C.3    57  DG57        0.1811
   1142  C4'       27.1620  -28.2710   -3.9140 C.3    57  DG57        0.1746
   1143  O4'       26.8620  -29.3550   -4.8400 O.3    57  DG57       -0.3327
   1144  C3'       26.0640  -28.3850   -2.8630 C.3    57  DG57        0.1558
   1145  O3'       25.8010  -27.1420   -2.2150 O.3    57  DG57       -0.3138
   1146  C2'       24.8560  -28.8070   -3.6920 C.3    57  DG57        0.0865
   1147  C1'       25.4920  -29.7150   -4.7350 C.3    57  DG57        0.2094
   1148  N9        25.2370  -30.9550   -4.5340 N.ar   57  DG57       -0.2726
   1149  C8        26.2310  -31.8250   -4.1560 C.ar   57  DG57        0.1816
   1150  N7        25.8010  -33.0410   -3.9550 N.ar   57  DG57       -0.2174
   1151  C5        24.4450  -32.9740   -4.2170 C.ar   57  DG57        0.1732
   1152  C6        23.4440  -33.9770   -4.1660 C.ar   57  DG57        0.3022
   1153  O6        23.5710  -35.1720   -3.8690 O.2    57  DG57       -0.2633
   1154  N1        22.1890  -33.4790   -4.5070 N.ar   57  DG57       -0.1736
   1155  C2        21.9310  -32.1750   -4.8540 C.ar   57  DG57        0.2245
   1156  N2        20.6580  -31.8830   -5.1520 N.pl3  57  DG57       -0.1976
   1157  N3        22.8510  -31.2310   -4.9040 N.ar   57  DG57       -0.2461
   1158  C4        24.0760  -31.6920   -4.5760 C.ar   57  DG57        0.1555
   1159  P         24.3950  -27.2260   -1.2210 P.3    58  DT58        0.2141
   1160  OP1       25.0360  -25.8910   -1.1150 O.2    58  DT58       -0.5172
   1161  OP2       23.6070  -27.7600   -0.0820 O.3    58  DT58       -0.4373
   1162  O5'       23.4960  -27.1580   -2.5580 O.3    58  DT58       -0.3114
   1163  C5'       22.1030  -27.4340   -2.5550 C.3    58  DT58        0.1812
   1164  C4'       21.7680  -28.4760   -3.6040 C.3    58  DT58        0.1781
   1165  O4'       22.6620  -29.6230   -3.5500 O.3    58  DT58       -0.3183
   1166  C3'       20.4160  -29.1470   -3.4260 C.3    58  DT58        0.1775
   1167  O3'       19.3270  -28.2740   -3.7000 O.3    58  DT58       -0.3120
   1168  C2'       20.5740  -30.2980   -4.4130 C.3    58  DT58        0.1923
   1169  C1'       21.9490  -30.7920   -3.9460 C.3    58  DT58        0.2693
   1170  N1        22.0980  -31.6880   -2.6640 N.ar   58  DT58       -0.2406
   1171  C2        21.5090  -32.9350   -2.5750 C.ar   58  DT58        0.3558
   1172  O2        20.6610  -33.3260   -3.3570 O.2    58  DT58       -0.2442
   1173  N3        21.9490  -33.7120   -1.5310 N.ar   58  DT58       -0.1533
   1174  C4        22.8980  -33.3750   -0.5880 C.ar   58  DT58        0.2804
   1175  O4        23.1900  -34.1810    0.2920 O.2    58  DT58       -0.2654
   1176  C5        23.4620  -32.0640   -0.7480 C.ar   58  DT58        0.0535
   1177  C6        23.0520  -31.2880   -1.7540 C.ar   58  DT58        0.0841
   1178  C7        24.5030  -31.6040    0.2290 C.3    58  DT58        0.0377
   1179  P         18.1180  -28.2170   -2.6950 P.3    59  DG59        0.2141
   1180  OP1       17.3910  -27.0940   -3.3510 O.2    59  DG59       -0.5172
   1181  OP2       18.3070  -28.2300   -1.2060 O.3    59  DG59       -0.4373
   1182  O5'       17.5270  -29.6570   -3.0370 O.3    59  DG59       -0.3114
   1183  C5'       17.4640  -30.1290   -4.3910 C.3    59  DG59        0.1811
   1184  C4'       16.8800  -31.5070   -4.4380 C.3    59  DG59        0.1746
   1185  O4'       17.9060  -32.4510   -4.0900 O.3    59  DG59       -0.3327
   1186  C3'       15.7300  -31.8050   -3.4610 C.3    59  DG59        0.1558
   1187  O3'       14.4490  -31.4600   -3.9720 O.3    59  DG59       -0.3138
   1188  C2'       15.8080  -33.3120   -3.2950 C.3    59  DG59        0.0865
   1189  C1'       17.3220  -33.5400   -3.3010 C.3    59  DG59        0.2094
   1190  N9        17.8560  -33.5040   -1.8930 N.ar   59  DG59       -0.2713
   1191  C8        18.4710  -32.4780   -1.2160 C.ar   59  DG59        0.1816
   1192  N7        18.7390  -32.7700    0.0270 N.ar   59  DG59       -0.2173
   1193  C5        18.2760  -34.0630    0.1840 C.ar   59  DG59        0.1747
   1194  C6        18.2860  -34.9160    1.3170 C.ar   59  DG59        0.3017
   1195  O6        18.7260  -34.6810    2.4490 O.2    59  DG59       -0.2635
   1196  N1        17.7120  -36.1540    1.0420 N.ar   59  DG59       -0.1677
   1197  C2        17.1920  -36.5250   -0.1750 C.ar   59  DG59        0.2410
   1198  N2        16.6820  -37.7620   -0.2480 N.pl3  59  DG59       -0.1664
   1199  N3        17.1750  -35.7430   -1.2370 N.ar   59  DG59       -0.1933
   1200  C4        17.7270  -34.5350   -0.9930 C.ar   59  DG59        0.1722
   1201  P         13.2260  -31.1130   -2.9560 P.3    60  DT60        0.2141
   1202  OP1       12.0710  -30.7280   -3.8010 O.2    60  DT60       -0.5172
   1203  OP2       13.4820  -30.3840   -1.6830 O.3    60  DT60       -0.4373
   1204  O5'       13.1140  -32.6650   -2.6080 O.3    60  DT60       -0.3114
   1205  C5'       12.7190  -33.6160   -3.6040 C.3    60  DT60        0.1811
   1206  C4'       12.5800  -34.9880   -2.9910 C.3    60  DT60        0.1746
   1207  O4'       13.8820  -35.4630   -2.5570 O.3    60  DT60       -0.3327
   1208  C3'       11.7370  -35.0680   -1.7300 C.3    60  DT60        0.1558
   1209  O3'       10.3420  -35.0810   -1.9910 O.3    60  DT60       -0.3138
   1210  C2'       12.2310  -36.3620   -1.1010 C.3    60  DT60        0.0866
   1211  C1'       13.7280  -36.2720   -1.3990 C.3    60  DT60        0.2106
   1212  N1        14.4350  -35.6410   -0.2810 N.ar   60  DT60       -0.2559
   1213  C2        14.7640  -36.4270    0.8070 C.ar   60  DT60        0.3545
   1214  O2        14.5210  -37.6190    0.8620 O.2    60  DT60       -0.2443
   1215  N3        15.3900  -35.7630    1.8350 N.ar   60  DT60       -0.1533
   1216  C4        15.7130  -34.4230    1.8820 C.ar   60  DT60        0.2804
   1217  O4        16.2760  -33.9720    2.8760 O.2    60  DT60       -0.2654
   1218  C5        15.3380  -33.6750    0.7160 C.ar   60  DT60        0.0534
   1219  C6        14.7280  -34.2940   -0.2980 C.ar   60  DT60        0.0824
   1220  C7        15.6460  -32.2080    0.6720 C.3    60  DT60        0.0377
   1221  P          9.2620  -34.6040   -0.7900 P.3    61  DT61        0.2141
   1222  OP1        7.8700  -34.4270   -1.2580 O.2    61  DT61       -0.5172
   1223  OP2       10.0520  -33.4240   -0.3680 O.3    61  DT61       -0.4373
   1224  O5'        9.2650  -35.6120    0.4490 O.3    61  DT61       -0.3114
   1225  C5'        8.4010  -36.7440    0.5070 C.3    61  DT61        0.1811
   1226  C4'        8.6060  -37.4940    1.8130 C.3    61  DT61        0.1746
   1227  O4'       10.0150  -37.7750    2.0170 O.3    61  DT61       -0.3327
   1228  C3'        8.1980  -36.7270    3.0620 C.3    61  DT61        0.1558
   1229  O3'        6.8070  -36.8410    3.2900 O.3    61  DT61       -0.3138
   1230  C2'        9.0100  -37.4450    4.1310 C.3    61  DT61        0.0866
   1231  C1'       10.3280  -37.6590    3.3940 C.3    61  DT61        0.2106
   1232  N1        11.2810  -36.5690    3.6200 N.ar   61  DT61       -0.2559
   1233  C2        12.0710  -36.5990    4.7540 C.ar   61  DT61        0.3545
   1234  O2        11.9210  -37.4150    5.6450 O.2    61  DT61       -0.2443
   1235  N3        13.0470  -35.6330    4.8080 N.ar   61  DT61       -0.1533
   1236  C4        13.3070  -34.6620    3.8630 C.ar   61  DT61        0.2804
   1237  O4        14.2200  -33.8630    4.0530 O.2    61  DT61       -0.2654
   1238  C5        12.4440  -34.6960    2.7160 C.ar   61  DT61        0.0534
   1239  C6        11.4870  -35.6240    2.6380 C.ar   61  DT61        0.0824
   1240  C7        12.6470  -33.6790    1.6320 C.3    61  DT61        0.0377
   1241  P          6.2090  -35.8290    3.8710 P.3    62  DG62        0.2141
   1242  OP1        4.8120  -36.2980    3.7640 O.2    62  DG62       -0.5172
   1243  OP2        6.5020  -34.3750    3.8260 O.3    62  DG62       -0.4373
   1244  O5'        6.8440  -36.4170    5.2200 O.3    62  DG62       -0.3114
   1245  C5'        6.2520  -37.5190    5.9090 C.3    62  DG62        0.1811
   1246  C4'        6.6960  -37.5270    7.3540 C.3    62  DG62        0.1746
   1247  O4'        8.1270  -37.8000    7.4280 O.3    62  DG62       -0.3327
   1248  C3'        6.4980  -36.1960    8.0750 C.3    62  DG62        0.1558
   1249  O3'        5.2000  -36.0510    8.6630 O.3    62  DG62       -0.3138
   1250  C2'        7.5900  -36.2270    9.1360 C.3    62  DG62        0.0865
   1251  C1'        8.7220  -36.9700    8.4140 C.3    62  DG62        0.2094
   1252  N9         9.6340  -35.9960    7.7170 N.ar   62  DG62       -0.2713
   1253  C8         9.5380  -35.4730    6.4500 C.ar   62  DG62        0.1816
   1254  N7        10.3790  -34.5000    6.2290 N.ar   62  DG62       -0.2173
   1255  C5        11.0740  -34.3700    7.4170 C.ar   62  DG62        0.1748
   1256  C6        12.1140  -33.4790    7.7860 C.ar   62  DG62        0.3023
   1257  O6        12.6440  -32.5950    7.1010 O.2    62  DG62       -0.2633
   1258  N1        12.5380  -33.6870    9.0960 N.ar   62  DG62       -0.1709
   1259  C2        12.0230  -34.6370    9.9450 C.ar   62  DG62        0.2606
   1260  N2        12.5620  -34.6870   11.1710 N.pl3  62  DG62       -0.0859
   1261  N3        11.0560  -35.4710    9.6170 N.ar   62  DG62       -0.1918
   1262  C4        10.6280  -35.2870    8.3500 C.ar   62  DG62        0.1722
   1263  P          4.4480  -34.3030    8.9970 P.3    63  DG63        0.2141
   1264  OP1        2.9980  -34.0470    9.1550 O.3    63  DG63       -0.4373
   1265  OP2        5.0750  -34.2530    7.6560 O.2    63  DG63       -0.5172
   1266  O5'        5.2730  -33.2310    9.8590 O.3    63  DG63       -0.3114
   1267  C5'        5.0480  -33.0990   11.2570 C.3    63  DG63        0.1811
   1268  C4'        6.3350  -32.9170   12.0260 C.3    63  DG63        0.1746
   1269  O4'        7.4640  -33.3780   11.2310 O.3    63  DG63       -0.3327
   1270  C3'        6.7250  -31.4910   12.3910 C.3    63  DG63        0.1558
   1271  O3'        6.0040  -30.9610   13.4920 O.3    63  DG63       -0.3138
   1272  C2'        8.2180  -31.6430   12.6600 C.3    63  DG63        0.0865
   1273  C1'        8.6190  -32.6300   11.5620 C.3    63  DG63        0.2094
   1274  N9         9.1040  -31.9840   10.3230 N.ar   63  DG63       -0.2713
   1275  C8         8.6470  -32.2600    9.0570 C.ar   63  DG63        0.1816
   1276  N7         9.3400  -31.6720    8.1200 N.ar   63  DG63       -0.2173
   1277  C5        10.3130  -30.9670    8.8040 C.ar   63  DG63        0.1757
   1278  C6        11.3570  -30.1340    8.3260 C.ar   63  DG63        0.3126
   1279  O6        11.6340  -29.8490    7.1540 O.2    63  DG63       -0.2624
   1280  N1        12.1220  -29.6100    9.3650 N.ar   63  DG63       -0.1175
   1281  C2        11.9060  -29.8570   10.6990 C.ar   63  DG63        0.3321
   1282  N2        12.7500  -29.2620   11.5540 N.pl3  63  DG63       -0.0115
   1283  N3        10.9400  -30.6270   11.1580 N.ar   63  DG63       -0.1769
   1284  C4        10.1840  -31.1470   10.1680 C.ar   63  DG63        0.1737
   1285  P          5.8510  -29.3180   13.7340 P.3    64  DC64        0.2141
   1286  OP1        4.7290  -29.2970   14.6980 O.3    64  DC64       -0.4373
   1287  OP2        5.6200  -28.9700   12.3150 O.2    64  DC64       -0.5172
   1288  O5'        6.9800  -28.2960   14.2220 O.3    64  DC64       -0.3114
   1289  C5'        7.3660  -28.3630   15.5840 C.3    64  DC64        0.1811
   1290  C4'        8.7510  -27.8180   15.8250 C.3    64  DC64        0.1746
   1291  O4'        9.7010  -28.4460   14.9280 O.3    64  DC64       -0.3327
   1292  C3'        8.9550  -26.3350   15.5660 C.3    64  DC64        0.1558
   1293  O3'        8.4100  -25.4940   16.5720 O.3    64  DC64       -0.3138
   1294  C2'       10.4700  -26.2590   15.4080 C.3    64  DC64        0.0866
   1295  C1'       10.7120  -27.5250   14.5870 C.3    64  DC64        0.2106
   1296  N1        10.5770  -27.2260   13.0900 N.ar   64  DC64       -0.2556
   1297  C2        11.5360  -26.4880   12.3870 C.ar   64  DC64        0.3531
   1298  O2        12.3900  -25.8520   13.0280 O.2    64  DC64       -0.2443
   1299  N3        11.5050  -26.4880   11.0330 N.ar   64  DC64       -0.1739
   1300  C4        10.5690  -27.1840   10.3870 C.ar   64  DC64        0.1759
   1301  N4        10.5780  -27.1540    9.0520 N.pl3  64  DC64       -0.1070
   1302  C5         9.5880  -27.9380   11.0810 C.ar   64  DC64        0.0566
   1303  C6         9.6230  -27.9360   12.4180 C.ar   64  DC64        0.0849
   1304  P          7.2470  -24.7360   16.1880 P.3    65  DT65        0.2141
   1305  OP1        6.1410  -24.5840   17.1810 O.3    65  DT65       -0.4373
   1306  OP2        6.9710  -24.5560   14.7330 O.2    65  DT65       -0.5172
   1307  O5'        8.4810  -23.8500   16.6790 O.3    65  DT65       -0.3114
   1308  C5'        8.5390  -22.4800   16.3620 C.3    65  DT65        0.1811
   1309  C4'        9.7440  -22.1580   15.4880 C.3    65  DT65        0.1746
   1310  O4'       10.0740  -23.2230   14.5560 O.3    65  DT65       -0.3327
   1311  C3'        9.4680  -21.0170   14.5290 C.3    65  DT65        0.1558
   1312  O3'        9.4320  -19.7700   15.1960 O.3    65  DT65       -0.3138
   1313  C2'       10.6020  -21.1440   13.5290 C.3    65  DT65        0.0866
   1314  C1'       10.7400  -22.6600   13.4360 C.3    65  DT65        0.2106
   1315  N1        10.2980  -23.2340   12.3180 N.ar   65  DT65       -0.2559
   1316  C2        10.7360  -22.7390   11.1050 C.ar   65  DT65        0.3545
   1317  O2        11.6280  -21.9150   11.0070 O.2    65  DT65       -0.2443
   1318  N3        10.0900  -23.2450   10.0030 N.ar   65  DT65       -0.1533
   1319  C4         9.0720  -24.1760    9.9940 C.ar   65  DT65        0.2804
   1320  O4         8.5900  -24.5350    8.9220 O.2    65  DT65       -0.2654
   1321  C5         8.6720  -24.6410   11.2920 C.ar   65  DT65        0.0534
   1322  C6         9.2840  -24.1650   12.3800 C.ar   65  DT65        0.0824
   1323  C7         7.5710  -25.6550   11.3870 C.3    65  DT65        0.0377
   1324  P          8.0740  -18.5850   14.8670 P.3    66  DC66        0.2141
   1325  OP1        7.9850  -17.4880   15.8460 O.3    66  DC66       -0.4373
   1326  OP2        6.8520  -19.0790   14.2090 O.2    66  DC66       -0.5172
   1327  O5'        9.0180  -18.1360   13.6580 O.3    66  DC66       -0.3114
   1328  C5'       10.0580  -17.2030   13.8910 C.3    66  DC66        0.1811
   1329  C4'       11.0700  -17.2330   12.7760 C.3    66  DC66        0.1746
   1330  O4'       11.1030  -18.5640   12.2080 O.3    66  DC66       -0.3327
   1331  C3'       10.7710  -16.3720   11.5620 C.3    66  DC66        0.1558
   1332  O3'       11.0320  -14.9980   11.7480 O.3    66  DC66       -0.3138
   1333  C2'       11.6310  -17.0270   10.4910 C.3    66  DC66        0.0866
   1334  C1'       11.3610  -18.4840   10.8230 C.3    66  DC66        0.2106
   1335  N1        10.2120  -18.9460    9.9770 N.ar   66  DC66       -0.2556
   1336  C2        10.2520  -19.0370    8.5810 C.ar   66  DC66        0.3531
   1337  O2        11.1740  -18.4690    7.9710 O.2    66  DC66       -0.2443
   1338  N3         9.2870  -19.7370    7.9380 N.ar   66  DC66       -0.1739
   1339  C4         8.3160  -20.3280    8.6350 C.ar   66  DC66        0.1759
   1340  N4         7.3870  -21.0070    7.9580 N.pl3  66  DC66       -0.1070
   1341  C5         8.2580  -20.2480   10.0500 C.ar   66  DC66        0.0566
   1342  C6         9.2120  -19.5560   10.6810 C.ar   66  DC66        0.0849
   1343  P          9.8650  -14.0000   11.4270 P.3    67  DC67        0.2141
   1344  OP1       10.5390  -12.9850   12.2770 O.3    67  DC67       -0.4373
   1345  OP2        8.4190  -14.3230   11.5830 O.2    67  DC67       -0.5172
   1346  O5'       10.0000  -13.5820    9.8820 O.3    67  DC67       -0.3114
   1347  C5'       11.0270  -12.7740    9.3560 C.3    67  DC67        0.1811
   1348  C4'       11.1490  -13.0230    7.8650 C.3    67  DC67        0.1746
   1349  O4'       11.0730  -14.4460    7.5500 O.3    67  DC67       -0.3327
   1350  C3'       10.0340  -12.4570    7.0080 C.3    67  DC67        0.1558
   1351  O3'       10.1050  -11.0510    6.8480 O.3    67  DC67       -0.3138
   1352  C2'       10.3550  -13.1640    5.7090 C.3    67  DC67        0.0866
   1353  C1'       10.6320  -14.5680    6.2190 C.3    67  DC67        0.2106
   1354  N1         9.4420  -15.4330    6.2010 N.ar   67  DC67       -0.2556
   1355  C2         8.7850  -15.8510    5.0380 C.ar   67  DC67        0.3531
   1356  O2         9.1770  -15.4190    3.9410 O.2    67  DC67       -0.2443
   1357  N3         7.7440  -16.7120    5.1420 N.ar   67  DC67       -0.1739
   1358  C4         7.3570  -17.1490    6.3410 C.ar   67  DC67        0.1759
   1359  N4         6.3260  -17.9960    6.3950 N.pl3  67  DC67       -0.1070
   1360  C5         8.0100  -16.7370    7.5310 C.ar   67  DC67        0.0566
   1361  C6         9.0370  -15.8870    7.4240 C.ar   67  DC67        0.0849
   1362  P          8.7620  -10.1970    6.4310 P.3    68  DC68        0.2141
   1363  OP1        8.8480   -8.7390    6.2060 O.2    68  DC68       -0.5172
   1364  OP2        7.6060  -10.7440    7.1790 O.3    68  DC68       -0.4373
   1365  O5'        8.7140  -10.9130    4.9930 O.3    68  DC68       -0.3114
   1366  C5'        9.5760  -10.5020    3.9320 C.3    68  DC68        0.1811
   1367  C4'        9.0420  -10.8670    2.5660 C.3    68  DC68        0.1746
   1368  O4'        8.8790  -12.3100    2.5300 O.3    68  DC68       -0.3327
   1369  C3'        7.6860  -10.2500    2.2080 C.3    68  DC68        0.1558
   1370  O3'        7.6740   -9.4960    0.9890 O.3    68  DC68       -0.3138
   1371  C2'        6.7290  -11.4300    2.0740 C.3    68  DC68        0.0866
   1372  C1'        7.5850  -12.6830    2.0990 C.3    68  DC68        0.2106
   1373  N1         7.1290  -13.5910    3.1430 N.ar   68  DC68       -0.2556
   1374  C2         6.0680  -14.3900    2.7020 C.ar   68  DC68        0.3531
   1375  O2         5.9340  -14.5870    1.4830 O.2    68  DC68       -0.2443
   1376  N3         5.2200  -14.9220    3.6150 N.ar   68  DC68       -0.1739
   1377  C4         5.4030  -14.6830    4.9140 C.ar   68  DC68        0.1759
   1378  N4         4.5420  -15.2290    5.7770 N.pl3  68  DC68       -0.1070
   1379  C5         6.4720  -13.8760    5.3810 C.ar   68  DC68        0.0566
   1380  C6         7.3070  -13.3520    4.4760 C.ar   68  DC68        0.0849
   1381  P          6.4500   -8.3440    0.6280 P.3    69  DG69        0.2141
   1382  OP1        6.6760   -7.0960   -0.1420 O.2    69  DG69       -0.5172
   1383  OP2        5.8700   -8.2620    1.9910 O.3    69  DG69       -0.4373
   1384  O5'        5.5110   -9.2780   -0.2550 O.3    69  DG69       -0.3114
   1385  C5'        5.8330   -9.5590   -1.6230 C.3    69  DG69        0.1811
   1386  C4'        4.7430  -10.3910   -2.2510 C.3    69  DG69        0.1746
   1387  O4'        4.7440  -11.7320   -1.6840 O.3    69  DG69       -0.3327
   1388  C3'        3.3320   -9.9030   -1.9930 C.3    69  DG69        0.1558
   1389  O3'        2.9760   -8.7960   -2.8040 O.3    69  DG69       -0.3138
   1390  C2'        2.5160  -11.1600   -2.2590 C.3    69  DG69        0.0865
   1391  C1'        3.4080  -12.2150   -1.5980 C.3    69  DG69        0.2094
   1392  N9         3.0010  -12.3000   -0.1930 N.ar   69  DG69       -0.2713
   1393  C8         3.5550  -11.6490    0.8830 C.ar   69  DG69        0.1816
   1394  N7         2.9470  -11.9040    2.0090 N.ar   69  DG69       -0.2173
   1395  C5         1.9330  -12.7760    1.6610 C.ar   69  DG69        0.1748
   1396  C6         0.9390  -13.4010    2.4580 C.ar   69  DG69        0.3023
   1397  O6         0.7580  -13.2980    3.6770 O.2    69  DG69       -0.2633
   1398  N1         0.1010  -14.2150    1.7010 N.ar   69  DG69       -0.1709
   1399  C2         0.2070  -14.4040    0.3440 C.ar   69  DG69        0.2606
   1400  N2        -0.6930  -15.2270   -0.2110 N.pl3  69  DG69       -0.0859
   1401  N3         1.1250  -13.8300   -0.4100 N.ar   69  DG69       -0.1918
   1402  C4         1.9490  -13.0340    0.3040 C.ar   69  DG69        0.1722
   1403  P          1.8500   -7.7680   -2.2680 P.3    70  DT70        0.2141
   1404  OP1        1.7390   -6.5470   -3.0970 O.2    70  DT70       -0.5172
   1405  OP2        2.2840   -7.6920   -0.8530 O.3    70  DT70       -0.4373
   1406  O5'        0.4380   -8.5220   -2.2040 O.3    70  DT70       -0.3114
   1407  C5'       -0.1570   -9.0190   -3.3930 C.3    70  DT70        0.1811
   1408  C4'       -1.3090   -9.9520   -3.1040 C.3    70  DT70        0.1746
   1409  O4'       -0.8840  -11.0270   -2.2280 O.3    70  DT70       -0.3327
   1410  C3'       -2.5050   -9.3380   -2.3980 C.3    70  DT70        0.1558
   1411  O3'       -3.3590   -8.6620   -3.3040 O.3    70  DT70       -0.3138
   1412  C2'       -3.1590  -10.5400   -1.7240 C.3    70  DT70        0.0866
   1413  C1'       -1.9560  -11.4310   -1.4040 C.3    70  DT70        0.2106
   1414  N1        -1.4140  -11.3170   -0.0890 N.ar   70  DT70       -0.2559
   1415  C2        -2.0350  -11.9890    0.9470 C.ar   70  DT70        0.3545
   1416  O2        -3.0480  -12.6490    0.7970 O.2    70  DT70       -0.2443
   1417  N3        -1.4270  -11.8580    2.1720 N.ar   70  DT70       -0.1533
   1418  C4        -0.2850  -11.1390    2.4580 C.ar   70  DT70        0.2804
   1419  O4         0.1430  -11.1170    3.6100 O.2    70  DT70       -0.2654
   1420  C5         0.3000  -10.4690    1.3310 C.ar   70  DT70        0.0534
   1421  C6        -0.2710  -10.5800    0.1290 C.ar   70  DT70        0.0824
   1422  C7         1.5450   -9.6590    1.5410 C.3    70  DT70        0.0377
   1423  P         -3.7980   -7.4550   -2.9570 P.3    71  DA71        0.2141
   1424  OP1       -4.4870   -6.5130   -3.8760 O.2    71  DA71       -0.5172
   1425  OP2       -2.8990   -6.9240   -1.9140 O.3    71  DA71       -0.4373
   1426  O5'       -4.9050   -8.3620   -2.2550 O.3    71  DA71       -0.3114
   1427  C5'       -5.8180   -9.1410   -3.0350 C.3    71  DA71        0.1812
   1428  C4'       -6.8440   -9.7930   -2.1470 C.3    71  DA71        0.1775
   1429  O4'       -6.1740  -10.7460   -1.2920 O.3    71  DA71       -0.3326
   1430  C3'       -7.5670   -8.8320   -1.2160 C.3    71  DA71        0.1859
   1431  O3'       -8.7340   -8.3010   -1.8540 O.3    71  DA71       -0.2203
   1432  C2'       -7.9040   -9.7020   -0.0070 C.3    71  DA71        0.0894
   1433  C1'       -6.7410  -10.7000   -0.0010 C.3    71  DA71        0.2095
   1434  N9        -5.5470  -10.3190    0.7870 N.ar   71  DA71       -0.2714
   1435  C8        -4.6330   -9.3370    0.5100 C.ar   71  DA71        0.1815
   1436  N7        -3.9440   -8.9450    1.5560 N.ar   71  DA71       -0.2193
   1437  C5        -4.4410   -9.7220    2.5900 C.ar   71  DA71        0.1518
   1438  C6        -4.1250   -9.7900    3.9590 C.ar   71  DA71        0.1919
   1439  N6        -3.1920   -9.0310    4.5400 N.pl3  71  DA71       -0.1054
   1440  N1        -4.8080  -10.6740    4.7170 N.ar   71  DA71       -0.2040
   1441  C2        -5.7410  -11.4340    4.1330 C.ar   71  DA71        0.2016
   1442  N3        -6.1260  -11.4630    2.8590 N.ar   71  DA71       -0.2048
   1443  C4        -5.4290  -10.5730    2.1330 C.ar   71  DA71        0.1691
   1444  P         -8.3010   -6.0170   -0.2990 P.3    72  DT72        0.5411
   1445  OP1       -8.6390   -4.7010    0.3070 O.2    72  DT72       -0.2272
   1446  OP2       -7.0400   -6.7070    0.0920 O.2    72  DT72       -0.2272
   1447  O5'       -9.5040   -7.0360   -0.0580 O.3    72  DT72       -0.2722
   1448  C5'       -9.9720   -7.2860    1.2570 C.3    72  DT72        0.1850
   1449  C4'      -11.3450   -7.9150    1.2300 C.3    72  DT72        0.1755
   1450  O4'      -11.2260   -9.3380    0.9460 O.3    72  DT72       -0.3510
   1451  C3'      -12.0240   -7.8580    2.5880 C.3    72  DT72        0.1839
   1452  O3'      -12.6870   -6.6170    2.7770 O.3    72  DT72       -0.2204
   1453  C2'      -12.9430   -9.0710    2.5650 C.3    72  DT72        0.0676
   1454  C1'      -12.0790  -10.0800    1.8080 C.3    72  DT72        0.1450
   1455  N1        -8.9930   -7.5280    3.5970 N.2    72  DT72       -0.1608
   1456  C2        -8.5200   -7.5820    4.8940 C.1    72  DT72        0.2395
   1457  O2        -9.1480   -8.0830    5.8100 O.2    72  DT72       -0.2041
   1458  N3        -7.2780   -7.0250    5.0840 N.am   72  DT72       -0.0881
   1459  C4        -6.4810   -6.4320    4.1280 C.2    72  DT72        0.2768
   1460  O4        -5.3860   -5.9770    4.4510 O.2    72  DT72       -0.2676
   1461  C5        -7.0420   -6.4140    2.8060 C.2    72  DT72        0.0541
   1462  C6        -8.2470   -6.9480    2.5940 C.2    72  DT72        0.1126
   1463  C7        -6.2500   -5.7900    1.6950 C.3    72  DT72        0.0376
@<TRIPOS>BOND
     1   353   352    2
     2   352   351   ar
     3   352   354   ar
     4   351   349   ar
     5   356   354    1
     6   354   355   ar
     7   349   350    2
     8   349   348   ar
     9   355   348   ar
    10   348   347    1
    11   347   343    1
    12   347   346    1
    13   343   342    1
    14   346   344    1
    15   342   344    1
    16   342   341    1
    17   340   341    1
    18   340   337    1
    19   344   345    1
    20   338   337    2
    21   363   367    1
    22   363   362    1
    23   376   375   ar
    24   376   377   ar
    25   367   368    1
    26   367   366    1
    27   337   326    1
    28   337   339    1
    29   375   374   ar
    30   326   325    1
    31   345   357    1
    32   377   368    1
    33   377   371   ar
    34   374   372   ar
    35   368   369    1
    36   362   361    1
    37   362   364    1
    38   366   364    1
    39   371   372   ar
    40   371   370    1
    41   372   373    1
    42   369   370    1
    43   361   360    1
    44   370   327    1
    45   325   323    1
    46   325   327    1
    47   364   365    1
    48   323   322    1
    49   323   324    1
    50   322   321    1
    51   327   328    1
    52   358   357    2
    53   365   378    1
    54   360   357    1
    55   357   359    1
    56   319   318    2
    57   384   388    1
    58   384   383    1
    59   324   328    1
    60   328   329    1
    61   321   318    1
    62   388   389    1
    63   388   387    1
    64   391   390    2
    65   383   382    1
    66   383   385    1
    67   382   381    1
    68   390   389   ar
    69   390   392   ar
    70   318   306    1
    71   318   320    1
    72   389   396   ar
    73   378   381    1
    74   378   380    2
    75   378   379    1
    76   306   305    1
    77   392   393   ar
    78   396   395   ar
    79   387   385    1
    80   331   330    2
    81   329   330   ar
    82   329   336   ar
    83   307   305    1
    84   307   308    1
    85   393   395   ar
    86   393   394    1
    87   395   397    1
    88   385   386    1
    89   305   303    1
    90   394   311    1
    91   330   332   ar
    92   336   335   ar
    93   386   398    1
    94   303   304    1
    95   303   302    1
    96   308   304    1
    97   308   309    1
    98   311   310    1
    99   404   408    1
   100   404   403    1
   101   408   409    1
   102   408   407    1
   103   332   333   ar
   104   335   333   ar
   105   302   301    1
   106   403   402    1
   107   403   405    1
   108   398   400    2
   109   398   401    1
   110   398   399    1
   111   402   401    1
   112   310   309   ar
   113   310   312   ar
   114   309   316   ar
   115   333   334    1
   116   409   416   ar
   117   409   410   ar
   118   416   415   ar
   119   407   405    1
   120   301   298    1
   121   299   298    2
   122   411   410    2
   123   410   412   ar
   124   415   417    1
   125   415   413   ar
   126   405   406    1
   127   312   313   ar
   128   316   315   ar
   129   406   418    1
   130   412   413   ar
   131   413   414    2
   132   298   300    1
   133   298   287    1
   134   315   313   ar
   135   315   317    1
   136   313   314    2
   137   287   286    1
   138   424   423    1
   139   424   428    1
   140   422   423    1
   141   422   421    1
   142   288   286    1
   143   288   289    1
   144   418   419    2
   145   418   421    1
   146   418   420    1
   147   423   425    1
   148   292   291    2
   149   286   284    1
   150   428   429    1
   151   428   427    1
   152   291   293   ar
   153   291   290   ar
   154   289   290    1
   155   289   285    1
   156   436   429   ar
   157   436   435   ar
   158   293   294   ar
   159   429   430   ar
   160   427   425    1
   161   425   426    1
   162   290   297   ar
   163   284   285    1
   164   284   283    1
   165   435   433   ar
   166   426   437    1
   167   430   431    2
   168   430   432   ar
   169   294   295    1
   170   294   296   ar
   171   433   432   ar
   172   433   434    1
   173   297   296   ar
   174   283   282    1
   175   437   438    2
   176   437   439    1
   177   437   440    1
   178   282   279    1
   179   276   275    1
   180   441   440    1
   181   441   442    1
   182   280   279    2
   183   443   442    1
   184   443   447    1
   185   279   281    1
   186   279   265    1
   187   442   444    1
   188   274   275   ar
   189   274   272   ar
   190   275   277   ar
   191   447   448    1
   192   447   446    1
   193   273   272    2
   194   455   448   ar
   195   455   454   ar
   196   272   271   ar
   197   277   278   ar
   198   448   449   ar
   199   454   452   ar
   200   444   446    1
   201   265   264    1
   202   278   271   ar
   203   278   268   ar
   204   271   270   ar
   205   266   264    1
   206   266   267    1
   207   449   450    2
   208   449   451   ar
   209   452   451   ar
   210   452   453    1
   211   264   262    1
   212   445   456    1
   213   445   459    1
   214   270   269   ar
   215   268   267    1
   216   268   269   ar
   217   267   263    1
   218   456   457    2
   219   456   458    2
   220   459   460    1
   221   475   473    1
   222   139   138    2
   223   262   263    1
   224   262   261    1
   225   462   461    1
   226   462   466    1
   227   160   159    2
   228   260   261    1
   229   260   257    1
   230   460   461    1
   231   473   474   ar
   232   473   471   ar
   233  1131  1130    2
   234  1132  1130   ar
   235  1132  1133   ar
   236  1134  1133    1
   237   474   467   ar
   238  1130  1129   ar
   239  1133  1135   ar
   240  1129  1136   ar
   241  1129  1128   ar
   242  1135  1136   ar
   243  1136  1126   ar
   244  1128  1127   ar
   245   253   252    2
   246  1126  1127   ar
   247  1126  1125    1
   248   461   463    1
   249   259   257    2
   250   472   471    2
   251   258   257    1
   252   471   470   ar
   253   466   467    1
   254   466   465    1
   255  1121  1125    1
   256  1121  1120    1
   257  1125  1124    1
   258   138   141    1
   259   138   127    1
   260   138   140    1
   261   467   468   ar
   262   257   245    1
   263   161   159    1
   264   142   141    1
   265   142   143    1
   266   159   146    1
   267   159   162    1
   268   127   126    1
   269   251   252   ar
   270   251   249   ar
   271   252   254   ar
   272   120   119    2
   273  1116  1103    1
   274  1116  1115    1
   275   470   468   ar
   276   146   145    1
   277  1117  1115    1
   278   468   469    2
   279  1096  1095    2
   280   250   249    2
   281   123   124    1
   282   123   122    1
   283   179   178    2
   284   249   248   ar
   285  1103  1102    1
   286   463   465    1
   287   463   464    1
   288   180   178    1
   289   143   145    1
   290   143   144    1
   291  1120  1119    1
   292  1120  1122    1
   293  1099  1100    1
   294  1099  1098    1
   295   254   256    1
   296   254   255   ar
   297  1115  1118    1
   298   245   244    1
   299  1119  1118    1
   300   124   126    1
   301   124   125    1
   302  1124  1122    1
   303   162   163    1
   304   145   147    1
   305   126   128    1
   306  1100  1102    1
   307  1100  1101    1
   308   234   233    1
   309   246   244    1
   310   246   247    1
   311   178   167    1
   312   178   181    1
   313   119   122    1
   314   119   107    1
   315   119   121    1
   316   244   242    1
   317   248   255   ar
   318   248   247    1
   319   163   164    1
   320  1081  1095    1
   321  1081  1080    1
   322   107   106    1
   323   464   476    1
   324  1102  1104    1
   325  1095  1098    1
   326  1095  1097    1
   327  1122  1123    1
   328   128   129    1
   329   144   148    1
   330   201   199    1
   331   167   166    1
   332  1156  1155    1
   333  1156  1168    1
   334   233   235   ar
   335   233   232   ar
   336   239   237    2
   337   247   243    1
   338  1101  1105    1
   339   215   214    1
   340   125   129    1
   341  1157  1155   ar
   342  1157  1158   ar
   343  1157  1169    1
   344  1155  1154   ar
   345  1143  1147    1
   346  1143  1142    1
   347   147   148    1
   348  1147  1148    1
   349  1147  1146    1
   350   235   236   ar
   351  1078  1080    1
   352  1078  1077    1
   353  1078  1079    1
   354  1123  1137    1
   355   240   237    1
   356   240   241    1
   357  1104  1105    1
   358   232   230   ar
   359   166   164    1
   360   166   168    1
   361  1158  1148   ar
   362  1158  1151   ar
   363  1148  1149   ar
   364   181   182    1
   365  1080  1082    1
   366  1154  1152   ar
   367   164   165    1
   368   476   477    2
   369   476   478    1
   370   476   479    1
   371  1184  1183    1
   372  1184  1185    1
   373  1184  1186    1
   374  1082  1083    1
   375  1168  1169    1
   376  1168  1166    1
   377   242   243    1
   378   242   241    1
   379  1183  1182    1
   380  1077  1076    1
   381   182   183    1
   382   100    99    2
   383   492   491    1
   384   129   130    1
   385   106   104    1
   386   106   108    1
   387  1151  1152   ar
   388  1151  1150   ar
   389   148   149    1
   390   191   190   ar
   391   191   192   ar
   392  1152  1153    2
   393  1149  1150   ar
   394   237   238    1
   395   237   226    1
   396  1185  1189    1
   397  1105  1106    1
   398   493   491   ar
   399   493   494   ar
   400   216   214   ar
   401   216   217   ar
   402   214   213   ar
   403  1187  1186    1
   404  1187  1201    1
   405   199   200    1
   406   199   202    1
   407  1169  1165    1
   408  1169  1170    1
   409   104   103    1
   410   104   105    1
   411   176   177   ar
   412   176   174   ar
   413  1142  1141    1
   414  1142  1144    1
   415  1424  1423    2
   416   177   170   ar
   417   190   189   ar
   418   108   109    1
   419  1202  1201    2
   420   236   229   ar
   421  1079  1083    1
   422   884   883    2
   423   479   480    1
   424   491   490   ar
   425   194   193    1
   426   103   102    1
   427   103    86    1
   428  1167  1166    1
   429  1167  1179    1
   430  1146  1144    1
   431   150   149   ar
   432   150   151   ar
   433   220   218    2
   434   230   229   ar
   435   230   231    2
   436  1205  1206    1
   437  1205  1204    1
   438  1164  1165    1
   439  1164  1166    1
   440  1164  1163    1
   441  1083  1084    1
   442   869   883    1
   443   869   868    1
   444   494   487   ar
   445  1186  1188    1
   446  1141  1140    1
   447   165   169    1
   448   865   866    1
   449   865   864    1
   450   866   868    1
   451   866   867    1
   452   149   158   ar
   453  1407  1408    1
   454  1407  1406    1
   455   664   663    2
   456  1172  1171    2
   457   667   668    1
   458   667   666    1
   459  1180  1179    2
   460  1411  1423    1
   461  1411  1410    1
   462  1189  1188    1
   463  1189  1190    1
   464  1140  1137    1
   465   229   228    1
   466  1137  1139    2
   467  1137  1138    1
   468   887   888    1
   469   887   886    1
   470   200   186    1
   471   168   169    1
   472   192   193   ar
   473   192   198   ar
   474  1408  1410    1
   475  1408  1409    1
   476  1404  1403    2
   477   130   137   ar
   478   130   131   ar
   479   186   185    1
   480   202   203    1
   481  1182  1179    1
   482  1427  1426    1
   483  1427  1428    1
   484  1206  1207    1
   485  1206  1208    1
   486  1113  1106   ar
   487  1113  1112   ar
   488   668   669    1
   489   668   670    1
   490   185   183    1
   491   185   187    1
   492   183   184    1
   493   213   211   ar
   494   217   210   ar
   495  1423  1426    1
   496  1423  1425    1
   497  1201  1204    1
   498  1201  1203    1
   499   490   488   ar
   500  1076  1073    1
   501   883   886    1
   502   883   885    1
   503    99    85    1
   504    99   102    1
   505    99   101    1
   506   649   663    1
   507   649   648    1
   508   137   136   ar
   509   193   195   ar
   510  1074  1073    2
   511   482   486    1
   512   482   481    1
   513  1144  1145    1
   514   225   226    1
   515   225   227    1
   516   225   223    1
   517  1106  1107   ar
   518   175   174    1
   519   671   670    1
   520   671   684    1
   521   174   173   ar
   522    85    84    1
   523  1389  1403    1
   524  1389  1388    1
   525   685   684    2
   526   151   152   ar
   527   227   228    1
   528   105   109    1
   529   170   169    1
   530   170   171   ar
   531   868   870    1
   532  1179  1181    1
   533   867   871    1
   534  1170  1171   ar
   535  1170  1177   ar
   536   487   488   ar
   537   487   486    1
   538  1061  1059    1
   539  1061  1062    1
   540  1060  1073    1
   541  1060  1059    1
   542   221   218    1
   543   221   222    1
   544   218   219    1
   545   218   207    1
   546   189   198   ar
   547   189   188    1
   548   862   861    2
   549  1171  1173   ar
   550   109   110    1
   551  1162  1163    1
   552  1162  1159    1
   553  1207  1211    1
   554   184   188    1
   555   646   645    1
   556   646   648    1
   557   646   647    1
   558   906   905    2
   559   850   861    1
   560   850   849    1
   561   870   871    1
   562  1410  1412    1
   563   488   489    2
   564   480   481    1
   565  1073  1075    1
   566   888   890    1
   567   888   889    1
   568   132   131    2
   569   663   666    1
   570   663   665    1
   571  1403  1406    1
   572  1403  1405    1
   573  1390  1388    1
   574  1390  1391    1
   575  1386  1388    1
   576  1386  1387    1
   577  1386  1385    1
   578  1409  1413    1
   579   669   673    1
   580   486   485    1
   581  1145  1159    1
   582   851   849    1
   583   851   852    1
   584   228   224    1
   585   158   152   ar
   586   158   157   ar
   587   645   644    1
   588   891   905    1
   589   891   890    1
   590  1084  1094   ar
   591  1084  1085   ar
   592  1428  1429    1
   593  1428  1430    1
   594   131   133   ar
   595   198   197   ar
   596  1114  1112    1
   597  1093  1094   ar
   598  1093  1091   ar
   599   670   672    1
   600   864   861    1
   601  1071  1070   ar
   602  1071  1072   ar
   603   648   650    1
   604   650   651    1
   605  1209  1208    1
   606  1209  1221    1
   607   871   872    1
   608   684   686    1
   609   684   687    1
   610  1112  1110   ar
   611   211   210   ar
   612   211   212    2
   613   210   209    1
   614  1190  1191   ar
   615  1190  1200   ar
   616  1070  1069   ar
   617  1059  1057    1
   618   481   483    1
   619    86    84    1
   620    86    87    1
   621  1431  1430    1
   622   647   651    1
   623  1062  1058    1
   624  1062  1063    1
   625   203   204    1
   626   152   153   ar
   627   861   863    1
   628   136   134   ar
   629   188   187    1
   630  1177  1176   ar
   631  1208  1210    1
   632  1412  1413    1
   633   195   196   ar
   634   173   171   ar
   635  1092  1091    1
   636   849   847    1
   637  1387  1391    1
   638   847   848    1
   639   847   846    1
   640  1057  1058    1
   641  1057  1056    1
   642  1107  1108    2
   643  1107  1109   ar
   644  1385  1384    1
   645   171   172    2
   646   223   224    1
   647   223   222    1
   648    84    82    1
   649   905   907    1
   650   905   908    1
   651  1391  1392    1
   652   206   207    1
   653   206   204    1
   654   206   208    1
   655   672   673    1
   656  1094  1087   ar
   657  1173  1174   ar
   658   157   156   ar
   659   651   652    1
   660   511   510    2
   661   890   892    1
   662   889   893    1
   663  1413  1414    1
   664  1211  1210    1
   665  1211  1212    1
   666   852   848    1
   667   852   853    1
   668   110   117   ar
   669   110   111   ar
   670   673   674    1
   671  1429  1433    1
   672  1091  1090   ar
   673   688   687    1
   674   688   689    1
   675  1222  1221    2
   676  1199  1200   ar
   677  1199  1197   ar
   678  1159  1160    2
   679  1159  1161    1
   680  1191  1192   ar
   681  1430  1432    1
   682  1085  1086   ar
   683   112   111    2
   684    82    81    1
   685    82    83    1
   686   855   854    2
   687   133   134   ar
   688  1200  1193   ar
   689  1072  1063   ar
   690  1072  1066   ar
   691   197   196   ar
   692   639   638   ar
   693   639   640   ar
   694   204   205    1
   695   117   116   ar
   696   629   630    1
   697   629   627    1
   698   134   135    1
   699   846   845    1
   700   208   209    1
   701   644   641    1
   702   111   113   ar
   703  1063  1064   ar
   704  1221  1223    1
   705  1221  1224    1
   706   596   595    1
   707  1069  1067   ar
   708   638   637   ar
   709  1176  1174   ar
   710  1176  1178    1
   711   209   205    1
   712   485   483    1
   713   510   509   ar
   714   510   512   ar
   715    96    95    1
   716    87    83    1
   717    87    88    1
   718   483   484    1
   719  1110  1109   ar
   720  1110  1111    2
   721  1174  1175    2
   722   630   626    1
   723   630   631    1
   724   153   154    1
   725   153   155   ar
   726  1049  1198    1
   727   628   641    1
   728   628   627    1
   729  1056  1055    1
   730   872   873   ar
   731   872   882   ar
   732  1401  1402   ar
   733  1401  1399   ar
   734   509   507   ar
   735   892   893    1
   736   156   155   ar
   737   642   641    2
   738    97    95   ar
   739    97    98   ar
   740   514   512    1
   741    81    80    1
   742  1444  1447    1
   743  1444  1446    2
   744  1444  1445    2
   745  1219  1212   ar
   746  1219  1218   ar
   747  1212  1213   ar
   748   652   662   ar
   749   652   653   ar
   750  1384  1381    1
   751   689   690    1
   752   689   691    1
   753  1198  1197    1
   754  1198  1048    1
   755  1087  1086   ar
   756  1087  1088   ar
   757   908   909    1
   758   661   662   ar
   759   661   659   ar
   760  1400  1399    1
   761   893   894    1
   762   909   910    1
   763  1392  1402   ar
   764  1392  1393   ar
   765  1197  1196   ar
   766   625   627    1
   767   625   626    1
   768   625   624    1
   769  1382  1381    2
   770   641   643    1
   771  1414  1421   ar
   772  1414  1415   ar
   773  1447  1448    1
   774   512   513   ar
   775   531   530    2
   776  1432  1433    1
   777   853   854   ar
   778   853   860   ar
   779  1433  1434    1
   780   674   675   ar
   781   674   683   ar
   782  1192  1193   ar
   783   116   118    1
   784   116   114   ar
   785   854   856   ar
   786  1090  1088   ar
   787    95    94   ar
   788  1421  1420   ar
   789  1055  1052    1
   790   113   114   ar
   791  1193  1194   ar
   792   640   631   ar
   793   640   634   ar
   794   660   659    1
   795   618   617   ar
   796   618   619   ar
   797   873   874   ar
   798  1066  1067   ar
   799  1066  1065   ar
   800   690   694    1
   801   881   882   ar
   802   881   879   ar
   803   617   616   ar
   804  1402  1395   ar
   805  1067  1068    1
   806  1399  1398   ar
   807   662   655   ar
   808   637   635   ar
   809   631   632   ar
   810    88    98   ar
   811    88    89   ar
   812  1224  1225    1
   813   507   508    2
   814   507   506   ar
   815   675   676   ar
   816   882   875   ar
   817  1064  1065   ar
   818   595   594   ar
   819   595   597   ar
   820  1225  1226    1
   821  1435  1434   ar
   822  1435  1436   ar
   823   532   530   ar
   824   532   533   ar
   825   845   842    1
   826   484   495    1
   827   927   926    2
   828    98    91   ar
   829  1048  1050    1
   830  1381  1370    1
   831  1381  1383    1
   832   659   658   ar
   833  1088  1089    2
   834   114   115    2
   835  1220  1218    1
   836   530   529   ar
   837   497   495    2
   838  1218  1216   ar
   839   653   654   ar
   840   513   506   ar
   841  1434  1443   ar
   842  1416  1415    2
   843  1213  1214    2
   844  1213  1215   ar
   845   692   691    1
   846   692   705    1
   847   895   894   ar
   848   895   896   ar
   849  1393  1394   ar
   850   894   904   ar
   851   609   608    1
   852   609   605    1
   853   609   610    1
   854   608   606    1
   855  1450  1449    1
   856  1450  1454    1
   857   534   533    1
   858  1415  1417   ar
   859   624   623    1
   860   594   592   ar
   861  1370  1369    1
   862   691   693    1
   863    80    77    1
   864  1196  1047    1
   865  1196  1194   ar
   866   506   505    1
   867   843   842    2
   868   683   682   ar
   869   683   677   ar
   870   682   681   ar
   871   836   835    2
   872  1047  1045   am
   873   860   859   ar
   874  1050  1051    1
   875   910   912    1
   876   910   911    1
   877  1449  1448    1
   878  1449  1451    1
   879   856   857   ar
   880   597   598   ar
   881   706   705    2
   882   533   535   ar
   883  1194  1195    2
   884   880   879    1
   885  1420  1422    1
   886  1420  1418   ar
   887   616   614   ar
   888   832   833    1
   889   832   830    1
   890    94    92   ar
   891   879   878   ar
   892   605   604    1
   893   619   610   ar
   894   619   613   ar
   895   495   498    1
   896   495   496    1
   897   634   635   ar
   898   634   633   ar
   899  1375  1374    2
   900   926   913    1
   901   926   928    1
   902   926   929    1
   903   874   875   ar
   904   913   912    1
   905   635   636    1
   906  1436  1437   ar
   907   694   693    1
   908   694   695    1
   909    89    90   ar
   910    78    77    2
   911   842   831    1
   912   842   844    1
   913  1240  1238    1
   914   707   705    1
   915  1395  1394   ar
   916  1395  1396   ar
   917   529   528   ar
   918   529   536   ar
   919  1463  1461    1
   920  1398  1396   ar
   921   655   654   ar
   922   655   656   ar
   923   875   876   ar
   924   705   708    1
   925   604   606    1
   926   604   603    1
   927   831   830    1
   928  1052  1053    2
   929  1052  1054    1
   930  1052  1038    1
   931   632   633   ar
   932   676   677   ar
   933   610   611   ar
   934  1454  1453    1
   935  1226  1227    1
   936  1226  1228    1
   937  1215  1216   ar
   938    91    92   ar
   939    91    90   ar
   940   501   505    1
   941   501   500    1
   942  1216  1217    2
   943   912   914    1
   944   607   606    1
   945   607   620    1
   946    71    70    2
   947  1039  1040    1
   948  1039  1037    1
   949   505   504    1
   950   658   656   ar
   951  1227  1231    1
   952   896   897   ar
   953   911   915    1
   954  1371  1372    1
   955  1371  1369    1
   956   623   620    1
   957  1372  1368    1
   958  1372  1373    1
   959  1443  1437   ar
   960  1443  1442   ar
   961   677   678   ar
   962   696   695   ar
   963   696   697   ar
   964   528   527   ar
   965  1417  1418   ar
   966    77    66    1
   967    77    79    1
   968   498   499    1
   969   535   536   ar
   970  1369  1367    1
   971   904   903   ar
   972   904   897   ar
   973   833   834    1
   974   833   829    1
   975   592   593    2
   976   592   591   ar
   977   681   680   ar
   978   835   837   ar
   979   835   834   ar
   980    92    93    2
   981   859   857   ar
   982  1045  1046    2
   983  1045  1044    1
   984    66    65    1
   985  1051  1044   ar
   986  1051  1041   ar
   987   857   858    1
   988    67    65    1
   989    67    68    1
   990   536   526   ar
   991   830   828    1
   992  1038  1037    1
   993  1396  1397    2
   994  1418  1419    2
   995   695   704   ar
   996   598   591   ar
   997   598   588   ar
   998   553   552    1
   999   553   573    1
  1000  1368  1367    1
  1001   614   613   ar
  1002   614   615    1
  1003  1453  1451    1
  1004  1367  1366    1
  1005  1451  1452    1
  1006  1437  1438   ar
  1007  1462  1461    2
  1008  1462  1455    1
  1009   613   612   ar
  1010   656   657    2
  1011   878   876   ar
  1012  1239  1238   ar
  1013  1239  1232   ar
  1014  1374  1373   ar
  1015  1374  1376   ar
  1016  1238  1236   ar
  1017   903   901   ar
  1018   917   918   ar
  1019   917   916   ar
  1020  1461  1459    1
  1021   570   569    2
  1022   620   621    2
  1023   620   622    1
  1024   603   602    1
  1025  1040  1041    1
  1026  1040  1036    1
  1027  1442  1441   ar
  1028   876   877    2
  1029   897   898   ar
  1030   551   552    1
  1031   551   549   am
  1032   551   572    1
  1033   499   500    1
  1034   828   829    1
  1035   828   827    1
  1036   929   930    1
  1037  1044  1043   ar
  1038   837   838   ar
  1039   834   841   ar
  1040  1037  1035    1
  1041  1228  1229    1
  1042  1228  1230    1
  1043   591   590   ar
  1044    70    72   ar
  1045    70    69   ar
  1046   527   526   ar
  1047   611   612   ar
  1048    65    63    1
  1049  1373  1380   ar
  1050   571   569   am
  1051   571   572    1
  1052   500   502    1
  1053   697   698   ar
  1054  1041  1042   ar
  1055   550   549    2
  1056   930   931    1
  1057   586   587    1
  1058   586   584    1
  1059   552   554    2
  1060   708   709    1
  1061   526   525    1
  1062  1229  1241    1
  1063   918   919   ar
  1064   915   914    1
  1065   915   916    1
  1066   678   680   ar
  1067   678   679    1
  1068   573   572    1
  1069  1231  1232    1
  1070  1231  1230    1
  1071   504   502    1
  1072   587   588    1
  1073   587   583    1
  1074   588   589   ar
  1075    68    69    1
  1076    68    64    1
  1077   569   568   am
  1078   549   548   am
  1079  1455  1456    2
  1080  1376  1377   ar
  1081  1232  1233   ar
  1082   916   925   ar
  1083    72    73   ar
  1084   816   815    2
  1085  1242  1241    2
  1086   709   710    1
  1087   704   698   ar
  1088   704   703   ar
  1089  1243  1241    1
  1090  1236  1237    2
  1091  1236  1235   ar
  1092  1241  1244    1
  1093    69    76   ar
  1094   572   574    1
  1095   502   503    1
  1096  1366  1365    1
  1097  1356  1355    2
  1098  1438  1439    1
  1099  1438  1440   ar
  1100  1035  1036    1
  1101  1035  1034    1
  1102   901   902    1
  1103   901   900   ar
  1104   602   599    1
  1105  1459  1460    2
  1106  1459  1458   am
  1107  1441  1440   ar
  1108   525   521    1
  1109   525   524    1
  1110  1043  1042   ar
  1111   698   699   ar
  1112    63    64    1
  1113    63    62    1
  1114   827   826    1
  1115   838   839    1
  1116   838   840   ar
  1117   898   900   ar
  1118   898   899    2
  1119   841   840   ar
  1120  1026  1027   ar
  1121  1026  1024   ar
  1122   554   556    1
  1123   554   555    1
  1124   590   589   ar
  1125  1380  1379   ar
  1126   703   702   ar
  1127   817   815   ar
  1128   817   818   ar
  1129   815   814   ar
  1130   521   520    1
  1131  1027  1028   ar
  1132   584   585    1
  1133   584   582    1
  1134   919   925   ar
  1135   919   920   ar
  1136   548   555    1
  1137   548   547    1
  1138   931   932    1
  1139   931   933    1
  1140  1233  1235   ar
  1141  1233  1234    2
  1142   583   582    1
  1143   585   599    1
  1144   925   924   ar
  1145    73    74    1
  1146    73    75   ar
  1147  1456  1458   am
  1148  1456  1457    2
  1149  1377  1379   ar
  1150  1377  1378    1
  1151   568   567    1
  1152   568   575    1
  1153  1025  1024    1
  1154  1365  1362    1
  1155   711   710    1
  1156   711   715    1
  1157   722   723   ar
  1158   722   720   ar
  1159  1355  1357   ar
  1160  1355  1354   ar
  1161   710   712    1
  1162   723   716   ar
  1163   938   939   ar
  1164   938   937   ar
  1165  1357  1358   ar
  1166    76    75   ar
  1167   826   823    1
  1168  1244  1245    1
  1169   939   940   ar
  1170  1024  1023   ar
  1171   932   936    1
  1172   574   575    2
  1173   574   576    1
  1174   599   601    2
  1175   599   600    1
  1176   503   515    1
  1177   582   581    1
  1178  1034  1033    1
  1179   524   522    1
  1180   949   947    2
  1181    52    51    2
  1182   547   543    1
  1183   547   546    1
  1184    62    61    1
  1185   567   566    1
  1186   567   563    1
  1187   819   818    2
  1188   933   934    1
  1189   933   935    1
  1190   699   700    1
  1191   699   701   ar
  1192  1028  1029   ar
  1193   818   820   ar
  1194   812   813    1
  1195   812   810    1
  1196   517   515    2
  1197  1352  1353    1
  1198  1352  1350    1
  1199   934   947    1
  1200   921   920    1
  1201   814   813    1
  1202   814   821   ar
  1203   920   922   ar
  1204   702   701   ar
  1205   813   809    1
  1206  1245  1246    1
  1207  1033  1030    1
  1208   924   923   ar
  1209   566   564    1
  1210   520   522    1
  1211   520   519    1
  1212   947   948    1
  1213   947   950    1
  1214   518   515    1
  1215   518   519    1
  1216   721   720    1
  1217   720   719   ar
  1218   937   936    1
  1219   937   946   ar
  1220  1354  1353    1
  1221  1354  1361   ar
  1222  1363  1362    2
  1223  1353  1349    1
  1224   716   715    1
  1225   716   717   ar
  1226    53    51   ar
  1227    53    54   ar
  1228  1254  1253   ar
  1229  1254  1255   ar
  1230   543   542    1
  1231   715   714    1
  1232   515   516    1
  1233   712   713    1
  1234   712   714    1
  1235  1358  1359    1
  1236  1358  1360   ar
  1237    51    50   ar
  1238  1023  1029   ar
  1239  1023  1022   ar
  1240    61    58    1
  1241   546   544    1
  1242   522   523    1
  1243   936   935    1
  1244  1362  1351    1
  1245  1362  1364    1
  1246  1253  1252   ar
  1247  1029  1020   ar
  1248   940   946   ar
  1249   940   941   ar
  1250   984   983    2
  1251   563   562    1
  1252   823   824    2
  1253   823   811    1
  1254   823   825    1
  1255  1004  1003    1
  1256   942   941    1
  1257   713   724    1
  1258   726   724    2
  1259  1351  1350    1
  1260   820   821   ar
  1261   820   822    1
  1262   581   580    1
  1263  1350  1348    1
  1264   922   923   ar
  1265   810   811    1
  1266   810   808    1
  1267    55    54    1
  1268  1257  1256    2
  1269   946   945   ar
  1270  1279  1278    2
  1271   809   808    1
  1272   580   577    1
  1273   941   943   ar
  1274    48    49    1
  1275    48    46    1
  1276    54    56   ar
  1277   719   717   ar
  1278   796   795    2
  1279  1005  1003   ar
  1280  1005  1006   ar
  1281   717   718    2
  1282  1246  1247    1
  1283  1246  1248    1
  1284  1030  1031    2
  1285  1030  1032    1
  1286  1030  1017    1
  1287  1022  1021   ar
  1288   987   985    1
  1289  1255  1256   ar
  1290  1255  1262   ar
  1291  1361  1360   ar
  1292  1247  1251    1
  1293   564   562    1
  1294   564   565    1
  1295  1349  1348    1
  1296    50    49    1
  1297    50    57   ar
  1298   950   951    1
  1299   963   962    1
  1300   542   544    1
  1301   542   541    1
  1302   797   795   ar
  1303   797   798   ar
  1304   725   724    1
  1305  1003  1002   ar
  1306  1265  1263    2
  1307   960   959   ar
  1308   960   961   ar
  1309  1020  1021   ar
  1310  1020  1019    1
  1311   544   545    1
  1312    49    45    1
  1313   724   727    1
  1314  1018  1019    1
  1315  1018  1016    1
  1316  1252  1262   ar
  1317  1252  1251    1
  1318   983   985   ar
  1319   983   982   ar
  1320   562   561    1
  1321   523   537    1
  1322   740   739    1
  1323   808   807    1
  1324  1256  1258   ar
  1325   780   779    1
  1326  1348  1347    1
  1327   799   798    2
  1328    58    59    2
  1329    58    60    1
  1330    58    47    1
  1331   540   541    1
  1332   540   537    1
  1333  1338  1336   ar
  1334  1338  1339   ar
  1335  1340  1339    1
  1336  1337  1336    2
  1337   759   758    1
  1338   795   794   ar
  1339  1248  1249    1
  1340  1248  1250    1
  1341  1276  1277   ar
  1342  1276  1275   ar
  1343  1006  1007   ar
  1344   741   739   ar
  1345   741   742   ar
  1346   959   958   ar
  1347  1019  1015    1
  1348   985   986   ar
  1349  1278  1277   ar
  1350  1278  1280   ar
  1351  1262  1261   ar
  1352   945   944   ar
  1353  1251  1250    1
  1354   539   537    2
  1355   798   800   ar
  1356   565   577    1
  1357   943   944   ar
  1358    56    57   ar
  1359  1336  1335   ar
  1360    47    46    1
  1361    46    44    1
  1362   537   538    1
  1363   739   738   ar
  1364  1339  1341   ar
  1365  1017  1016    1
  1366   951   952    1
  1367   982   980   ar
  1368   577   579    2
  1369   577   578    1
  1370  1249  1263    1
  1371   961   962    1
  1372   961   967   ar
  1373  1016  1014    1
  1374   962   964    1
  1375  1277  1284   ar
  1376   545   557    1
  1377   560   561    1
  1378   560   557    1
  1379   778   779   ar
  1380   778   776   ar
  1381  1002  1001   ar
  1382  1002  1008   ar
  1383  1320  1319    2
  1384   779   781   ar
  1385  1263  1264    1
  1386  1263  1266    1
  1387    45    44    1
  1388  1301  1300    1
  1389  1275  1274   ar
  1390  1258  1259   ar
  1391   742   735   ar
  1392   727   728    1
  1393    35    34    2
  1394   807   806    1
  1395   758   760   ar
  1396   758   757   ar
  1397    33    34   ar
  1398    33    31   ar
  1399  1347  1346    1
  1400  1280   964    1
  1401  1280  1281   ar
  1402    32    31    2
  1403  1007  1008   ar
  1404   794   793    1
  1405   794   801   ar
  1406    44    43    1
  1407   559   557    2
  1408   970   968    2
  1409  1001  1000   ar
  1410  1261  1259   ar
  1411   958   967   ar
  1412   958   957    1
  1413   806   803    1
  1414   986   979   ar
  1415  1015  1014    1
  1416   557   558    1
  1417  1008   999   ar
  1418    14    13    1
  1419   953   952    1
  1420   953   957    1
  1421   760   761   ar
  1422   800   801   ar
  1423   800   802    1
  1424   792   793    1
  1425   792   790    1
  1426  1266  1267    1
  1427   738   736   ar
  1428  1346  1343    1
  1429   964   965    1
  1430   964  1282    1
  1431   967   966    1
  1432    34    36   ar
  1433  1259  1260    1
  1434   952   954    1
  1435    31    30   ar
  1436  1335  1342   ar
  1437  1335  1334    1
  1438  1319  1318   ar
  1439  1319  1321   ar
  1440  1318  1316   ar
  1441  1014  1013    1
  1442   980   979   ar
  1443   980   981    2
  1444   777   776    2
  1445   793   789    1
  1446   776   775   ar
  1447  1341  1342   ar
  1448   728   729    1
  1449   756   757   ar
  1450   756   755   ar
  1451  1284  1274   ar
  1452  1284  1283   ar
  1453   781   782   ar
  1454   757   763   ar
  1455  1274  1273    1
  1456  1300  1299   ar
  1457  1300  1302   ar
  1458   735   736   ar
  1459   735   734    1
  1460   954   955    1
  1461   954   956    1
  1462  1333  1334    1
  1463  1333  1331    1
  1464   979   978    1
  1465   730   729    1
  1466   730   734    1
  1467   957   956    1
  1468  1281  1283   ar
  1469  1281  1282    1
  1470  1000   999   ar
  1471   736   737    2
  1472   805   803    2
  1473  1334  1330    1
  1474    15    13    1
  1475    15    16    2
  1476    13    12    1
  1477   999   998    1
  1478    43    42    1
  1479   968   955    1
  1480   968   971    1
  1481   968   969    1
  1482  1012  1013    1
  1483  1012  1009    1
  1484   965   966    2
  1485   965  1282    1
  1486   803   791    1
  1487   803   804    1
  1488  1317  1316    2
  1489  1299  1297   ar
  1490  1302  1303   ar
  1491  1316  1315   ar
  1492   729   731    1
  1493   790   791    1
  1494   790   788    1
  1495   761   762   ar
  1496   745   743    2
  1497  1269  1273    1
  1498  1269  1268    1
  1499  1267  1268    1
  1500    42    39    1
  1501   734    16    1
  1502   734   733    1
  1503   775   782   ar
  1504   775   774    1
  1505  1321  1323    1
  1506  1321  1322   ar
  1507   971   972    1
  1508    36    37   ar
  1509    36    38    1
  1510   755   754   ar
  1511    30    37   ar
  1512    30    29    1
  1513   789   788    1
  1514  1343  1345    2
  1515  1343  1332    1
  1516  1343  1344    1
  1517  1331  1332    1
  1518  1331  1329    1
  1519  1273  1272    1
  1520   763   762   ar
  1521   763   754   ar
  1522  1011  1009    2
  1523   731   733    1
  1524   731   732    1
  1525   997   998    1
  1526   997   995    1
  1527    28    29    1
  1528    28    26    1
  1529   998   994    1
  1530    16    17    1
  1531  1268  1270    1
  1532   990   988    2
  1533   978   974    1
  1534   978   977    1
  1535    29    25    1
  1536    12    11   ar
  1537    12    18   ar
  1538   788   787    1
  1539  1009  1010    1
  1540  1009   996    1
  1541  1330  1329    1
  1542   754   753    1
  1543   743   732    1
  1544   743   744    1
  1545   743   746    1
  1546  1287  1285    2
  1547  1315  1322   ar
  1548  1315  1314    1
  1549   974   973    1
  1550  1297  1298    2
  1551  1297  1296   ar
  1552  1270  1272    1
  1553  1270  1271    1
  1554  1303  1296   ar
  1555   774   773    1
  1556   774   770    1
  1557    11    10   ar
  1558   972   973    1
  1559   995   996    1
  1560   995   993    1
  1561   975   977    1
  1562   975   973    1
  1563   975   976    1
  1564    39    41    2
  1565    39    40    1
  1566    39    27    1
  1567  1329  1328    1
  1568   773   771    1
  1569  1296  1295    1
  1570    26    27    1
  1571    26    24    1
  1572   994   993    1
  1573    18    17    1
  1574    18     9   ar
  1575   786   787    1
  1576   786   783    1
  1577   746   747    1
  1578    25    24    1
  1579  1314  1313    1
  1580  1314  1310    1
  1581   991   988    1
  1582   991   992    1
  1583   988   976    1
  1584   988   989    1
  1585  1271  1285    1
  1586  1313  1311    1
  1587   770   769    1
  1588  1327  1328    1
  1589  1327  1324    1
  1590   753   749    1
  1591   753   752    1
  1592  1285  1288    1
  1593  1285  1286    1
  1594   993   992    1
  1595    10     9   ar
  1596   749   748    1
  1597   771   769    1
  1598   771   772    1
  1599   785   783    2
  1600    24    23    1
  1601  1326  1324    2
  1602  1288  1289    1
  1603   766   764    2
  1604     9     8    1
  1605   747   748    1
  1606   783   772    1
  1607   783   784    1
  1608  1311  1312    1
  1609  1311  1309    1
  1610  1310  1309    1
  1611  1295  1291    1
  1612  1295  1294    1
  1613   752   750    1
  1614   769   768    1
  1615   750   748    1
  1616   750   751    1
  1617   767   764    1
  1618   767   768    1
  1619  1306  1304    2
  1620  1324  1312    1
  1621  1324  1325    1
  1622    22    23    1
  1623    22    19    1
  1624  1291  1290    1
  1625     7     8    1
  1626     7     5    1
  1627    21    19    2
  1628   764   751    1
  1629   764   765    1
  1630     8     4    1
  1631  1294  1292    1
  1632  1309  1308    1
  1633  1292  1290    1
  1634  1292  1293    1
  1635  1289  1290    1
  1636     5     6    1
  1637     5     3    1
  1638    19     6    1
  1639    19    20    1
  1640     4     3    1
  1641  1304  1293    1
  1642  1304  1307    1
  1643  1304  1305    1
  1644  1308  1307    1
  1645     3     2    1
  1646     2     1    1
