@<TRIPOS>MOLECULE
dna.pdb
 1642 1847 0 0 0
SMALL
GASTEIGER

@<TRIPOS>ATOM
      1  O5'       -1.3010   20.0520   -9.4610 O.3     1  DA1        -0.2176
      2  C5'       -1.0250   19.3950  -10.6970 C.3     1  DA1         0.2140
      3  C4'        0.2550   19.9160  -11.3110 C.3     1  DA1         0.1776
      4  O4'        0.1670   21.3570  -11.4210 O.3     1  DA1        -0.3326
      5  C3'        1.5380   19.7070  -10.5280 C.3     1  DA1         0.1559
      6  O3'        2.0890   18.4310  -10.7840 O.3     1  DA1        -0.3138
      7  C2'        2.4370   20.7790  -11.1150 C.3     1  DA1         0.0865
      8  C1'        1.4510   21.9320  -11.2420 C.3     1  DA1         0.2094
      9  N9         1.3300   22.7450  -10.0190 N.ar    1  DA1        -0.2714
     10  C8         0.1830   22.8910   -9.2820 C.ar    1  DA1         0.1815
     11  N7         0.2860   23.7670   -8.3110 N.ar    1  DA1        -0.2193
     12  C5         1.5900   24.2270   -8.4160 C.ar    1  DA1         0.1518
     13  C6         2.3220   25.1720   -7.6750 C.ar    1  DA1         0.1919
     14  N6         1.8200   25.8490   -6.6400 N.pl3   1  DA1        -0.1054
     15  N1         3.6020   25.3980   -8.0400 N.ar    1  DA1        -0.2040
     16  C2         4.1030   24.7190   -9.0780 C.ar    1  DA1         0.2016
     17  N3         3.5150   23.8090   -9.8510 N.ar    1  DA1        -0.2048
     18  C4         2.2450   23.6060   -9.4620 C.ar    1  DA1         0.1691
     19  P          2.2760   17.4360   -9.6680 P.3     2  DG2         0.2141
     20  OP1        2.8190   16.3410  -10.5090 O.2     2  DG2        -0.5172
     21  OP2        1.9900   17.1790   -8.2470 O.3     2  DG2        -0.4373
     22  O5'        3.3160   18.6240   -9.7750 O.3     2  DG2        -0.3114
     23  C5'        4.4770   18.6080   -9.0060 C.3     2  DG2         0.1811
     24  C4'        4.8710   20.0010   -8.6600 C.3     2  DG2         0.1746
     25  O4'        3.7050   20.8330   -8.4230 O.3     2  DG2        -0.3327
     26  C3'        5.5700   20.0120   -7.3300 C.3     2  DG2         0.1558
     27  O3'        6.8760   19.5200   -7.4820 O.3     2  DG2        -0.3138
     28  C2'        5.4180   21.4640   -6.9160 C.3     2  DG2         0.0865
     29  C1'        3.9790   21.7310   -7.3540 C.3     2  DG2         0.2093
     30  N9         3.0920   21.3200   -6.1340 N.ar    2  DG2        -0.2736
     31  C8         2.1600   20.3130   -6.2010 C.ar    2  DG2         0.1814
     32  N7         1.3160   20.3260   -5.2050 N.ar    2  DG2        -0.2178
     33  C5         1.7090   21.4050   -4.4350 C.ar    2  DG2         0.1693
     34  C6         1.1760   21.9200   -3.2260 C.2     2  DG2         0.2893
     35  O6         0.2090   21.5020   -2.5760 O.2     2  DG2        -0.2665
     36  N1         1.8820   23.0330   -2.7770 N.am    2  DG2        -0.1453
     37  C2         2.9680   23.5820   -3.4160 C.3     2  DG2         0.3361
     38  N2         3.5160   24.6560   -2.8310 N.3     2  DG2        -0.0662
     39  N3         3.4750   23.1150   -4.5390 N.pl3   2  DG2        -0.1658
     40  C4         2.8060   22.0330   -4.9930 C.ar    2  DG2         0.1582
     41  P          7.4600   18.4940   -6.4240 P.3     3  DC3         0.2141
     42  OP1        8.8030   18.7380   -6.9720 O.2     3  DC3        -0.5172
     43  OP2        6.9590   17.1420   -6.0670 O.3     3  DC3        -0.4373
     44  O5'        7.4500   19.4410   -5.1530 O.3     3  DC3        -0.3114
     45  C5'        8.5440   20.3060   -5.1440 C.3     3  DC3         0.1811
     46  C4'        8.4820   21.1380   -3.8960 C.3     3  DC3         0.1746
     47  O4'        7.1030   21.5060   -3.6980 O.3     3  DC3        -0.3327
     48  C3'        8.8250   20.3920   -2.6210 C.3     3  DC3         0.1558
     49  O3'       10.2270   20.2220   -2.4540 O.3     3  DC3        -0.3138
     50  C2'        8.1810   21.2910   -1.5620 C.3     3  DC3         0.0866
     51  C1'        6.8720   21.5760   -2.2900 C.3     3  DC3         0.2106
     52  N1         5.7850   20.7330   -1.9270 N.ar    3  DC3        -0.2556
     53  C2         5.1190   20.8850   -0.7050 C.ar    3  DC3         0.3531
     54  O2         5.4950   21.7790    0.0720 O.2     3  DC3        -0.2443
     55  N3         4.0900   20.0570   -0.4070 N.ar    3  DC3        -0.1739
     56  C4         3.7220   19.1110   -1.2720 C.ar    3  DC3         0.1759
     57  N4         2.7030   18.3180   -0.9340 N.pl3   3  DC3        -0.1070
     58  C5         4.3840   18.9400   -2.5150 C.ar    3  DC3         0.0566
     59  C6         5.3990   19.7600   -2.8060 C.ar    3  DC3         0.0849
     60  P         10.7540   18.9570   -1.5820 P.3     4  DA4         0.2141
     61  OP1       12.2360   18.9390   -1.6410 O.3     4  DA4        -0.4373
     62  OP2        9.9630   17.8170   -2.1010 O.2     4  DA4        -0.5172
     63  O5'       10.2820   19.1390   -0.0560 O.3     4  DA4        -0.3114
     64  C5'       11.1020   19.8920    0.8350 C.3     4  DA4         0.1811
     65  C4'       10.4220   20.2880    2.1260 C.3     4  DA4         0.1746
     66  O4'        9.0740   20.7560    1.8670 O.3     4  DA4        -0.3327
     67  C3'       10.2240   19.1960    3.1640 C.3     4  DA4         0.1558
     68  O3'       11.3920   18.8850    3.9060 O.3     4  DA4        -0.3138
     69  C2'        9.1110   19.7800    4.0200 C.3     4  DA4         0.0865
     70  C1'        8.2320   20.4290    2.9550 C.3     4  DA4         0.2094
     71  N9         7.2310   19.5260    2.5560 N.ar    4  DA4        -0.2714
     72  C8         7.2180   18.8500    1.3640 C.ar    4  DA4         0.1815
     73  N7         6.1170   18.1690    1.1540 N.ar    4  DA4        -0.2193
     74  C5         5.3550   18.4130    2.2860 C.ar    4  DA4         0.1518
     75  C6         4.0760   17.9790    2.6770 C.ar    4  DA4         0.1919
     76  N6         3.3100   17.1730    1.9370 N.pl3   4  DA4        -0.1054
     77  N1         3.6070   18.4060    3.8690 N.ar    4  DA4        -0.2040
     78  C2         4.3750   19.2130    4.6090 C.ar    4  DA4         0.2016
     79  N3         5.5900   19.6900    4.3490 N.ar    4  DA4        -0.2048
     80  C4         6.0280   19.2470    3.1580 C.ar    4  DA4         0.1691
     81  P         11.7610   17.2140    4.2850 P.3     5  DG5         0.2141
     82  OP1       13.1750   17.2060    4.7070 O.3     5  DG5        -0.4373
     83  OP2       11.2250   16.1140    3.4550 O.2     5  DG5        -0.5172
     84  O5'       10.8350   17.2550    5.5870 O.3     5  DG5        -0.3114
     85  C5'       11.0310   18.3660    6.4470 C.3     5  DG5         0.1811
     86  C4'       10.0070   18.4310    7.5500 C.3     5  DG5         0.1746
     87  O4'        8.7510   18.9520    7.0460 O.3     5  DG5        -0.3327
     88  C3'        9.6490   17.1070    8.1970 C.3     5  DG5         0.1558
     89  O3'       10.6120   16.7280    9.1660 O.3     5  DG5        -0.3138
     90  C2'        8.2720   17.4070    8.7740 C.3     5  DG5         0.0865
     91  C1'        7.6760   18.3050    7.6880 C.3     5  DG5         0.2094
     92  N9         6.9500   17.5310    6.6530 N.ar    5  DG5        -0.2713
     93  C8         7.3890   17.1610    5.4040 C.ar    5  DG5         0.1816
     94  N7         6.5130   16.4610    4.7370 N.ar    5  DG5        -0.2173
     95  C5         5.4300   16.3610    5.5910 C.ar    5  DG5         0.1748
     96  C6         4.1780   15.7160    5.4230 C.ar    5  DG5         0.3023
     97  O6         3.7680   15.0830    4.4430 O.2     5  DG5        -0.2633
     98  N1         3.3640   15.8590    6.5440 N.ar    5  DG5        -0.1709
     99  C2         3.7140   16.5400    7.6860 C.ar    5  DG5         0.2606
    100  N2         2.7960   16.5700    8.6610 N.pl3   5  DG5        -0.0859
    101  N3         4.8740   17.1430    7.8560 N.ar    5  DG5        -0.1918
    102  C4         5.6810   17.0170    6.7810 C.ar    5  DG5         0.1722
    103  P         10.7630   15.2460    9.7830 P.3     6  DC6         0.2141
    104  OP1       11.9370   15.1080   10.6780 O.3     6  DC6        -0.4373
    105  OP2       10.8160   14.6720    8.4190 O.2     6  DC6        -0.5172
    106  O5'        9.4700   14.6410   10.5090 O.3     6  DC6        -0.3114
    107  C5'        9.1340   15.0080   11.8450 C.3     6  DC6         0.1811
    108  C4'        7.6900   14.6500   12.1360 C.3     6  DC6         0.1746
    109  O4'        6.7940   15.2480   11.1650 O.3     6  DC6        -0.3327
    110  C3'        7.3260   13.1830   11.9920 C.3     6  DC6         0.1558
    111  O3'        7.8590   12.3810   13.0140 O.3     6  DC6        -0.3138
    112  C2'        5.8150   13.2970   12.0750 C.3     6  DC6         0.0866
    113  C1'        5.6060   14.4710   11.1210 C.3     6  DC6         0.2106
    114  N1         5.4080   14.0020    9.7240 N.ar    6  DC6        -0.2556
    115  C2         4.1410   13.5950    9.2890 C.ar    6  DC6         0.3531
    116  O2         3.2290   13.4840   10.1270 O.2     6  DC6        -0.2443
    117  N3         3.9470   13.3340    7.9750 N.ar    6  DC6        -0.1739
    118  C4         4.9550   13.4650    7.1120 C.ar    6  DC6         0.1759
    119  N4         4.7170   13.1970    5.8260 N.pl3   6  DC6        -0.1070
    120  C5         6.2460   13.8760    7.5320 C.ar    6  DC6         0.0566
    121  C6         6.4340   14.1330    8.8310 C.ar    6  DC6         0.0849
    122  P          8.8360   11.1770   12.4920 P.3     7  DA7         0.2141
    123  OP1        9.8350   11.1100   13.5790 O.3     7  DA7        -0.4373
    124  OP2        9.2160   10.7500   11.1270 O.2     7  DA7        -0.5172
    125  O5'        7.5940   10.2520   12.8820 O.3     7  DA7        -0.3114
    126  C5'        6.9510   10.4650   14.1300 C.3     7  DA7         0.1811
    127  C4'        5.5040   10.0490   14.0880 C.3     7  DA7         0.1746
    128  O4'        4.7680   10.9140   13.1820 O.3     7  DA7        -0.3327
    129  C3'        5.2260    8.6650   13.5310 C.3     7  DA7         0.1558
    130  O3'        5.5380    7.6130   14.4280 O.3     7  DA7        -0.3138
    131  C2'        3.7490    8.7900   13.1880 C.3     7  DA7         0.0865
    132  C1'        3.7280   10.1860   12.5700 C.3     7  DA7         0.2094
    133  N9         3.9900   10.0650   11.1650 N.ar    7  DA7        -0.2714
    134  C8         5.1970   10.2810   10.5520 C.ar    7  DA7         0.1815
    135  N7         5.1440   10.2200    9.2420 N.ar    7  DA7        -0.2193
    136  C5         3.8120    9.9450    8.9770 C.ar    7  DA7         0.1518
    137  C6         3.1060    9.7590    7.7750 C.ar    7  DA7         0.1919
    138  N6         3.6710    9.8270    6.5680 N.pl3   7  DA7        -0.1054
    139  N1         1.7840    9.4980    7.8600 N.ar    7  DA7        -0.2040
    140  C2         1.2180    9.4310    9.0710 C.ar    7  DA7         0.2016
    141  N3         1.7760    9.5880   10.2690 N.ar    7  DA7        -0.2048
    142  C4         3.0900    9.8450   10.1510 C.ar    7  DA7         0.1691
    143  P          6.2720    6.3620   13.8460 P.3     8  DC8         0.2141
    144  OP1        7.3090    5.7620   14.7130 O.3     8  DC8        -0.4373
    145  OP2        6.5600    6.5980   12.4130 O.2     8  DC8        -0.5172
    146  O5'        4.9840    5.4110   13.8310 O.3     8  DC8        -0.3114
    147  C5'        4.1170    5.2670   14.9480 C.3     8  DC8         0.1811
    148  C4'        2.6710    5.2720   14.5110 C.3     8  DC8         0.1746
    149  O4'        2.4310    6.4420   13.6910 O.3     8  DC8        -0.3327
    150  C3'        2.2120    4.0830   13.6690 C.3     8  DC8         0.1558
    151  O3'        1.7210    3.0200   14.4790 O.3     8  DC8        -0.3138
    152  C2'        1.1590    4.6550   12.7230 C.3     8  DC8         0.0866
    153  C1'        1.4550    6.1570   12.7130 C.3     8  DC8         0.2106
    154  N1         1.7810    6.5420   11.4470 N.ar    8  DC8        -0.2556
    155  C2         0.7340    6.8040   10.5560 C.ar    8  DC8         0.3531
    156  O2        -0.4220    6.8990   11.0020 O.2     8  DC8        -0.2443
    157  N3         1.0100    6.9440    9.2370 N.ar    8  DC8        -0.1739
    158  C4         2.2660    6.8320    8.8030 C.ar    8  DC8         0.1759
    159  N4         2.4900    6.9770    7.4950 N.pl3   8  DC8        -0.1070
    160  C5         3.3410    6.5670    9.6900 C.ar    8  DC8         0.0566
    161  C6         3.0640    6.4300   10.9910 C.ar    8  DC8         0.0849
    162  P          0.8370    1.7380   13.9990 P.3     9  DA9         0.2141
    163  OP1        0.8370    0.7180   15.0700 O.3     9  DA9        -0.4373
    164  OP2        1.7560    1.6130   12.8460 O.2     9  DA9        -0.5172
    165  O5'       -0.6100    1.7920   13.3180 O.3     9  DA9        -0.3114
    166  C5'       -1.7850    1.9720   14.1000 C.3     9  DA9         0.1811
    167  C4'       -2.9760    2.3320   13.2420 C.3     9  DA9         0.1746
    168  O4'       -2.6860    3.5470   12.5020 O.3     9  DA9        -0.3327
    169  C3'       -3.3690    1.3170   12.1730 C.3     9  DA9         0.1558
    170  O3'       -4.1880    0.2680   12.6670 O.3     9  DA9        -0.3138
    171  C2'       -4.0690    2.1820   11.1310 C.3     9  DA9         0.0865
    172  C1'       -3.2480    3.4710   11.2110 C.3     9  DA9         0.2094
    173  N9        -2.1250    3.4730   10.2820 N.ar    9  DA9        -0.2714
    174  C8        -0.8260    3.1430   10.5660 C.ar    9  DA9         0.1815
    175  N7        -0.0190    3.2320    9.5350 N.ar    9  DA9        -0.2193
    176  C5        -0.8450    3.6470    8.5030 C.ar    9  DA9         0.1518
    177  C6        -0.5980    3.9270    7.1470 C.ar    9  DA9         0.1919
    178  N6         0.6060    3.8260    6.5800 N.pl3   9  DA9        -0.1054
    179  N1        -1.6430    4.3200    6.3880 N.ar    9  DA9        -0.2040
    180  C2        -2.8490    4.4220    6.9580 C.ar    9  DA9         0.2016
    181  N3        -3.2050    4.1880    8.2190 N.ar    9  DA9        -0.2048
    182  C4        -2.1450    3.7990    8.9470 C.ar    9  DA9         0.1691
    183  P         -4.4820   -1.1770   11.7000 P.3    10  DG10        0.2141
    184  OP1       -5.5570   -1.7880   12.5200 O.3    10  DG10       -0.4373
    185  OP2       -3.2010   -1.8890   11.4720 O.2    10  DG10       -0.5172
    186  O5'       -5.0550   -0.8880   10.2330 O.3    10  DG10       -0.3114
    187  C5'       -6.3590   -0.3620   10.0600 C.3    10  DG10        0.1811
    188  C4'       -6.5350    0.2160    8.6830 C.3    10  DG10        0.1746
    189  O4'       -5.5300    1.2280    8.4500 O.3    10  DG10       -0.3327
    190  C3'       -6.3220   -0.7370    7.5280 C.3    10  DG10        0.1558
    191  O3'       -7.4360   -1.5620    7.2770 O.3    10  DG10       -0.3138
    192  C2'       -5.9900    0.1830    6.3660 C.3    10  DG10        0.0865
    193  C1'       -5.2300    1.2940    7.0740 C.3    10  DG10        0.2094
    194  N9        -3.8840    1.1020    6.8340 N.ar   10  DG10       -0.2713
    195  C8        -2.9890    0.7490    7.8150 C.ar   10  DG10        0.1816
    196  N7        -1.7560    0.6980    7.3920 N.ar   10  DG10       -0.2173
    197  C5        -1.8370    1.0390    6.0550 C.ar   10  DG10        0.1748
    198  C6        -0.8240    1.1540    5.0680 C.ar   10  DG10        0.3023
    199  O6         0.3930    0.9690    5.1950 O.2    10  DG10       -0.2633
    200  N1        -1.3420    1.5240    3.8300 N.ar   10  DG10       -0.1709
    201  C2        -2.6720    1.7560    3.5750 C.ar   10  DG10        0.2606
    202  N2        -2.9800    2.1050    2.3180 N.pl3  10  DG10       -0.0859
    203  N3        -3.6250    1.6530    4.4800 N.ar   10  DG10       -0.1918
    204  C4        -3.1450    1.2930    5.6900 C.ar   10  DG10        0.1722
    205  P         -6.9990   -2.8060    7.0180 P.3    11  DA11        0.2141
    206  OP1       -7.5950   -4.1220    6.6600 O.2    11  DA11       -0.5172
    207  OP2       -5.8300   -2.7460    7.9330 O.3    11  DA11       -0.4373
    208  O5'       -6.6050   -2.0180    5.6870 O.3    11  DA11       -0.3114
    209  C5'       -7.5870   -1.7550    4.6520 C.3    11  DA11        0.1811
    210  C4'       -7.0840   -2.2620    3.3180 C.3    11  DA11        0.1746
    211  O4'       -5.9790   -1.4500    2.8680 O.3    11  DA11       -0.3327
    212  C3'       -6.5770   -3.6930    3.3690 C.3    11  DA11        0.1558
    213  O3'       -7.6320   -4.5440    2.9620 O.3    11  DA11       -0.3138
    214  C2'       -5.4460   -3.7240    2.3550 C.3    11  DA11        0.0865
    215  C1'       -4.9470   -2.2760    2.3800 C.3    11  DA11        0.2094
    216  N9        -3.7100   -1.9790    3.3040 N.ar   11  DA11       -0.2714
    217  C8        -3.6050   -1.9580    4.6710 C.ar   11  DA11        0.1815
    218  N7        -2.3790   -2.1160    5.1090 N.ar   11  DA11       -0.2193
    219  C5        -1.6280   -2.2520    3.9530 C.ar   11  DA11        0.1518
    220  C6        -0.2530   -2.4490    3.7360 C.ar   11  DA11        0.1919
    221  N6         0.6450   -2.5450    4.7190 N.pl3  11  DA11       -0.1054
    222  N1         0.1730   -2.5440    2.4580 N.ar   11  DA11       -0.2040
    223  C2        -0.7270   -2.4460    1.4730 C.ar   11  DA11        0.2016
    224  N3        -2.0430   -2.2600    1.5510 N.ar   11  DA11       -0.2048
    225  C4        -2.4340   -2.1710    2.8330 C.ar   11  DA11        0.1691
    226  P         -7.4710   -6.2410    3.2450 P.3    12  DG12        0.2141
    227  OP1       -8.7590   -6.9360    3.0380 O.2    12  DG12       -0.5172
    228  OP2       -6.7240   -6.4290    4.5070 O.3    12  DG12       -0.4373
    229  O5'       -6.4840   -6.6130    2.0450 O.3    12  DG12       -0.3114
    230  C5'       -6.9190   -6.4680    0.6910 C.3    12  DG12        0.1811
    231  C4'       -5.7360   -6.4560   -0.2610 C.3    12  DG12        0.1746
    232  O4'       -4.8150   -5.3860    0.0890 O.3    12  DG12       -0.3327
    233  C3'       -4.8680   -7.6970   -0.2050 C.3    12  DG12        0.1558
    234  O3'       -5.4390   -8.7480   -0.9440 O.3    12  DG12       -0.3138
    235  C2'       -3.5730   -7.1880   -0.8260 C.3    12  DG12        0.0865
    236  C1'       -3.4950   -5.7890   -0.2290 C.3    12  DG12        0.2094
    237  N9        -2.7220   -5.8020    0.9990 N.ar   12  DG12       -0.2713
    238  C8        -3.1470   -5.7040    2.3010 C.ar   12  DG12        0.1816
    239  N7        -2.1680   -5.7150    3.1640 N.ar   12  DG12       -0.2173
    240  C5        -1.0280   -5.8240    2.3890 C.ar   12  DG12        0.1748
    241  C6         0.3390   -5.8870    2.7610 C.ar   12  DG12        0.3023
    242  O6         0.8260   -5.8550    3.8990 O.2    12  DG12       -0.2633
    243  N1         1.1760   -5.9980    1.6540 N.ar   12  DG12       -0.1709
    244  C2         0.7480   -6.0430    0.3490 C.ar   12  DG12        0.2606
    245  N2         1.7040   -6.1500   -0.5830 N.pl3  12  DG12       -0.0859
    246  N3        -0.5190   -5.9870   -0.0120 N.ar   12  DG12       -0.1918
    247  C4        -1.3500   -5.8800    1.0470 C.ar   12  DG12        0.1722
    248  P         -4.7440  -10.1730   -0.8430 P.3    13  DG13        0.2141
    249  OP1       -5.6160  -10.6970   -1.9290 O.2    13  DG13       -0.5172
    250  OP2       -4.8920  -10.7050    0.5330 O.3    13  DG13       -0.4373
    251  O5'       -3.2030  -10.3130   -1.2460 O.3    13  DG13       -0.3114
    252  C5'       -2.7360   -9.9880   -2.5830 C.3    13  DG13        0.1811
    253  C4'       -1.2280   -9.8120   -2.5950 C.3    13  DG13        0.1746
    254  O4'       -0.8750   -8.7900   -1.6280 O.3    13  DG13       -0.3327
    255  C3'       -0.3790  -11.0210   -2.2120 C.3    13  DG13        0.1558
    256  O3'       -0.1130  -11.8610   -3.3430 O.3    13  DG13       -0.3138
    257  C2'        0.9020  -10.3820   -1.6780 C.3    13  DG13        0.0865
    258  C1'        0.3770   -9.0960   -1.0400 C.3    13  DG13        0.2094
    259  N9         0.1460   -9.0660    0.3570 N.ar   13  DG13       -0.2713
    260  C8        -0.9840   -9.2120    1.1250 C.ar   13  DG13        0.1816
    261  N7        -0.7260   -9.4560    2.3810 N.ar   13  DG13       -0.2173
    262  C5         0.6550   -9.4700    2.4510 C.ar   13  DG13        0.1748
    263  C6         1.5210   -9.6860    3.5540 C.ar   13  DG13        0.3023
    264  O6         1.2190   -9.9150    4.7310 O.2    13  DG13       -0.2633
    265  N1         2.8610   -9.6160    3.1840 N.ar   13  DG13       -0.1709
    266  C2         3.3120   -9.3680    1.9100 C.ar   13  DG13        0.2606
    267  N2         4.6410   -9.3370    1.7480 N.pl3  13  DG13       -0.0859
    268  N3         2.5190   -9.1660    0.8750 N.ar   13  DG13       -0.1918
    269  C4         1.2130   -9.2310    1.2100 C.ar   13  DG13        0.1722
    270  P          0.5540  -13.2180   -3.1330 P.3    14  DT14        0.2141
    271  OP1        0.4030  -13.0910   -4.6060 O.2    14  DT14       -0.5172
    272  OP2       -0.5150  -13.8740   -2.3500 O.3    14  DT14       -0.4373
    273  O5'        1.9060  -13.9860   -2.8130 O.3    14  DT14       -0.3114
    274  C5'        3.1660  -13.4350   -3.2190 C.3    14  DT14        0.1811
    275  C4'        4.1850  -13.5930   -2.1250 C.3    14  DT14        0.1746
    276  O4'        3.9990  -12.5760   -1.1180 O.3    14  DT14       -0.3327
    277  C3'        4.1170  -14.8970   -1.3620 C.3    14  DT14        0.1558
    278  O3'        4.7420  -15.9560   -2.0530 O.3    14  DT14       -0.3138
    279  C2'        4.7790  -14.5520   -0.0370 C.3    14  DT14        0.0866
    280  C1'        4.3290  -13.1030    0.1620 C.3    14  DT14        0.2106
    281  N1         3.2080  -12.9820    1.0690 N.ar   14  DT14       -0.2559
    282  C2         3.4800  -13.0270    2.4230 C.ar   14  DT14        0.3545
    283  O2         4.6050  -13.1720    2.8690 O.2    14  DT14       -0.2443
    284  N3         2.3840  -12.8970    3.2410 N.ar   14  DT14       -0.1533
    285  C4         1.0720  -12.7290    2.8500 C.ar   14  DT14        0.2804
    286  O4         0.1950  -12.6260    3.7040 O.2    14  DT14       -0.2654
    287  C5         0.8710  -12.6930    1.4290 C.ar   14  DT14        0.0534
    288  C6         1.9190  -12.8180    0.6100 C.ar   14  DT14        0.0824
    289  C7        -0.5230  -12.5150    0.9030 C.3    14  DT14        0.0377
    290  P          4.0260  -17.5210   -2.0140 P.3    15  DC15        0.2141
    291  OP1        4.6850  -18.1990   -3.1490 O.2    15  DC15       -0.5172
    292  OP2        2.5620  -17.3720   -1.9320 O.3    15  DC15       -0.4373
    293  O5'        4.5150  -18.3000   -0.7300 O.3    15  DC15       -0.3114
    294  C5'        5.8690  -18.6260   -0.6310 C.3    15  DC15        0.1811
    295  C4'        6.1460  -18.7430    0.8380 C.3    15  DC15        0.1746
    296  O4'        5.8260  -17.5060    1.5230 O.3    15  DC15       -0.3327
    297  C3'        5.2710  -19.7630    1.5570 C.3    15  DC15        0.1558
    298  O3'        5.6320  -21.0760    1.1260 O.3    15  DC15       -0.3138
    299  C2'        5.6640  -19.3790    2.9740 C.3    15  DC15        0.0866
    300  C1'        5.5340  -17.8490    2.8620 C.3    15  DC15        0.2106
    301  N1         4.1790  -17.2250    3.1060 N.ar   15  DC15       -0.2556
    302  C2         3.7400  -16.9770    4.4120 C.ar   15  DC15        0.3531
    303  O2         4.4760  -17.2980    5.3610 O.2    15  DC15       -0.2443
    304  N3         2.5300  -16.3990    4.6030 N.ar   15  DC15       -0.1739
    305  C4         1.7740  -16.0720    3.5540 C.ar   15  DC15        0.1759
    306  N4         0.5900  -15.5040    3.7910 N.pl3  15  DC15       -0.1070
    307  C5         2.2010  -16.3140    2.2230 C.ar   15  DC15        0.0566
    308  C6         3.3960  -16.8860    2.0390 C.ar   15  DC15        0.0849
    309  P          4.7980  -22.4570    1.5390 P.3    16  DA16        0.2141
    310  OP1        5.7000  -23.5020    0.9890 O.2    16  DA16       -0.5172
    311  OP2        3.3350  -22.5590    1.3020 O.3    16  DA16       -0.4373
    312  O5'        5.0780  -22.3220    3.1230 O.3    16  DA16       -0.3114
    313  C5'        5.6230  -23.3990    3.9200 C.3    16  DA16        0.1811
    314  C4'        5.4960  -23.1860    5.4300 C.3    16  DA16        0.1746
    315  O4'        5.3230  -21.7750    5.7660 O.3    16  DA16       -0.3327
    316  C3'        4.3020  -23.8510    6.1210 C.3    16  DA16        0.1558
    317  O3'        4.4540  -25.2480    6.3970 O.3    16  DA16       -0.3138
    318  C2'        4.1800  -22.9890    7.3720 C.3    16  DA16        0.0865
    319  C1'        4.2480  -21.6290    6.6850 C.3    16  DA16        0.2094
    320  N9         2.8730  -21.2380    6.0000 N.ar   16  DA16       -0.2714
    321  C8         2.6380  -21.1320    4.6540 C.ar   16  DA16        0.1815
    322  N7         1.4960  -20.5560    4.3600 N.ar   16  DA16       -0.2193
    323  C5         0.9430  -20.2650    5.5970 C.ar   16  DA16        0.1518
    324  C6        -0.2640  -19.6490    5.9720 C.ar   16  DA16        0.1919
    325  N6        -1.1660  -19.1980    5.0980 N.pl3  16  DA16       -0.1054
    326  N1        -0.5140  -19.5130    7.2920 N.ar   16  DA16       -0.2040
    327  C2         0.3920  -19.9640    8.1670 C.ar   16  DA16        0.2016
    328  N3         1.5610  -20.5580    7.9360 N.ar   16  DA16       -0.2048
    329  C4         1.7790  -20.6800    6.6160 C.ar   16  DA16        0.1691
    330  P          3.6310  -26.2450    5.5310 P.3    17  DG17        0.2141
    331  OP1        4.0950  -27.6210    5.1920 O.3    17  DG17       -0.4373
    332  OP2        2.8720  -25.4520    4.5230 O.2    17  DG17       -0.5172
    333  O5'        2.6660  -26.3320    6.7910 O.3    17  DG17       -0.3114
    334  C5'        3.1950  -26.6170    8.0630 C.3    17  DG17        0.1811
    335  C4'        2.4740  -25.8330    9.1140 C.3    17  DG17        0.1746
    336  O4'        2.5220  -24.4230    8.8110 O.3    17  DG17       -0.3327
    337  C3'        0.9960  -26.1010    9.2750 C.3    17  DG17        0.1558
    338  O3'        0.7950  -27.2500   10.0730 O.3    17  DG17       -0.3138
    339  C2'        0.5260  -24.8630   10.0190 C.3    17  DG17        0.0865
    340  C1'        1.4480  -23.7870    9.4500 C.3    17  DG17        0.2094
    341  N9         0.7020  -23.1060    8.6010 N.ar   17  DG17       -0.2713
    342  C8         1.0410  -22.9540    7.2780 C.ar   17  DG17        0.1816
    343  N7         0.1260  -22.3410    6.5790 N.ar   17  DG17       -0.2173
    344  C5        -0.8770  -22.0680    7.4910 C.ar   17  DG17        0.1748
    345  C6        -2.1270  -21.4200    7.3220 C.ar   17  DG17        0.3023
    346  O6        -2.6080  -20.9400    6.2870 O.2    17  DG17       -0.2633
    347  N1        -2.8450  -21.3540    8.5130 N.ar   17  DG17       -0.1709
    348  C2        -2.4120  -21.8520    9.7180 C.ar   17  DG17        0.2606
    349  N2        -3.2440  -21.6930   10.7570 N.pl3  17  DG17       -0.0859
    350  N3        -1.2530  -22.4570    9.8910 N.ar   17  DG17       -0.1918
    351  C4        -0.5400  -22.5340    8.7470 C.ar   17  DG17        0.1722
    352  P         -0.1620  -28.4330    9.5410 P.3    18  DA18        0.2141
    353  OP1        0.1960  -29.5900   10.4060 O.3    18  DA18       -0.4373
    354  OP2       -0.0380  -28.5590    8.0660 O.2    18  DA18       -0.5172
    355  O5'       -1.6490  -27.9720    9.9020 O.3    18  DA18       -0.3114
    356  C5'       -2.1130  -27.9930   11.2710 C.3    18  DA18        0.1811
    357  C4'       -3.2530  -27.0140   11.4850 C.3    18  DA18        0.1746
    358  O4'       -2.8920  -25.7130   10.9490 O.3    18  DA18       -0.3327
    359  C3'       -4.6050  -27.3360   10.8640 C.3    18  DA18        0.1558
    360  O3'       -5.3580  -28.1790   11.7260 O.3    18  DA18       -0.3138
    361  C2'       -5.2560  -25.9630   10.7740 C.3    18  DA18        0.0865
    362  C1'       -4.0580  -25.0500   10.4890 C.3    18  DA18        0.2094
    363  N9        -3.9690  -24.8210    9.1000 N.ar   18  DA18       -0.2714
    364  C8        -2.9990  -25.3250    8.2730 C.ar   18  DA18        0.1815
    365  N7        -3.0600  -24.8650    7.0450 N.ar   18  DA18       -0.2193
    366  C5        -4.1440  -24.0010    7.0680 C.ar   18  DA18        0.1518
    367  C6        -4.7320  -23.1960    6.0770 C.ar   18  DA18        0.1919
    368  N6        -4.2890  -23.1290    4.8190 N.pl3  18  DA18       -0.1054
    369  N1        -5.8040  -22.4530    6.4280 N.ar   18  DA18       -0.2040
    370  C2        -6.2460  -22.5210    7.6890 C.ar   18  DA18        0.2016
    371  N3        -5.7780  -23.2380    8.7070 N.ar   18  DA18       -0.2048
    372  C4        -4.7140  -23.9650    8.3260 C.ar   18  DA18        0.1691
    373  P         -7.2030  -29.0100   11.1950 P.3    19  DT19        0.2141
    374  OP1       -7.3880  -30.0950   12.2120 O.3    19  DT19       -0.4373
    375  OP2       -6.6160  -29.3440    9.8590 O.2    19  DT19       -0.5172
    376  O5'       -8.6240  -28.3540   10.9130 O.3    19  DT19       -0.3114
    377  C5'       -9.2320  -27.5190   11.8810 C.3    19  DT19        0.1811
    378  C4'      -10.1330  -26.5190   11.2200 C.3    19  DT19        0.1746
    379  O4'       -9.3640  -25.5530   10.4520 O.3    19  DT19       -0.3327
    380  C3'      -11.1180  -27.0870   10.2240 C.3    19  DT19        0.1558
    381  O3'      -12.2530  -27.6470   10.8590 O.3    19  DT19       -0.3138
    382  C2'      -11.4700  -25.8620    9.3900 C.3    19  DT19        0.0866
    383  C1'      -10.1270  -25.1240    9.3340 C.3    19  DT19        0.2106
    384  N1        -9.3330  -25.3610    8.1230 N.ar   19  DT19       -0.2559
    385  C2        -9.6670  -24.6690    6.9740 C.ar   19  DT19        0.3545
    386  O2       -10.5840  -23.8680    6.9240 O.2    19  DT19       -0.2443
    387  N3        -8.8870  -24.9510    5.8790 N.ar   19  DT19       -0.1533
    388  C4        -7.8300  -25.8340    5.8190 C.ar   19  DT19        0.2804
    389  O4        -7.2220  -25.9800    4.7610 O.2    19  DT19       -0.2654
    390  C5        -7.5460  -26.5140    7.0510 C.ar   19  DT19        0.0534
    391  C6        -8.2890  -26.2590    8.1320 C.ar   19  DT19        0.0824
    392  C7        -6.4140  -27.4970    7.0870 C.3    19  DT19        0.0377
    393  P        -13.1000  -28.9180   10.1420 P.3    20  DG20        0.2141
    394  OP1      -13.9630  -29.4320   11.2340 O.3    20  DG20       -0.4373
    395  OP2      -11.9150  -29.6990    9.7050 O.2    20  DG20       -0.5172
    396  O5'      -14.0080  -28.6080    8.8770 O.3    20  DG20       -0.3114
    397  C5'      -15.0300  -27.6370    8.9830 C.3    20  DG20        0.1811
    398  C4'      -15.1470  -26.8290    7.7180 C.3    20  DG20        0.1746
    399  O4'      -13.9210  -26.1020    7.4290 O.3    20  DG20       -0.3327
    400  C3'      -15.3810  -27.5640    6.4210 C.3    20  DG20        0.1558
    401  O3'      -16.6730  -28.0970    6.3200 O.3    20  DG20       -0.3138
    402  C2'      -15.0870  -26.4790    5.4070 C.3    20  DG20        0.0865
    403  C1'      -13.8600  -25.8280    6.0330 C.3    20  DG20        0.2094
    404  N9       -12.6950  -26.4040    5.4080 N.ar   20  DG20       -0.2713
    405  C8       -11.7310  -27.0620    6.1330 C.ar   20  DG20        0.1816
    406  N7       -10.6810  -27.3790    5.4270 N.ar   20  DG20       -0.2173
    407  C5       -10.9630  -26.9030    4.1600 C.ar   20  DG20        0.1748
    408  C6       -10.2000  -26.9520    2.9640 C.ar   20  DG20        0.3023
    409  O6        -9.0800  -27.4480    2.7900 O.2    20  DG20       -0.2633
    410  N1       -10.8630  -26.3470    1.9000 N.ar   20  DG20       -0.1709
    411  C2       -12.1060  -25.7670    1.9770 C.ar   20  DG20        0.2606
    412  N2       -12.5800  -25.2330    0.8430 N.pl3  20  DG20       -0.0859
    413  N3       -12.8260  -25.7140    3.0800 N.ar   20  DG20       -0.1918
    414  C4       -12.2030  -26.2960    4.1270 C.ar   20  DG20        0.1722
    415  P        -16.5660  -28.9770    5.7540 P.3    21  DC21        0.2141
    416  OP1      -17.8850  -29.5290    6.1650 O.2    21  DC21       -0.5172
    417  OP2      -15.3340  -29.6720    6.1990 O.3    21  DC21       -0.4373
    418  O5'      -16.4480  -28.8480    4.1620 O.3    21  DC21       -0.3114
    419  C5'      -17.3380  -28.0230    3.3980 C.3    21  DC21        0.1811
    420  C4'      -17.0680  -28.1840    1.9140 C.3    21  DC21        0.1746
    421  O4'      -15.8840  -27.4390    1.5220 O.3    21  DC21       -0.3327
    422  C3'      -16.7860  -29.6040    1.4690 C.3    21  DC21        0.1558
    423  O3'      -17.9760  -30.3400    1.2710 O.3    21  DC21       -0.3138
    424  C2'      -15.9610  -29.4070    0.2030 C.3    21  DC21        0.0866
    425  C1'      -15.1370  -28.1760    0.5630 C.3    21  DC21        0.2106
    426  N1       -13.8460  -28.6740    1.2000 N.ar   21  DC21       -0.2556
    427  C2       -12.7540  -28.8330    0.3390 C.ar   21  DC21        0.3531
    428  O2       -12.8630  -28.4590   -0.8410 O.2    21  DC21       -0.2443
    429  N3       -11.6140  -29.3890    0.8150 N.ar   21  DC21       -0.1739
    430  C4       -11.5430  -29.7770    2.0890 C.ar   21  DC21        0.1759
    431  N4       -10.4000  -30.3210    2.5140 N.pl3  21  DC21       -0.1070
    432  C5       -12.6390  -29.6250    2.9770 C.ar   21  DC21        0.0566
    433  C6       -13.7620  -29.0750    2.5030 C.ar   21  DC21        0.0849
    434  P        -17.9730  -32.0280    1.3980 P.3    22  DG22        0.2141
    435  OP1      -19.3590  -32.5430    1.3300 O.2    22  DG22       -0.5172
    436  OP2      -17.1230  -32.3320    2.5720 O.3    22  DG22       -0.4373
    437  O5'      -17.1110  -32.5300    0.1410 O.3    22  DG22       -0.3114
    438  C5'      -17.7060  -32.5990   -1.1470 C.3    22  DG22        0.1811
    439  C4'      -16.7110  -32.9350   -2.2330 C.3    22  DG22        0.1746
    440  O4'      -15.5840  -32.0210   -2.1590 O.3    22  DG22       -0.3327
    441  C3'      -16.0770  -34.3220   -2.1860 C.3    22  DG22        0.1558
    442  O3'      -16.8910  -35.3540   -2.7230 O.3    22  DG22       -0.3138
    443  C2'      -14.7940  -34.1070   -2.9780 C.3    22  DG22        0.0865
    444  C1'      -14.4050  -32.6880   -2.5560 C.3    22  DG22        0.2094
    445  N9       -13.5120  -32.6610   -1.4160 N.ar   22  DG22       -0.2713
    446  C8       -13.8590  -32.3800   -0.1170 C.ar   22  DG22        0.1816
    447  N7       -12.8490  -32.4280    0.7080 N.ar   22  DG22       -0.2173
    448  C5       -11.7690  -32.7580   -0.0900 C.ar   22  DG22        0.1748
    449  C6       -10.4030  -32.9550    0.2400 C.ar   22  DG22        0.3023
    450  O6        -9.8630  -32.8710    1.3500 O.2    22  DG22       -0.2633
    451  N1        -9.6400  -33.2810   -0.8780 N.ar   22  DG22       -0.1709
    452  C2       -10.1320  -33.4020   -2.1550 C.ar   22  DG22        0.2606
    453  N2        -9.2410  -33.7220   -3.1040 N.pl3  22  DG22       -0.0859
    454  N3       -11.3980  -33.2220   -2.4770 N.ar   22  DG22       -0.1918
    455  C4       -12.1580  -32.9060   -1.4070 C.ar   22  DG22        0.1722
    456  P        -16.6350  -36.9610   -2.3410 P.3    23  DA23        0.2141
    457  OP1      -17.7760  -37.5090   -3.1150 O.2    23  DA23       -0.5172
    458  OP2      -16.5230  -37.1680   -0.8760 O.3    23  DA23       -0.4373
    459  O5'      -15.2690  -37.5360   -2.9410 O.3    23  DA23       -0.3114
    460  C5'      -15.1670  -37.5340   -4.3550 C.3    23  DA23        0.1811
    461  C4'      -13.7400  -37.6050   -4.8260 C.3    23  DA23        0.1746
    462  O4'      -12.9800  -36.4860   -4.3080 O.3    23  DA23       -0.3327
    463  C3'      -12.9550  -38.8260   -4.3910 C.3    23  DA23        0.1558
    464  O3'      -13.2170  -39.9480   -5.2070 O.3    23  DA23       -0.3138
    465  C2'      -11.5330  -38.3350   -4.5560 C.3    23  DA23        0.0865
    466  C1'      -11.6550  -36.8930   -4.0640 C.3    23  DA23        0.2094
    467  N9       -11.3780  -36.8250   -2.6200 N.ar   23  DA23       -0.2714
    468  C8       -12.3090  -36.6820   -1.6250 C.ar   23  DA23        0.1815
    469  N7       -11.7890  -36.5850   -0.4240 N.ar   23  DA23       -0.2193
    470  C5       -10.4240  -36.6710   -0.6460 C.ar   23  DA23        0.1518
    471  C6        -9.3200  -36.6330    0.2240 C.ar   23  DA23        0.1919
    472  N6        -9.4270  -36.4930    1.5480 N.pl3  23  DA23       -0.1054
    473  N1        -8.0900  -36.7460   -0.3190 N.ar   23  DA23       -0.2040
    474  C2        -7.9840  -36.8850   -1.6460 C.ar   23  DA23        0.2016
    475  N3        -8.9450  -36.9330   -2.5650 N.ar   23  DA23       -0.2048
    476  C4       -10.1550  -36.8200   -1.9930 C.ar   23  DA23        0.1691
    477  P        -12.5770  -41.2540   -4.8140 P.3    24  DT24        0.2141
    478  OP1      -12.8550  -42.0870   -6.0200 O.2    24  DT24       -0.5172
    479  OP2      -13.4890  -41.3280   -3.6530 O.3    24  DT24       -0.4373
    480  O5'      -11.0920  -41.4840   -4.2640 O.3    24  DT24       -0.3114
    481  C5'      -10.0040  -41.5410   -5.1950 C.3    24  DT24        0.1811
    482  C4'       -8.6780  -41.6440   -4.4960 C.3    24  DT24        0.1746
    483  O4'       -8.4230  -40.4560   -3.7310 O.3    24  DT24       -0.3327
    484  C3'       -8.4810  -42.7730   -3.5140 C.3    24  DT24        0.1558
    485  O3'       -8.1210  -43.9620   -4.1750 O.3    24  DT24       -0.3138
    486  C2'       -7.3120  -42.2790   -2.6830 C.3    24  DT24        0.0866
    487  C1'       -7.5730  -40.7750   -2.6510 C.3    24  DT24        0.2106
    488  N1        -8.2700  -40.4410   -1.4290 N.ar   24  DT24       -0.2559
    489  C2        -7.4800  -40.2970   -0.3040 C.ar   24  DT24        0.3545
    490  O2        -6.2680  -40.4120   -0.3250 O.2    24  DT24       -0.2443
    491  N3        -8.1640  -40.0140    0.8540 N.ar   24  DT24       -0.1533
    492  C4        -9.5280  -39.8630    0.9960 C.ar   24  DT24        0.2804
    493  O4        -9.9960  -39.6090    2.1030 O.2    24  DT24       -0.2654
    494  C5       -10.2790  -40.0280   -0.2170 C.ar   24  DT24        0.0534
    495  C6        -9.6390  -40.3040   -1.3560 C.ar   24  DT24        0.0824
    496  C7       -11.7710  -39.8840   -0.1660 C.3    24  DT24        0.0377
    497  P         -8.5000  -45.2840   -3.5320 P.3    25  DC25        0.2141
    498  OP1       -8.0560  -46.2920   -4.5310 O.2    25  DC25       -0.5172
    499  OP2       -9.9090  -45.2920   -3.0490 O.3    25  DC25       -0.4373
    500  O5'       -7.5480  -45.3910   -2.2570 O.3    25  DC25       -0.3114
    501  C5'       -6.1110  -45.4330   -2.4240 C.3    25  DC25        0.1811
    502  C4'       -5.4130  -45.5330   -1.0880 C.3    25  DC25        0.1746
    503  O4'       -5.4030  -44.2620   -0.4020 O.3    25  DC25       -0.3327
    504  C3'       -6.0080  -46.5110   -0.1000 C.3    25  DC25        0.1558
    505  O3'       -5.5240  -47.8040   -0.3970 O.3    25  DC25       -0.3138
    506  C2'       -5.4890  -45.9870    1.2360 C.3    25  DC25        0.0866
    507  C1'       -5.4570  -44.4760    0.9970 C.3    25  DC25        0.2106
    508  N1        -6.6310  -43.6650    1.3640 N.ar   25  DC25       -0.2556
    509  C2        -6.6470  -43.6730    2.7640 C.ar   25  DC25        0.3531
    510  O2        -5.5990  -43.9500    3.3720 O.2    25  DC25       -0.2443
    511  N3        -7.8000  -43.3810    3.4120 N.ar   25  DC25       -0.1739
    512  C4        -8.9010  -43.0910    2.7180 C.ar   25  DC25        0.1759
    513  N4       -10.0130  -42.8090    3.4000 N.pl3  25  DC25       -0.1070
    514  C5        -8.9060  -43.0780    1.3000 C.ar   25  DC25        0.0566
    515  C6        -7.7650  -43.3670    0.6630 C.ar   25  DC25        0.0849
    516  P         -6.5880  -49.1080   -0.4260 P.3    26  DT26        0.2141
    517  OP1       -6.1270  -50.3120   -1.1620 O.2    26  DT26       -0.5172
    518  OP2       -7.9300  -48.5180   -0.7020 O.3    26  DT26       -0.4373
    519  O5'       -6.5020  -49.3900    1.1370 O.3    26  DT26       -0.3114
    520  C5'       -5.3500  -50.0070    1.6990 C.3    26  DT26        0.1811
    521  C4'       -5.5110  -50.1220    3.1860 C.3    26  DT26        0.1746
    522  O4'       -5.6200  -48.7870    3.7330 O.3    26  DT26       -0.3327
    523  C3'       -6.8070  -50.7490    3.6470 C.3    26  DT26        0.1558
    524  O3'       -6.7710  -52.1450    3.6270 O.3    26  DT26       -0.3138
    525  C2'       -6.8970  -50.2530    5.0710 C.3    26  DT26        0.0866
    526  C1'       -6.4480  -48.8130    4.8830 C.3    26  DT26        0.2106
    527  N1        -7.6050  -47.9560    4.6620 N.ar   26  DT26       -0.2559
    528  C2        -8.3120  -47.4940    5.7550 C.ar   26  DT26        0.3545
    529  O2        -8.0220  -47.7790    6.9030 O.2    26  DT26       -0.2443
    530  N3        -9.3800  -46.6820    5.4550 N.ar   26  DT26       -0.1533
    531  C4        -9.8010  -46.2950    4.2000 C.ar   26  DT26        0.2804
    532  O4       -10.7790  -45.5590    4.0910 O.2    26  DT26       -0.2654
    533  C5        -9.0160  -46.8170    3.1170 C.ar   26  DT26        0.0534
    534  C6        -7.9730  -47.6090    3.3800 C.ar   26  DT26        0.0824
    535  C7        -9.3950  -46.4540    1.7120 C.3    26  DT26        0.0377
    536  P         -8.0400  -53.0970    3.1590 P.3    27  DG27        0.2141
    537  OP1       -7.8830  -54.2090    2.1830 O.2    27  DG27       -0.5172
    538  OP2       -8.9580  -51.9570    2.8460 O.3    27  DG27       -0.4373
    539  O5'       -8.5150  -53.6880    4.5550 O.3    27  DG27       -0.3113
    540  C5'       -9.8340  -54.1720    4.7250 C.3    27  DG27        0.1836
    541  C4'      -10.1800  -54.1810    6.1840 C.3    27  DG27        0.1992
    542  O4'       -9.3890  -55.1870    6.8450 O.3    27  DG27       -0.3301
    543  C3'       -9.8310  -52.8750    6.8540 C.3    27  DG27        0.2381
    544  O3'      -10.9810  -52.0590    6.7830 O.3    27  DG27       -0.2491
    545  C2'       -9.4720  -53.2870    8.2720 C.3    27  DG27        0.1137
    546  C1'       -8.8740  -54.6780    8.0530 C.3    27  DG27        0.2120
    547  N9        -7.4380  -55.0500    8.0590 N.ar   27  DG27       -0.2713
    548  C8        -6.5300  -54.9160    7.0370 C.ar   27  DG27        0.1816
    549  N7        -5.2950  -54.8380    7.4520 N.ar   27  DG27       -0.2173
    550  C5        -5.3890  -54.9270    8.8280 C.ar   27  DG27        0.1748
    551  C6        -4.3820  -54.9000    9.8260 C.ar   27  DG27        0.3023
    552  O6        -3.1580  -54.7890    9.6770 O.2    27  DG27       -0.2633
    553  N1        -4.9140  -55.0190   11.1070 N.ar   27  DG27       -0.1709
    554  C2        -6.2530  -55.1480   11.3910 C.ar   27  DG27        0.2606
    555  N2        -6.5740  -55.2510   12.6880 N.pl3  27  DG27       -0.0859
    556  N3        -7.2000  -55.1730   10.4750 N.ar   27  DG27       -0.1918
    557  C4        -6.7070  -55.0590    9.2240 C.ar   27  DG27        0.1722
    558  P        -10.7070  -50.4580    6.4340 P.3    28  DG28        0.4833
    559  OP1      -11.1700  -49.4640    5.4400 O.2    28  DG28       -0.2269
    560  OP2       -9.5100  -51.2790    6.1450 O.3    28  DG28       -0.2491
    561  O5'      -10.4850  -49.7010    7.8260 O.3    28  DG28       -0.2704
    562  C5'      -10.7280  -50.3680    9.0590 C.3    28  DG28        0.1856
    563  C4'      -10.1680  -49.5650   10.2200 C.3    28  DG28        0.1748
    564  O4'       -8.9340  -50.1690   10.6770 O.3    28  DG28       -0.3327
    565  C3'       -9.8010  -48.1270    9.8780 C.3    28  DG28        0.1558
    566  O3'      -10.9210  -47.2620   10.0230 O.3    28  DG28       -0.3138
    567  C2'       -8.7140  -47.8270   10.9070 C.3    28  DG28        0.0865
    568  C1'       -7.9810  -49.1610   10.9670 C.3    28  DG28        0.2094
    569  N9        -6.8530  -49.2560    9.8820 N.ar   28  DG28       -0.2713
    570  C8        -6.8150  -49.7440    8.5980 C.ar   28  DG28        0.1816
    571  N7        -5.7470  -49.3830    7.9410 N.ar   28  DG28       -0.2173
    572  C5        -5.0340  -48.6130    8.8410 C.ar   28  DG28        0.1748
    573  C6        -3.7910  -47.9430    8.7020 C.ar   28  DG28        0.3023
    574  O6        -3.0500  -47.9010    7.7120 O.2    28  DG28       -0.2633
    575  N1        -3.4290  -47.2710    9.8660 N.ar   28  DG28       -0.1709
    576  C2        -4.1720  -47.2480   11.0220 C.ar   28  DG28        0.2606
    577  N2        -3.6570  -46.5460   12.0410 N.pl3  28  DG28       -0.0859
    578  N3        -5.3280  -47.8640   11.1660 N.ar   28  DG28       -0.1918
    579  C4        -5.7010  -48.5230   10.0480 C.ar   28  DG28        0.1722
    580  P        -11.0970  -45.9040    8.9910 P.3    29  DA29        0.2141
    581  OP1      -12.4890  -45.7120    8.5210 O.3    29  DA29       -0.4373
    582  OP2       -9.9560  -45.5020    8.1380 O.2    29  DA29       -0.5172
    583  O5'      -10.8730  -45.1010   10.3610 O.3    29  DA29       -0.3114
    584  C5'      -10.2840  -43.8080   10.3850 C.3    29  DA29        0.1811
    585  C4'       -9.1940  -43.7270   11.4270 C.3    29  DA29        0.1746
    586  O4'       -8.3500  -44.9050   11.3230 O.3    29  DA29       -0.3327
    587  C3'       -8.2150  -42.5700   11.2890 C.3    29  DA29        0.1558
    588  O3'       -8.6880  -41.3350   11.8010 O.3    29  DA29       -0.3138
    589  C2'       -6.9860  -43.1120   12.0090 C.3    29  DA29        0.0865
    590  C1'       -6.9950  -44.5510   11.4990 C.3    29  DA29        0.2094
    591  N9        -6.3260  -44.7910   10.1420 N.ar   29  DA29       -0.2714
    592  C8        -6.9390  -45.3080    9.0310 C.ar   29  DA29        0.1815
    593  N7        -6.1100  -45.6000    8.0570 N.ar   29  DA29       -0.2193
    594  C5        -4.8680  -45.2510    8.5630 C.ar   29  DA29        0.1518
    595  C6        -3.5730  -45.3170    8.0200 C.ar   29  DA29        0.1919
    596  N6        -3.3070  -45.7780    6.7960 N.pl3  29  DA29       -0.1054
    597  N1        -2.5490  -44.8870    8.7880 N.ar   29  DA29       -0.2040
    598  C2        -2.8160  -44.4260   10.0150 C.ar   29  DA29        0.2016
    599  N3        -3.9890  -44.3160   10.6350 N.ar   29  DA29       -0.2048
    600  C4        -4.9850  -44.7500    9.8460 C.ar   29  DA29        0.1691
    601  P         -8.2760  -40.0740   11.1050 P.3    30  DT30        0.2141
    602  OP1       -8.5250  -39.3300   12.3620 O.3    30  DT30       -0.4373
    603  OP2       -8.9720  -39.6800    9.8580 O.2    30  DT30       -0.5172
    604  O5'       -6.7020  -40.0830   10.8330 O.3    30  DT30       -0.3114
    605  C5'       -5.8110  -39.9150   11.9260 C.3    30  DT30        0.1811
    606  C4'       -4.4180  -40.4030   11.5790 C.3    30  DT30        0.1746
    607  O4'       -4.4750  -41.5980   10.7600 O.3    30  DT30       -0.3327
    608  C3'       -3.5880  -39.4650   10.7210 C.3    30  DT30        0.1558
    609  O3'       -3.1610  -38.3210   11.4580 O.3    30  DT30       -0.3138
    610  C2'       -2.4590  -40.4240   10.3620 C.3    30  DT30        0.0866
    611  C1'       -3.2780  -41.6610    9.9990 C.3    30  DT30        0.2106
    612  N1        -3.8560  -41.7640    8.5500 N.ar   30  DT30       -0.2559
    613  C2        -3.1190  -42.5220    7.6600 C.ar   30  DT30        0.3545
    614  O2        -2.0850  -43.0880    7.9670 O.2    30  DT30       -0.2443
    615  N3        -3.6380  -42.5930    6.3890 N.ar   30  DT30       -0.1533
    616  C4        -4.7930  -41.9960    5.9300 C.ar   30  DT30        0.2804
    617  O4        -5.1310  -42.1530    4.7590 O.2    30  DT30       -0.2654
    618  C5        -5.5010  -41.2260    6.9130 C.ar   30  DT30        0.0534
    619  C6        -5.0190  -41.1390    8.1560 C.ar   30  DT30        0.0824
    620  C7        -6.7710  -40.5360    6.5100 C.3    30  DT30        0.0377
    621  P         -2.0050  -37.3390   10.7120 P.3    31  DA31        0.2141
    622  OP1       -0.6190  -36.9050   11.0240 O.3    31  DA31       -0.4373
    623  OP2       -3.2060  -36.4840   10.8640 O.2    31  DA31       -0.5172
    624  O5'       -1.9850  -37.8890    9.1960 O.3    31  DA31       -0.3114
    625  C5'       -0.6180  -38.0850    8.7270 C.3    31  DA31        0.1811
    626  C4'       -0.6120  -38.4290    7.2600 C.3    31  DA31        0.1746
    627  O4'       -1.6810  -39.3690    7.0030 O.3    31  DA31       -0.3327
    628  C3'       -0.9520  -37.3370    6.2670 C.3    31  DA31        0.1558
    629  O3'        0.2220  -36.6950    6.0250 O.3    31  DA31       -0.3138
    630  C2'       -1.3000  -38.1760    5.0440 C.3    31  DA31        0.0865
    631  C1'       -2.2100  -39.1900    5.6780 C.3    31  DA31        0.2094
    632  N9        -3.6120  -38.6120    5.6750 N.ar   31  DA31       -0.2714
    633  C8        -4.2740  -37.9580    6.6810 C.ar   31  DA31        0.1815
    634  N7        -5.5550  -37.7890    6.4500 N.ar   31  DA31       -0.2193
    635  C5        -5.7470  -38.3710    5.2060 C.ar   31  DA31        0.1518
    636  C6        -6.8880  -38.5230    4.3990 C.ar   31  DA31        0.1919
    637  N6        -8.1000  -38.0820    4.7420 N.pl3  31  DA31       -0.1054
    638  N1        -6.7370  -39.1510    3.2130 N.ar   31  DA31       -0.2040
    639  C2        -5.5210  -39.5930    2.8710 C.ar   31  DA31        0.2016
    640  N3        -4.3760  -39.5100    3.5440 N.ar   31  DA31       -0.2048
    641  C4        -4.5590  -38.8810    4.7160 C.ar   31  DA31        0.1691
    642  P          0.3200  -35.1550    5.9280 P.3    32  DT32        0.2141
    643  OP1        1.4830  -34.2490    5.6690 O.2    32  DT32       -0.5172
    644  OP2       -0.8730  -34.6680    6.6860 O.3    32  DT32       -0.4373
    645  O5'       -0.1350  -35.6810    4.5020 O.3    32  DT32       -0.3114
    646  C5'        0.8460  -35.9980    3.5030 C.3    32  DT32        0.1811
    647  C4'        0.1770  -36.2500    2.1750 C.3    32  DT32        0.1746
    648  O4'       -0.9380  -37.1530    2.3600 O.3    32  DT32       -0.3327
    649  C3'       -0.4380  -35.0310    1.5190 C.3    32  DT32        0.1558
    650  O3'        0.5140  -34.3950    0.7100 O.3    32  DT32       -0.3138
    651  C2'       -1.4960  -35.6370    0.6140 C.3    32  DT32        0.0866
    652  C1'       -1.9550  -36.8380    1.4330 C.3    32  DT32        0.2106
    653  N1        -3.2050  -36.6030    2.1290 N.ar   32  DT32       -0.2559
    654  C2        -4.3990  -36.7930    1.4590 C.ar   32  DT32        0.3545
    655  O2        -4.4590  -37.2060    0.3140 O.2    32  DT32       -0.2443
    656  N3        -5.5260  -36.4800    2.1790 N.ar   32  DT32       -0.1533
    657  C4        -5.5790  -36.0060    3.4730 C.ar   32  DT32        0.2804
    658  O4        -6.6690  -35.7710    3.9880 O.2    32  DT32       -0.2654
    659  C5        -4.2990  -35.8340    4.1010 C.ar   32  DT32        0.0534
    660  C6        -3.1870  -36.1310    3.4230 C.ar   32  DT32        0.0824
    661  C7        -4.2510  -35.3220    5.5100 C.3    32  DT32        0.0377
    662  P          0.0630  -33.3000   -0.0010 P.3    33  DT33        0.2141
    663  OP1        1.4450  -33.1170   -0.5610 O.2    33  DT33       -0.5172
    664  OP2       -0.4400  -32.4560    1.1160 O.3    33  DT33       -0.4373
    665  O5'       -1.0410  -33.2990   -1.1690 O.3    33  DT33       -0.3114
    666  C5'       -0.8670  -34.0670   -2.3650 C.3    33  DT33        0.1811
    667  C4'       -2.1310  -34.0860   -3.2230 C.3    33  DT33        0.1746
    668  O4'       -3.1250  -34.9420   -2.5860 O.3    33  DT33       -0.3327
    669  C3'       -2.8660  -32.7430   -3.4090 C.3    33  DT33        0.1558
    670  O3'       -2.2840  -31.8850   -4.4380 O.3    33  DT33       -0.3138
    671  C2'       -4.2750  -33.2170   -3.7490 C.3    33  DT33        0.0866
    672  C1'       -4.4290  -34.3910   -2.7670 C.3    33  DT33        0.2106
    673  N1        -5.0070  -33.8090   -1.4050 N.ar   33  DT33       -0.2559
    674  C2        -6.3750  -33.6780   -1.2570 C.ar   33  DT33        0.3545
    675  O2        -7.1620  -33.8670   -2.1680 O.2    33  DT33       -0.2443
    676  N3        -6.7910  -33.3150    0.0010 N.ar   33  DT33       -0.1533
    677  C4        -5.9950  -33.0750    1.1010 C.ar   33  DT33        0.2804
    678  O4        -6.5160  -32.7570    2.1670 O.2    33  DT33       -0.2654
    679  C5        -4.5870  -33.2310    0.8670 C.ar   33  DT33        0.0534
    680  C6        -4.1550  -33.5830   -0.3460 C.ar   33  DT33        0.0824
    681  C7        -3.6370  -32.9910    2.0030 C.3    33  DT33        0.0377
    682  P         -2.2410  -30.2220   -4.2300 P.3    34  DA34        0.2141
    683  OP1       -1.1230  -29.6540   -5.0410 O.2    34  DA34       -0.5172
    684  OP2       -2.3060  -30.0220   -2.7620 O.3    34  DA34       -0.4373
    685  O5'       -3.7330  -30.1550   -4.7910 O.3    34  DA34       -0.3114
    686  C5'       -4.1280  -30.7240   -6.0180 C.3    34  DA34        0.1811
    687  C4'       -5.5780  -30.4110   -6.2270 C.3    34  DA34        0.1746
    688  O4'       -6.3550  -31.2330   -5.3150 O.3    34  DA34       -0.3327
    689  C3'       -5.9810  -28.9660   -5.9190 C.3    34  DA34        0.1558
    690  O3'       -5.7290  -28.0970   -7.0630 O.3    34  DA34       -0.3138
    691  C2'       -7.4580  -29.1530   -5.5850 C.3    34  DA34        0.0865
    692  C1'       -7.4460  -30.4890   -4.8230 C.3    34  DA34        0.2094
    693  N9        -7.3310  -30.2840   -3.3520 N.ar   34  DA34       -0.2714
    694  C8        -6.2050  -30.3260   -2.5710 C.ar   34  DA34        0.1815
    695  N7        -6.4360  -30.1040   -1.2990 N.ar   34  DA34       -0.2193
    696  C5        -7.8060  -29.9010   -1.2400 C.ar   34  DA34        0.1518
    697  C6        -8.6750  -29.6200   -0.1720 C.ar   34  DA34        0.1919
    698  N6        -8.2730  -29.4900    1.0940 N.pl3  34  DA34       -0.1054
    699  N1        -9.9880  -29.4750   -0.4540 N.ar   34  DA34       -0.2040
    700  C2       -10.3900  -29.6070   -1.7240 C.ar   34  DA34        0.2016
    701  N3        -9.6690  -29.8710   -2.8110 N.ar   34  DA34       -0.2048
    702  C4        -8.3700  -30.0080   -2.4970 C.ar   34  DA34        0.1691
    703  P         -5.4500  -26.4790   -6.8510 P.3    35  DT35        0.2141
    704  OP1       -5.2180  -25.8630   -8.1790 O.2    35  DT35       -0.5172
    705  OP2       -4.3360  -26.5450   -5.8680 O.3    35  DT35       -0.4373
    706  O5'       -6.6630  -25.7650   -6.0970 O.3    35  DT35       -0.3114
    707  C5'       -7.8740  -25.4720   -6.7830 C.3    35  DT35        0.1811
    708  C4'       -8.9820  -25.1660   -5.8020 C.3    35  DT35        0.1746
    709  O4'       -9.0440  -26.2300   -4.8280 O.3    35  DT35       -0.3327
    710  C3'       -8.9100  -23.9040   -4.9550 C.3    35  DT35        0.1558
    711  O3'       -9.4200  -22.7550   -5.6220 O.3    35  DT35       -0.3138
    712  C2'       -9.8410  -24.2380   -3.8060 C.3    35  DT35        0.0866
    713  C1'       -9.5960  -25.7330   -3.6270 C.3    35  DT35        0.2106
    714  N1        -8.6300  -26.0420   -2.5420 N.ar   35  DT35       -0.2559
    715  C2        -9.1130  -26.0550   -1.2470 C.ar   35  DT35        0.3545
    716  O2       -10.2770  -25.8260   -0.9700 O.2    35  DT35       -0.2443
    717  N3        -8.1800  -26.3470   -0.2820 N.ar   35  DT35       -0.1533
    718  C4        -6.8420  -26.6210   -0.4760 C.ar   35  DT35        0.2804
    719  O4        -6.1280  -26.8660    0.4920 O.2    35  DT35       -0.2654
    720  C5        -6.4170  -26.5870   -1.8470 C.ar   35  DT35        0.0534
    721  C6        -7.3030  -26.3060   -2.8060 C.ar   35  DT35        0.0824
    722  C7        -4.9780  -26.8710   -2.1620 C.3    35  DT35        0.0377
    723  P         -9.1290  -21.2080   -5.0590 P.3    36  DT36        0.2141
    724  OP1       -9.2950  -20.0120   -5.9210 O.2    36  DT36       -0.5172
    725  OP2       -7.7910  -21.8230   -4.8920 O.3    36  DT36       -0.4373
    726  O5'       -9.6840  -20.8430   -3.6130 O.3    36  DT36       -0.3114
    727  C5'      -11.0410  -20.4290   -3.4410 C.3    36  DT36        0.1811
    728  C4'      -11.5060  -20.6810   -2.0210 C.3    36  DT36        0.1746
    729  O4'      -11.1280  -22.0190   -1.6040 O.3    36  DT36       -0.3327
    730  C3'      -10.9710  -19.7850   -0.9140 C.3    36  DT36        0.1558
    731  O3'      -11.7120  -18.5820   -0.8130 O.3    36  DT36       -0.3138
    732  C2'      -11.2240  -20.6260    0.3240 C.3    36  DT36        0.0866
    733  C1'      -10.9940  -22.0450   -0.1960 C.3    36  DT36        0.2106
    734  N1        -9.6200  -22.4590    0.1390 N.ar   36  DT36       -0.2559
    735  C2        -9.3490  -22.8950    1.4220 C.ar   36  DT36        0.3545
    736  O2       -10.1770  -22.8850    2.3160 O.2    36  DT36       -0.2443
    737  N3        -8.0660  -23.3440    1.6240 N.ar   36  DT36       -0.1533
    738  C4        -7.0510  -23.4000    0.6930 C.ar   36  DT36        0.2804
    739  O4        -5.9490  -23.8310    1.0240 O.2    36  DT36       -0.2654
    740  C5        -7.4100  -22.9290   -0.6150 C.ar   36  DT36        0.0534
    741  C6        -8.6510  -22.4870   -0.8390 C.ar   36  DT36        0.0824
    742  C7        -6.3730  -22.9490   -1.6980 C.3    36  DT36        0.0377
    743  P        -11.1340  -17.3180    0.1010 P.3    37  DT37        0.2141
    744  OP1      -12.1460  -16.3050   -0.2860 O.3    37  DT37       -0.4373
    745  OP2       -9.7510  -17.2150   -0.4340 O.2    37  DT37       -0.5172
    746  O5'      -11.0190  -17.3420    1.6960 O.3    37  DT37       -0.3114
    747  C5'      -12.1700  -17.1250    2.5140 C.3    37  DT37        0.1811
    748  C4'      -11.9600  -17.6900    3.9010 C.3    37  DT37        0.1746
    749  O4'      -11.4720  -19.0500    3.7680 O.3    37  DT37       -0.3327
    750  C3'      -10.9440  -16.9930    4.7940 C.3    37  DT37        0.1558
    751  O3'      -11.5550  -15.9590    5.5700 O.3    37  DT37       -0.3138
    752  C2'      -10.4640  -18.1140    5.7120 C.3    37  DT37        0.0866
    753  C1'      -10.5710  -19.3410    4.8160 C.3    37  DT37        0.2106
    754  N1        -9.3860  -19.7740    4.1550 N.ar   37  DT37       -0.2559
    755  C2        -8.5300  -20.6000    4.8580 C.ar   37  DT37        0.3545
    756  O2        -8.8020  -21.0620    5.9520 O.2    37  DT37       -0.2443
    757  N3        -7.3360  -20.8670    4.2320 N.ar   37  DT37       -0.1533
    758  C4        -6.9220  -20.4010    3.0020 C.ar   37  DT37        0.2804
    759  O4        -5.8190  -20.7290    2.5710 O.2    37  DT37       -0.2654
    760  C5        -7.8660  -19.5490    2.3350 C.ar   37  DT37        0.0534
    761  C6        -9.0340  -19.2730    2.9210 C.ar   37  DT37        0.0824
    762  C7        -7.5080  -18.9910    0.9900 C.3    37  DT37        0.0377
    763  P        -10.6140  -14.9920    6.5250 P.3    38  DT38        0.2141
    764  OP1      -11.6130  -14.1290    7.1880 O.3    38  DT38       -0.4373
    765  OP2       -9.5660  -14.3990    5.6600 O.2    38  DT38       -0.5172
    766  O5'       -9.9060  -15.8910    7.6440 O.3    38  DT38       -0.3114
    767  C5'      -10.6820  -16.5660    8.6240 C.3    38  DT38        0.1811
    768  C4'       -9.8480  -17.6020    9.3610 C.3    38  DT38        0.1746
    769  O4'       -9.3860  -18.6160    8.4330 O.3    38  DT38       -0.3327
    770  C3'       -8.5540  -17.1000    9.9860 C.3    38  DT38        0.1558
    771  O3'       -8.7900  -16.4360   11.2120 O.3    38  DT38       -0.3138
    772  C2'       -7.8270  -18.4230   10.1950 C.3    38  DT38        0.0866
    773  C1'       -8.1270  -19.1030    8.8650 C.3    38  DT38        0.2106
    774  N1        -7.0980  -18.8300    7.8510 N.ar   38  DT38       -0.2559
    775  C2        -5.8920  -19.5030    7.9030 C.ar   38  DT38        0.3545
    776  O2        -5.6050  -20.2830    8.7930 O.2    38  DT38       -0.2443
    777  N3        -5.0280  -19.2270    6.8710 N.ar   38  DT38       -0.1533
    778  C4        -5.2440  -18.3650    5.8160 C.ar   38  DT38        0.2804
    779  O4        -4.3710  -18.2220    4.9630 O.2    38  DT38       -0.2654
    780  C5        -6.5190  -17.7040    5.8330 C.ar   38  DT38        0.0534
    781  C6        -7.3780  -17.9540    6.8250 C.ar   38  DT38        0.0824
    782  C7        -6.8490  -16.7460    4.7270 C.3    38  DT38        0.0377
    783  P         -7.9760  -15.1760   11.5070 P.3    39  DT39        0.2141
    784  OP1       -8.4330  -14.4350   12.7140 O.3    39  DT39       -0.4373
    785  OP2       -7.6150  -14.4190   10.2870 O.2    39  DT39       -0.5172
    786  O5'       -6.7340  -16.1110   11.8830 O.3    39  DT39       -0.3114
    787  C5'       -6.7450  -16.8750   13.0900 C.3    39  DT39        0.1811
    788  C4'       -5.5370  -17.7820   13.1840 C.3    39  DT39        0.1746
    789  O4'       -5.5150  -18.6650   12.0310 O.3    39  DT39       -0.3327
    790  C3'       -4.1720  -17.1060   13.1440 C.3    39  DT39        0.1558
    791  O3'       -3.7350  -16.6680   14.4200 O.3    39  DT39       -0.3138
    792  C2'       -3.2660  -18.2270   12.6720 C.3    39  DT39        0.0866
    793  C1'       -4.1690  -18.9440   11.6710 C.3    39  DT39        0.2106
    794  N1        -3.9610  -18.5540   10.2950 N.ar   39  DT39       -0.2559
    795  C2        -2.8630  -19.1130    9.6670 C.ar   39  DT39        0.3545
    796  O2        -2.1560  -19.9560   10.1910 O.2    39  DT39       -0.2443
    797  N3        -2.6200  -18.6460    8.3980 N.ar   39  DT39       -0.1533
    798  C4        -3.3470  -17.6990    7.7090 C.ar   39  DT39        0.2804
    799  O4        -3.0050  -17.3820    6.5720 O.2    39  DT39       -0.2654
    800  C5        -4.4700  -17.1660    8.4280 C.ar   39  DT39        0.0534
    801  C6        -4.7300  -17.6020    9.6630 C.ar   39  DT39        0.0824
    802  C7        -5.3240  -16.1280    7.7630 C.3    39  DT39        0.0377
    803  P         -2.9520  -15.5210   14.5540 P.3    40  DG40        0.2141
    804  OP1       -2.7760  -15.1510   15.9750 O.3    40  DG40       -0.4373
    805  OP2       -3.5630  -14.5370   13.6300 O.2    40  DG40       -0.5172
    806  O5'       -1.5420  -15.9130   13.8860 O.3    40  DG40       -0.3114
    807  C5'       -0.5720  -16.6620   14.6110 C.3    40  DG40        0.1811
    808  C4'        0.7250  -16.8670   13.8560 C.3    40  DG40        0.1746
    809  O4'        0.4760  -17.5220   12.5880 O.3    40  DG40       -0.3327
    810  C3'        1.5330  -15.6210   13.5160 C.3    40  DG40        0.1558
    811  O3'        2.4030  -15.2640   14.5800 O.3    40  DG40       -0.3138
    812  C2'        2.2920  -16.0120   12.2500 C.3    40  DG40        0.0865
    813  C1'        1.4140  -17.0980   11.6230 C.3    40  DG40        0.2094
    814  N9         0.5860  -16.7000   10.5500 N.ar   40  DG40       -0.2713
    815  C8        -0.4950  -15.8530   10.5560 C.ar   40  DG40        0.1816
    816  N7        -0.6960  -15.2650    9.4080 N.ar   40  DG40       -0.2173
    817  C5         0.3090  -15.7530    8.5930 C.ar   40  DG40        0.1748
    818  C6         0.6090  -15.4800    7.2330 C.ar   40  DG40        0.3023
    819  O6         0.0170  -14.7210    6.4560 O.2    40  DG40       -0.2633
    820  N1         1.7210  -16.1910    6.7930 N.ar   40  DG40       -0.1709
    821  C2         2.4540  -17.0590    7.5660 C.ar   40  DG40        0.2606
    822  N2         3.4930  -17.6540    6.9640 N.pl3  40  DG40       -0.0859
    823  N3         2.1880  -17.3230    8.8300 N.ar   40  DG40       -0.1918
    824  C4         1.1120  -16.6420    9.2800 C.ar   40  DG40        0.1722
    825  P          2.8690  -13.6550   14.9620 P.3    41  DA41        0.2141
    826  OP1        3.4790  -13.3750   16.2810 O.3    41  DA41       -0.4373
    827  OP2        1.7100  -12.8630   14.5010 O.2    41  DA41       -0.5172
    828  O5'        4.0070  -13.5590   13.8420 O.3    41  DA41       -0.3114
    829  C5'        5.3000  -14.1020   14.1000 C.3    41  DA41        0.1811
    830  C4'        6.0990  -14.2200   12.8170 C.3    41  DA41        0.1746
    831  O4'        5.3510  -15.0020   11.8520 O.3    41  DA41       -0.3327
    832  C3'        6.3580  -12.9220   12.0740 C.3    41  DA41        0.1558
    833  O3'        7.4270  -12.2080   12.6510 O.3    41  DA41       -0.3138
    834  C2'        6.7270  -13.4800   10.7080 C.3    41  DA41        0.0865
    835  C1'        5.6270  -14.5270   10.5470 C.3    41  DA41        0.2094
    836  N9         4.4270  -13.9280    9.9450 N.ar   41  DA41       -0.2714
    837  C8         3.2670  -13.6410   10.6170 C.ar   41  DA41        0.1815
    838  N7         2.2670  -13.3170    9.8320 N.ar   41  DA41       -0.2193
    839  C5         2.8070  -13.3950    8.5580 C.ar   41  DA41        0.1518
    840  C6         2.2590  -13.1700    7.2830 C.ar   41  DA41        0.1919
    841  N6         0.9920  -12.8060    7.0760 N.pl3  41  DA41       -0.1054
    842  N1         3.0690  -13.3350    6.2150 N.ar   41  DA41       -0.2040
    843  C2         4.3390  -13.7010    6.4230 C.ar   41  DA41        0.2016
    844  N3         4.9680  -13.9420    7.5710 N.ar   41  DA41       -0.2048
    845  C4         4.1360  -13.7690    8.6120 C.ar   41  DA41        0.1691
    846  P          7.2970  -10.5390   12.9080 P.3    42  DT42        0.2141
    847  OP1        8.3350  -10.0190   13.8320 O.3    42  DT42       -0.4373
    848  OP2        5.8790  -10.1550   13.1080 O.2    42  DT42       -0.5172
    849  O5'        7.7140  -10.1260   11.4280 O.3    42  DT42       -0.3114
    850  C5'        8.8950  -10.6780   10.8250 C.3    42  DT42        0.1811
    851  C4'        8.8090  -10.5950    9.3200 C.3    42  DT42        0.1746
    852  O4'        7.5620  -11.1910    8.8670 O.3    42  DT42       -0.3327
    853  C3'        8.7550   -9.2070    8.7050 C.3    42  DT42        0.1558
    854  O3'       10.0500   -8.6120    8.6580 O.3    42  DT42       -0.3138
    855  C2'        8.2110   -9.5160    7.3150 C.3    42  DT42        0.0866
    856  C1'        7.1840  -10.6020    7.6310 C.3    42  DT42        0.2106
    857  N1         5.7670  -10.1000    7.8140 N.ar   42  DT42       -0.2559
    858  C2         4.9530  -10.0780    6.6980 C.ar   42  DT42        0.3545
    859  O2         5.3330  -10.4170    5.5910 O.2    42  DT42       -0.2443
    860  N3         3.6700   -9.6420    6.9240 N.ar   42  DT42       -0.1533
    861  C4         3.1320   -9.2350    8.1260 C.ar   42  DT42        0.2804
    862  O4         1.9590   -8.8690    8.1720 O.2    42  DT42       -0.2654
    863  C5         4.0400   -9.2850    9.2370 C.ar   42  DT42        0.0534
    864  C6         5.2930   -9.7060    9.0460 C.ar   42  DT42        0.0824
    865  C7         3.5490   -8.8610   10.5890 C.3    42  DT42        0.0377
    866  P         10.2550   -6.9840    8.0990 P.3    43  DA43        0.2141
    867  OP1       11.4550   -6.4060    8.7450 O.3    43  DA43       -0.4373
    868  OP2        8.9640   -6.2570    8.1190 O.2    43  DA43       -0.5172
    869  O5'       10.6290   -7.3380    6.5880 O.3    43  DA43       -0.3114
    870  C5'       10.4350   -6.3820    5.5700 C.3    43  DA43        0.1811
    871  C4'       10.2610   -7.0680    4.2310 C.3    43  DA43        0.1746
    872  O4'        9.4080   -8.2340    4.3650 O.3    43  DA43       -0.3327
    873  C3'        9.5630   -6.1930    3.2090 C.3    43  DA43        0.1558
    874  O3'       10.5290   -5.4640    2.5080 O.3    43  DA43       -0.3138
    875  C2'        8.9090   -7.2180    2.3020 C.3    43  DA43        0.0865
    876  C1'        8.4460   -8.2420    3.3260 C.3    43  DA43        0.2094
    877  N9         7.2160   -7.8220    3.8870 N.ar   43  DA43       -0.2714
    878  C8         7.0860   -7.6870    5.2450 C.ar   43  DA43        0.1815
    879  N7         5.8850   -7.3220    5.6280 N.ar   43  DA43       -0.2193
    880  C5         5.1790   -7.2090    4.4410 C.ar   43  DA43        0.1518
    881  C6         3.8460   -6.8550    4.1640 C.ar   43  DA43        0.1919
    882  N6         2.9540   -6.5380    5.1050 N.pl3  43  DA43       -0.1054
    883  N1         3.4590   -6.8380    2.8700 N.ar   43  DA43       -0.2040
    884  C2         4.3540   -7.1570    1.9280 C.ar   43  DA43        0.2016
    885  N3         5.6310   -7.5060    2.0650 N.ar   43  DA43       -0.2048
    886  C4         5.9850   -7.5120    3.3610 C.ar   43  DA43        0.1691
    887  P         10.4790   -3.9950    2.6950 P.3    44  DC44        0.2141
    888  OP1       11.7640   -3.2830    2.5490 O.2    44  DC44       -0.5172
    889  OP2        9.5650   -3.6690    3.8120 O.3    44  DC44       -0.4373
    890  O5'        9.5800   -3.7480    1.4030 O.3    44  DC44       -0.3114
    891  C5'        9.8910   -4.3870    0.1790 C.3    44  DC44        0.1811
    892  C4'        8.6660   -4.4160   -0.6930 C.3    44  DC44        0.1746
    893  O4'        7.7090   -5.3480   -0.1310 O.3    44  DC44       -0.3327
    894  C3'        7.9110   -3.0960   -0.7640 C.3    44  DC44        0.1558
    895  O3'        8.4520   -2.2130   -1.7310 O.3    44  DC44       -0.3138
    896  C2'        6.4770   -3.5170   -1.0470 C.3    44  DC44        0.0866
    897  C1'        6.3990   -4.8850   -0.3650 C.3    44  DC44        0.2106
    898  N1         5.6880   -4.8920    0.8970 N.ar   44  DC44       -0.2556
    899  C2         4.3060   -5.1130    0.8900 C.ar   44  DC44        0.3531
    900  O2         3.7480   -5.3800   -0.1880 O.2    44  DC44       -0.2443
    901  N3         3.6180   -5.0290    2.0540 N.ar   44  DC44       -0.1739
    902  C4         4.2580   -4.7390    3.1870 C.ar   44  DC44        0.1759
    903  N4         3.5400   -4.6670    4.3100 N.pl3  44  DC44       -0.1070
    904  C5         5.6580   -4.5110    3.2150 C.ar   44  DC44        0.0566
    905  C6         6.3330   -4.5950    2.0640 C.ar   44  DC44        0.0849
    906  P          8.4720   -0.5100   -1.4530 P.3    45  DC45        0.2141
    907  OP1        9.5070    0.1520   -2.2710 O.2    45  DC45       -0.5172
    908  OP2        8.2870   -0.1290   -0.0330 O.3    45  DC45       -0.4373
    909  O5'        7.0460   -0.3890   -2.1840 O.3    45  DC45       -0.3114
    910  C5'        6.8800   -0.8600   -3.5110 C.3    45  DC45        0.1811
    911  C4'        5.4860   -1.4220   -3.7050 C.3    45  DC45        0.1746
    912  O4'        5.2540   -2.5070   -2.7800 O.3    45  DC45       -0.3327
    913  C3'        4.3550   -0.4720   -3.3820 C.3    45  DC45        0.1558
    914  O3'        4.1610    0.3860   -4.4800 O.3    45  DC45       -0.3138
    915  C2'        3.2040   -1.4550   -3.2850 C.3    45  DC45        0.0866
    916  C1'        3.8610   -2.6140   -2.5430 C.3    45  DC45        0.2106
    917  N1         3.5700   -2.4870   -1.1210 N.ar   45  DC45       -0.2556
    918  C2         2.2890   -2.5610   -0.5610 C.ar   45  DC45        0.3531
    919  O2         1.3090   -2.6420   -1.3210 O.2    45  DC45       -0.2443
    920  N3         2.1560   -2.5420    0.7860 N.ar   45  DC45       -0.1739
    921  C4         3.2370   -2.4540    1.5630 C.ar   45  DC45        0.1759
    922  N4         3.0560   -2.4390    2.8850 N.pl3  45  DC45       -0.1070
    923  C5         4.5430   -2.3780    1.0160 C.ar   45  DC45        0.0566
    924  C6         4.6710   -2.3970   -0.3160 C.ar   45  DC45        0.0849
    925  P          4.4280    1.9380   -4.3420 P.3    46  DC46        0.2141
    926  OP1        5.0840    2.7770   -5.3670 O.2    46  DC46       -0.5172
    927  OP2        5.2220    1.4050   -3.2130 O.3    46  DC46       -0.4373
    928  O5'        3.1600    2.7130   -3.7350 O.3    46  DC46       -0.3114
    929  C5'        2.0790    3.1290   -4.5710 C.3    46  DC46        0.1811
    930  C4'        0.7120    2.8600   -3.9550 C.3    46  DC46        0.1746
    931  O4'        0.7160    1.6240   -3.1960 O.3    46  DC46       -0.3327
    932  C3'        0.2070    3.8900   -2.9560 C.3    46  DC46        0.1558
    933  O3'       -0.3200    5.0170   -3.6380 O.3    46  DC46       -0.3138
    934  C2'       -0.8890    3.0830   -2.2680 C.3    46  DC46        0.0866
    935  C1'       -0.1890    1.7430   -2.1090 C.3    46  DC46        0.2106
    936  N1         0.4340    1.6130   -0.7860 N.ar   46  DC46       -0.2556
    937  C2        -0.3220    1.4900    0.3860 C.ar   46  DC46        0.3531
    938  O2        -1.5580    1.6000    0.3140 O.2    46  DC46       -0.2443
    939  N3         0.3130    1.2560    1.5590 N.ar   46  DC46       -0.1739
    940  C4         1.6420    1.1470    1.5880 C.ar   46  DC46        0.1759
    941  N4         2.2240    0.9160    2.7670 N.pl3  46  DC46       -0.1070
    942  C5         2.4260    1.2680    0.4120 C.ar   46  DC46        0.0566
    943  C6         1.7950    1.4990   -0.7440 C.ar   46  DC46        0.0849
    944  P         -0.1610    6.5270   -2.9850 P.3    47  DC47        0.2141
    945  OP1       -0.5410    7.4930   -4.0440 O.2    47  DC47       -0.5172
    946  OP2        1.0400    6.7800   -2.1570 O.3    47  DC47       -0.4373
    947  O5'       -1.3310    6.3860   -1.9090 O.3    47  DC47       -0.3114
    948  C5'       -2.7040    6.3940   -2.2680 C.3    47  DC47        0.1811
    949  C4'       -3.5560    6.0980   -1.0480 C.3    47  DC47        0.1746
    950  O4'       -2.8530    5.1250   -0.2300 O.3    47  DC47       -0.3327
    951  C3'       -3.8250    7.2420   -0.0740 C.3    47  DC47        0.1558
    952  O3'       -4.9700    7.9730   -0.5020 O.3    47  DC47       -0.3138
    953  C2'       -4.1690    6.4900    1.2090 C.3    47  DC47        0.0866
    954  C1'       -3.2430    5.2740    1.1220 C.3    47  DC47        0.2106
    955  N1        -1.9690    5.3370    1.9180 N.ar   47  DC47       -0.2556
    956  C2        -2.1420    5.2660    3.3050 C.ar   47  DC47        0.3531
    957  O2        -3.2890    5.1120    3.7570 O.2    47  DC47       -0.2443
    958  N3        -1.0580    5.3680    4.1110 N.ar   47  DC47       -0.1739
    959  C4         0.1550    5.5330    3.5800 C.ar   47  DC47        0.1759
    960  N4         1.1930    5.6280    4.4140 N.pl3  47  DC47       -0.1070
    961  C5         0.3510    5.6070    2.1770 C.ar   47  DC47        0.0566
    962  C6        -0.7220    5.5060    1.3850 C.ar   47  DC47        0.0849
    963  P         -5.0170    9.4680   -0.3850 P.3    48  DT48        0.2141
    964  OP1       -6.2680   10.0600   -0.9250 O.2    48  DT48       -0.5172
    965  OP2       -3.7090   10.0840   -0.7350 O.3    48  DT48       -0.4373
    966  O5'       -5.1240    9.3870    1.2070 O.3    48  DT48       -0.3114
    967  C5'       -6.3610    9.1030    1.8570 C.3    48  DT48        0.1811
    968  C4'       -6.1620    8.9150    3.3550 C.3    48  DT48        0.1746
    969  O4'       -4.9750    8.1090    3.5710 O.3    48  DT48       -0.3327
    970  C3'       -5.9420   10.1360    4.2500 C.3    48  DT48        0.1558
    971  O3'       -7.1660   10.7730    4.6150 O.3    48  DT48       -0.3138
    972  C2'       -5.2500    9.5140    5.4600 C.3    48  DT48        0.0866
    973  C1'       -4.3630    8.4570    4.8040 C.3    48  DT48        0.2106
    974  N1        -3.0220    8.8640    4.6080 N.ar   48  DT48       -0.2559
    975  C2        -2.1640    8.9740    5.6860 C.ar   48  DT48        0.3545
    976  O2        -2.5180    8.7950    6.8370 O.2    48  DT48       -0.2443
    977  N3        -0.8690    9.3030    5.3660 N.ar   48  DT48       -0.1533
    978  C4        -0.3570    9.5290    4.1050 C.ar   48  DT48        0.2804
    979  O4         0.8300    9.8170    3.9770 O.2    48  DT48       -0.2654
    980  C5        -1.3100    9.3970    3.0390 C.ar   48  DT48        0.0534
    981  C6        -2.5760    9.0780    3.3220 C.ar   48  DT48        0.0824
    982  C7        -0.8500    9.6240    1.6290 C.3    48  DT48        0.0377
    983  P         -7.1870   12.4850    4.7050 P.3    49  DT49        0.2141
    984  OP1       -8.5540   13.0430    4.8500 O.3    49  DT49       -0.4373
    985  OP2       -6.5830   12.2740    3.3620 O.2    49  DT49       -0.5172
    986  O5'       -6.1830   13.3490    5.6010 O.3    49  DT49       -0.3114
    987  C5'       -6.3850   13.3440    7.0140 C.3    49  DT49        0.1811
    988  C4'       -5.1140   13.6710    7.7700 C.3    49  DT49        0.1746
    989  O4'       -4.0420   12.7620    7.4270 O.3    49  DT49       -0.3327
    990  C3'       -4.5000   15.0100    7.4260 C.3    49  DT49        0.1558
    991  O3'       -5.2660   16.0570    7.9460 O.3    49  DT49       -0.3138
    992  C2'       -3.1630   14.8430    8.1250 C.3    49  DT49        0.0866
    993  C1'       -2.8140   13.4250    7.6760 C.3    49  DT49        0.2106
    994  N1        -1.9490   13.4190    6.4750 N.ar   49  DT49       -0.2559
    995  C2        -0.5930   13.6720    6.5640 C.ar   49  DT49        0.3545
    996  O2        -0.0480   14.0100    7.6000 O.2    49  DT49       -0.2443
    997  N3         0.1060   13.5150    5.3920 N.ar   49  DT49       -0.1533
    998  C4        -0.4040   13.1390    4.1660 C.ar   49  DT49        0.2804
    999  O4         0.3510   13.0390    3.2020 O.2    49  DT49       -0.2654
   1000  C5        -1.8190   12.8950    4.1550 C.ar   49  DT49        0.0534
   1001  C6        -2.5230   13.0410    5.2800 C.ar   49  DT49        0.0824
   1002  C7        -2.4690   12.4810    2.8680 C.3    49  DT49        0.0377
   1003  P         -5.2380   17.1750    7.1420 P.3    50  DT50        0.2141
   1004  OP1       -5.9690   18.4330    7.4210 O.3    50  DT50       -0.4373
   1005  OP2       -5.0350   16.7380    5.7430 O.2    50  DT50       -0.5172
   1006  O5'       -3.7520   17.2570    7.7380 O.3    50  DT50       -0.3114
   1007  C5'       -3.5430   17.3760    9.1380 C.3    50  DT50        0.1811
   1008  C4'       -2.2380   18.0680    9.4560 C.3    50  DT50        0.1746
   1009  O4'       -1.1310   17.2360    9.0260 O.3    50  DT50       -0.3327
   1010  C3'       -1.9880   19.4120    8.7770 C.3    50  DT50        0.1558
   1011  O3'       -2.6150   20.5020    9.4300 O.3    50  DT50       -0.3138
   1012  C2'       -0.4680   19.5130    8.7850 C.3    50  DT50        0.0866
   1013  C1'       -0.0690   18.0510    8.5660 C.3    50  DT50        0.2106
   1014  N1         0.1400   17.7610    7.1090 N.ar   50  DT50       -0.2559
   1015  C2         1.3570   18.1760    6.6000 C.ar   50  DT50        0.3545
   1016  O2         2.2260   18.6820    7.2880 O.2    50  DT50       -0.2443
   1017  N3         1.5200   17.9790    5.2510 N.ar   50  DT50       -0.1533
   1018  C4         0.6110   17.4200    4.3770 C.ar   50  DT50        0.2804
   1019  O4         0.9030   17.3080    3.1890 O.2    50  DT50       -0.2654
   1020  C5        -0.6280   17.0150    4.9810 C.ar   50  DT50        0.0534
   1021  C6        -0.8140   17.1950    6.2910 C.ar   50  DT50        0.0824
   1022  C7        -1.6830   16.3960    4.1130 C.3    50  DT50        0.0377
   1023  P         -3.1130   22.1650    8.5670 P.3    51  DG51        0.2141
   1024  OP1       -3.6890   23.2920    9.3360 O.3    51  DG51       -0.4373
   1025  OP2       -3.7700   21.7260    7.3170 O.2    51  DG51       -0.5172
   1026  O5'       -1.6080   22.5220    8.1990 O.3    51  DG51       -0.3114
   1027  C5'       -0.7500   23.1760    9.1490 C.3    51  DG51        0.1811
   1028  C4'        0.5000   23.6460    8.4570 C.3    51  DG51        0.1746
   1029  O4'        1.2940   22.4960    8.0610 O.3    51  DG51       -0.3327
   1030  C3'        0.2530   24.3880    7.1540 C.3    51  DG51        0.1558
   1031  O3'       -0.0890   25.7540    7.3700 O.3    51  DG51       -0.3138
   1032  C2'        1.5770   24.1940    6.4280 C.3    51  DG51        0.0865
   1033  C1'        1.9090   22.7500    6.8080 C.3    51  DG51        0.2094
   1034  N9         1.3960   21.7660    5.8740 N.ar   51  DG51       -0.2713
   1035  C8         0.1600   21.1650    5.8590 C.ar   51  DG51        0.1816
   1036  N7        -0.0780   20.5030    4.7600 N.ar   51  DG51       -0.2173
   1037  C5         1.0670   20.6720    4.0030 C.ar   51  DG51        0.1748
   1038  C6         1.3990   20.1880    2.7110 C.ar   51  DG51        0.3023
   1039  O6         0.7140   19.4850    1.9570 O.2    51  DG51       -0.2633
   1040  N1         2.6680   20.5970    2.3130 N.ar   51  DG51       -0.1709
   1041  C2         3.5140   21.3760    3.0660 C.ar   51  DG51        0.2606
   1042  N2         4.6990   21.6670    2.5130 N.pl3  51  DG51       -0.0859
   1043  N3         3.2190   21.8340    4.2670 N.ar   51  DG51       -0.1918
   1044  C4         1.9900   21.4500    4.6740 C.ar   51  DG51        0.1722
   1045  P         -1.1030   26.5960    6.2260 P.3    52  DG52        0.2141
   1046  OP1       -1.1700   27.9340    6.8380 O.3    52  DG52       -0.4373
   1047  OP2       -2.3400   25.9980    5.6480 O.2    52  DG52       -0.5172
   1048  O5'        0.0070   26.6420    5.0670 O.3    52  DG52       -0.3114
   1049  C5'        1.1990   27.4320    5.2310 C.3    52  DG52        0.1811
   1050  C4'        2.2100   27.2260    4.1080 C.3    52  DG52        0.1746
   1051  O4'        2.7070   25.8580    4.1530 O.3    52  DG52       -0.3327
   1052  C3'        1.7020   27.3960    2.6690 C.3    52  DG52        0.1558
   1053  O3'        1.6610   28.7660    2.1970 O.3    52  DG52       -0.3138
   1054  C2'        2.7620   26.5710    1.9330 C.3    52  DG52        0.0865
   1055  C1'        2.8250   25.3370    2.8310 C.3    52  DG52        0.2093
   1056  N9         1.7800   24.2490    2.4760 N.ar   52  DG52       -0.2728
   1057  C8         0.6570   23.7690    3.1040 C.ar   52  DG52        0.1814
   1058  N7         0.0310   22.8540    2.4150 N.ar   52  DG52       -0.2177
   1059  C5         0.7840   22.7180    1.2640 C.ar   52  DG52        0.1711
   1060  C6         0.6030   21.8750    0.1360 C.2    52  DG52        0.2985
   1061  O6        -0.2980   21.0520   -0.0670 O.2    52  DG52       -0.2655
   1062  N1         1.6030   22.0560   -0.8150 N.am   52  DG52       -0.1068
   1063  C2         2.6490   22.9390   -0.6950 C.1    52  DG52        0.1086
   1064  N2         3.5150   22.9710   -1.7160 N.2    52  DG52       -0.1541
   1065  N3         2.8300   23.7290    0.3460 N.pl3  52  DG52       -0.1285
   1066  C4         1.8710   23.5710    1.2820 C.ar   52  DG52        0.1687
   1067  P          0.4540   29.5120    1.3380 P.3    53  DG53        0.2141
   1068  OP1        0.7830   30.9500    1.1720 O.2    53  DG53       -0.5172
   1069  OP2       -0.8420   29.1160    1.9550 O.3    53  DG53       -0.4373
   1070  O5'        0.5820   28.7610   -0.0670 O.3    53  DG53       -0.3114
   1071  C5'        1.6210   29.1050   -0.9840 C.3    53  DG53        0.1811
   1072  C4'        1.5040   28.3160   -2.2710 C.3    53  DG53        0.1746
   1073  O4'        1.6960   26.9070   -1.9980 O.3    53  DG53       -0.3327
   1074  C3'        0.2090   28.3900   -3.0660 C.3    53  DG53        0.1558
   1075  O3'        0.1830   29.5130   -3.9450 O.3    53  DG53       -0.3138
   1076  C2'        0.2630   27.1130   -3.8900 C.3    53  DG53        0.0865
   1077  C1'        0.9660   26.1420   -2.9360 C.3    53  DG53        0.2094
   1078  N9         0.0620   25.3870   -2.2650 N.ar   53  DG53       -0.2713
   1079  C8        -0.5620   25.5930   -1.0590 C.ar   53  DG53        0.1816
   1080  N7        -1.5300   24.7480   -0.8290 N.ar   53  DG53       -0.2173
   1081  C5        -1.5480   23.9340   -1.9460 C.ar   53  DG53        0.1748
   1082  C6        -2.3820   22.8350   -2.2750 C.ar   53  DG53        0.3023
   1083  O6        -3.3060   22.3490   -1.6100 O.2    53  DG53       -0.2633
   1084  N1        -2.0610   22.2890   -3.5150 N.ar   53  DG53       -0.1709
   1085  C2        -1.0580   22.7460   -4.3360 C.ar   53  DG53        0.2606
   1086  N2        -0.8970   22.0900   -5.4930 N.pl3  53  DG53       -0.0859
   1087  N3        -0.2750   23.7660   -4.0450 N.ar   53  DG53       -0.1918
   1088  C4        -0.5700   24.3130   -2.8460 C.ar   53  DG53        0.1722
   1089  P         -1.2170   29.8500   -4.7970 P.3    54  DG54        0.2141
   1090  OP1       -0.9100   31.0530   -5.6060 O.2    54  DG54       -0.5172
   1091  OP2       -2.1930   29.9530   -3.6870 O.3    54  DG54       -0.4373
   1092  O5'       -1.7240   28.6670   -5.7570 O.3    54  DG54       -0.3114
   1093  C5'       -1.0710   28.4050   -7.0020 C.3    54  DG54        0.1811
   1094  C4'       -1.5980   27.1470   -7.6740 C.3    54  DG54        0.1746
   1095  O4'       -1.4520   26.0040   -6.7900 O.3    54  DG54       -0.3327
   1096  C3'       -3.0830   27.1240   -8.0060 C.3    54  DG54        0.1558
   1097  O3'       -3.4260   27.9030   -9.1500 O.3    54  DG54       -0.3138
   1098  C2'       -3.2870   25.6290   -8.2280 C.3    54  DG54        0.0865
   1099  C1'       -2.4970   25.0790   -7.0410 C.3    54  DG54        0.2094
   1100  N9        -3.3490   24.9200   -5.8630 N.ar   54  DG54       -0.2713
   1101  C8        -3.3580   25.7060   -4.7370 C.ar   54  DG54        0.1816
   1102  N7        -4.2220   25.3120   -3.8410 N.ar   54  DG54       -0.2173
   1103  C5        -4.8180   24.2000   -4.4050 C.ar   54  DG54        0.1748
   1104  C6        -5.8350   23.3450   -3.9070 C.ar   54  DG54        0.3023
   1105  O6        -6.4270   23.4100   -2.8220 O.2    54  DG54       -0.2633
   1106  N1        -6.1500   22.3310   -4.8070 N.ar   54  DG54       -0.1709
   1107  C2        -5.5590   22.1620   -6.0360 C.ar   54  DG54        0.2606
   1108  N2        -5.9950   21.1250   -6.7640 N.pl3  54  DG54       -0.0859
   1109  N3        -4.6140   22.9480   -6.5130 N.ar   54  DG54       -0.1918
   1110  C4        -4.2920   23.9410   -5.6560 C.ar   54  DG54        0.1722
   1111  P         -4.8640   28.5080   -9.2290 P.3    55  DA55        0.2141
   1112  OP1       -4.6550   29.3420  -10.4330 O.2    55  DA55       -0.5172
   1113  OP2       -5.2490   29.1500   -7.9510 O.3    55  DA55       -0.4373
   1114  O5'       -5.9430   27.3760   -9.5860 O.3    55  DA55       -0.3114
   1115  C5'       -5.9380   26.7590  -10.8690 C.3    55  DA55        0.1811
   1116  C4'       -6.7400   25.4680  -10.8770 C.3    55  DA55        0.1746
   1117  O4'       -6.3880   24.6610   -9.7220 O.3    55  DA55       -0.3327
   1118  C3'       -8.2500   25.6150  -10.7670 C.3    55  DA55        0.1558
   1119  O3'       -8.8320   25.9110  -12.0290 O.3    55  DA55       -0.3138
   1120  C2'       -8.6210   24.2100  -10.3120 C.3    55  DA55        0.0865
   1121  C1'       -7.5290   23.9470   -9.2780 C.3    55  DA55        0.2094
   1122  N9        -7.8940   24.4490   -7.9180 N.ar   55  DA55       -0.2714
   1123  C8        -7.4690   25.6140   -7.3350 C.ar   55  DA55        0.1815
   1124  N7        -7.8940   25.7740   -6.1040 N.ar   55  DA55       -0.2193
   1125  C5        -8.6510   24.6380   -5.8630 C.ar   55  DA55        0.1518
   1126  C6        -9.3740   24.2040   -4.7390 C.ar   55  DA55        0.1919
   1127  N6        -9.4540   24.8950   -3.5990 N.pl3  55  DA55       -0.1054
   1128  N1       -10.0200   23.0220   -4.8270 N.ar   55  DA55       -0.2040
   1129  C2        -9.9390   22.3300   -5.9690 C.ar   55  DA55        0.2016
   1130  N3        -9.2910   22.6330   -7.0920 N.ar   55  DA55       -0.2048
   1131  C4        -8.6610   23.8130   -6.9720 C.ar   55  DA55        0.1691
   1132  P        -10.1050   26.7960  -12.0460 P.3    56  DG56        0.2141
   1133  OP1      -10.5500   27.0720  -13.4300 O.2    56  DG56       -0.5172
   1134  OP2       -9.8570   27.9200  -11.1130 O.3    56  DG56       -0.4373
   1135  O5'      -11.1920   25.9020  -11.2770 O.3    56  DG56       -0.3114
   1136  C5'      -11.5730   24.6140  -11.7490 C.3    56  DG56        0.1811
   1137  C4'      -12.6370   23.9780  -10.8840 C.3    56  DG56        0.1746
   1138  O4'      -12.0600   23.4380   -9.6630 O.3    56  DG56       -0.3327
   1139  C3'      -13.7220   24.9090  -10.3720 C.3    56  DG56        0.1558
   1140  O3'      -14.6920   25.2380  -11.3470 O.3    56  DG56       -0.3138
   1141  C2'      -14.2730   24.1240   -9.1950 C.3    56  DG56        0.0865
   1142  C1'      -12.9790   23.5770   -8.5980 C.3    56  DG56        0.2094
   1143  N9       -12.5540   24.4320   -7.5010 N.ar   56  DG56       -0.2713
   1144  C8       -11.6670   25.4780   -7.5750 C.ar   56  DG56        0.1816
   1145  N7       -11.4810   26.0780   -6.4310 N.ar   56  DG56       -0.2173
   1146  C5       -12.2910   25.3890   -5.5470 C.ar   56  DG56        0.1748
   1147  C6       -12.5130   25.5780   -4.1590 C.ar   56  DG56        0.3023
   1148  O6       -12.0140   26.4290   -3.4120 O.2    56  DG56       -0.2633
   1149  N1       -13.4180   24.6530   -3.6450 N.ar   56  DG56       -0.1709
   1150  C2       -14.0330   23.6670   -4.3790 C.ar   56  DG56        0.2606
   1151  N2       -14.8740   22.8690   -3.7080 N.pl3  56  DG56       -0.0859
   1152  N3       -13.8370   23.4790   -5.6690 N.ar   56  DG56       -0.1918
   1153  C4       -12.9620   24.3670   -6.1890 C.ar   56  DG56        0.1722
   1154  P        -14.8310   26.4200  -11.1760 P.3    57  DA57        0.2141
   1155  OP1      -15.3450   26.2000  -12.5560 O.2    57  DA57       -0.5172
   1156  OP2      -13.4640   26.9790  -10.9940 O.3    57  DA57       -0.4373
   1157  O5'      -15.8310   27.4600  -10.4950 O.3    57  DA57       -0.3114
   1158  C5'      -15.6830   27.8010   -9.1190 C.3    57  DA57        0.1811
   1159  C4'      -17.0300   28.0460   -8.4870 C.3    57  DA57        0.1746
   1160  O4'      -18.0650   27.6310   -9.4060 O.3    57  DA57       -0.3327
   1161  C3'      -17.2780   27.2420   -7.2200 C.3    57  DA57        0.1558
   1162  O3'      -16.7940   27.9230   -6.0680 O.3    57  DA57       -0.3138
   1163  C2'      -18.7910   27.1070   -7.2080 C.3    57  DA57        0.0865
   1164  C1'      -19.0850   26.9470   -8.7010 C.3    57  DA57        0.2094
   1165  N9       -19.1190   25.6070   -9.2630 N.ar   57  DA57       -0.2714
   1166  C8       -18.4300   25.2090  -10.3790 C.ar   57  DA57        0.1815
   1167  N7       -18.6580   23.9630  -10.7240 N.ar   57  DA57       -0.2193
   1168  C5       -19.5570   23.5140   -9.7700 C.ar   57  DA57        0.1518
   1169  C6       -20.1900   22.2740   -9.5770 C.ar   57  DA57        0.1919
   1170  N6       -20.0060   21.2180  -10.3730 N.pl3  57  DA57       -0.1054
   1171  N1       -21.0300   22.1560   -8.5270 N.ar   57  DA57       -0.2040
   1172  C2       -21.2150   23.2150   -7.7300 C.ar   57  DA57        0.2016
   1173  N3       -20.6780   24.4300   -7.8090 N.ar   57  DA57       -0.2048
   1174  C4       -19.8490   24.5150   -8.8630 C.ar   57  DA57        0.1691
   1175  P        -15.9860   27.2160   -5.0840 P.3    58  DC58        0.2141
   1176  OP1      -15.4120   28.2530   -4.1850 O.3    58  DC58       -0.4373
   1177  OP2      -15.0760   26.3570   -5.8660 O.2    58  DC58       -0.5172
   1178  O5'      -16.9450   26.2620   -4.2480 O.3    58  DC58       -0.3114
   1179  C5'      -18.0660   26.7960   -3.5500 C.3    58  DC58        0.1811
   1180  C4'      -18.9130   25.6840   -2.9910 C.3    58  DC58        0.1744
   1181  O4'      -19.5510   24.9740   -4.0870 O.3    58  DC58       -0.3346
   1182  C3'      -18.1540   24.5990   -2.2400 C.3    58  DC58        0.1555
   1183  O3'      -17.9050   24.9420   -0.8810 O.3    58  DC58       -0.3139
   1184  C2'      -19.1020   23.4150   -2.3560 C.3    58  DC58        0.0839
   1185  C1'      -19.6260   23.5930   -3.7810 C.3    58  DC58        0.2016
   1186  N1       -18.8260   22.8760   -4.7730 N.am   58  DC58       -0.2214
   1187  C2       -19.1470   21.5470   -5.0700 C.2    58  DC58        0.2880
   1188  O2       -20.1470   21.0380   -4.5340 O.2    58  DC58       -0.2549
   1189  N3       -18.3610   20.8550   -5.9290 N.am   58  DC58       -0.3204
   1190  C4       -17.2980   21.4410   -6.4800 C.3    58  DC58        0.1184
   1191  N4       -16.5530   20.7200   -7.3220 N.3    58  DC58       -0.2459
   1192  C5       -16.9560   22.7870   -6.1920 C.2    58  DC58        0.0068
   1193  C6       -17.7340   23.4670   -5.3430 C.2    58  DC58        0.0674
   1194  P        -16.7190   24.1690   -0.0440 P.3    59  DA59        0.2141
   1195  OP1      -16.4490   24.5400    1.3640 O.3    59  DA59       -0.4373
   1196  OP2      -15.6980   24.3680   -1.1030 O.2    59  DA59       -0.5172
   1197  O5'      -17.1600   22.6350   -0.0160 O.3    59  DA59       -0.3114
   1198  C5'      -17.8980   22.1630    1.1060 C.3    59  DA59        0.1811
   1199  C4'      -18.3940   20.7650    0.8240 C.3    59  DA59        0.1746
   1200  O4'      -19.1220   20.7710   -0.4220 O.3    59  DA59       -0.3327
   1201  C3'      -17.2670   19.7820    0.5910 C.3    59  DA59        0.1558
   1202  O3'      -16.8880   19.2330    1.8220 O.3    59  DA59       -0.3138
   1203  C2'      -17.8990   18.7340   -0.3160 C.3    59  DA59        0.0865
   1204  C1'      -18.8620   19.5800   -1.1420 C.3    59  DA59        0.2094
   1205  N9       -18.3030   19.8710   -2.4490 N.ar   59  DA59       -0.2718
   1206  C8       -17.1660   20.5890   -2.7140 C.ar   59  DA59        0.1812
   1207  N7       -16.8560   20.6380   -3.9880 N.ar   59  DA59       -0.2253
   1208  C5       -17.8560   19.9010   -4.6010 C.ar   59  DA59        0.1160
   1209  C6       -18.1010   19.5740   -5.9470 C.3    59  DA59        0.1692
   1210  N6       -17.3210   19.9670   -6.9570 N.4    59  DA59        0.4618
   1211  N1       -19.1870   18.8210   -6.2210 N.pl3  59  DA59       -0.2122
   1212  C2       -19.9690   18.4280   -5.2080 C.2    59  DA59        0.1824
   1213  N3       -19.8430   18.6720   -3.9060 N.2    59  DA59       -0.2079
   1214  C4       -18.7540   19.4210   -3.6660 C.ar   59  DA59        0.1632
   1215  P        -15.3380   19.3800    2.3560 P.3    60  DT60        0.2141
   1216  OP1      -16.2200   19.0000    3.4880 O.3    60  DT60       -0.4373
   1217  OP2      -13.8750   19.5110    2.5710 O.2    60  DT60       -0.5172
   1218  O5'      -15.6510   18.3040    1.1960 O.3    60  DT60       -0.3114
   1219  C5'      -14.6380   17.5040    0.6030 C.3    60  DT60        0.1811
   1220  C4'      -14.6830   17.6270   -0.9070 C.3    60  DT60        0.1746
   1221  O4'      -14.7640   19.0110   -1.3470 O.3    60  DT60       -0.3327
   1222  C3'      -13.4250   17.1630   -1.6210 C.3    60  DT60        0.1558
   1223  O3'      -13.2490   15.7530   -1.5710 O.3    60  DT60       -0.3138
   1224  C2'      -13.7040   17.7220   -3.0120 C.3    60  DT60        0.0866
   1225  C1'      -14.0900   19.1470   -2.5960 C.3    60  DT60        0.2106
   1226  N1       -13.0240   20.1960   -2.4740 N.ar   60  DT60       -0.2559
   1227  C2       -12.3010   20.6670   -3.5530 C.ar   60  DT60        0.3545
   1228  O2       -12.2830   20.1090   -4.6350 O.2    60  DT60       -0.2443
   1229  N3       -11.5940   21.8220   -3.3190 N.ar   60  DT60       -0.1533
   1230  C4       -11.5390   22.5360   -2.1400 C.ar   60  DT60        0.2804
   1231  O4       -10.8590   23.5580   -2.0830 O.2    60  DT60       -0.2654
   1232  C5       -12.3150   21.9820   -1.0670 C.ar   60  DT60        0.0534
   1233  C6       -13.0120   20.8610   -1.2670 C.ar   60  DT60        0.0824
   1234  C7       -12.3190   22.6860    0.2570 C.3    60  DT60        0.0377
   1235  P        -11.7790   15.1030   -1.0860 P.3    61  DC61        0.2141
   1236  OP1      -12.3570   13.7400   -1.0200 O.2    61  DC61       -0.5172
   1237  OP2      -10.6870   15.3690   -0.0770 O.3    61  DC61       -0.4373
   1238  O5'      -11.2150   15.5710   -2.4730 O.3    61  DC61       -0.3114
   1239  C5'      -11.5890   14.7720   -3.6200 C.3    61  DC61        0.1811
   1240  C4'      -10.8360   15.3480   -4.7800 C.3    61  DC61        0.1746
   1241  O4'      -11.1110   16.7220   -4.9260 O.3    61  DC61       -0.3327
   1242  C3'       -9.3200   15.2800   -4.7240 C.3    61  DC61        0.1558
   1243  O3'       -8.7860   13.9960   -4.9790 O.3    61  DC61       -0.3138
   1244  C2'       -8.9810   16.2890   -5.8180 C.3    61  DC61        0.0866
   1245  C1'       -9.9870   17.3780   -5.5390 C.3    61  DC61        0.2106
   1246  N1        -9.4270   18.4170   -4.6210 N.ar   61  DC61       -0.2556
   1247  C2        -8.6250   19.4340   -5.1520 C.ar   61  DC61        0.3531
   1248  O2        -8.3970   19.4390   -6.3740 O.2    61  DC61       -0.2443
   1249  N3        -8.1220   20.3790   -4.3220 N.ar   61  DC61       -0.1739
   1250  C4        -8.3930   20.3340   -3.0170 C.ar   61  DC61        0.1759
   1251  N4        -7.8760   21.2870   -2.2380 N.pl3  61  DC61       -0.1070
   1252  C5        -9.2030   19.3120   -2.4590 C.ar   61  DC61        0.0566
   1253  C6        -9.6980   18.3800   -3.2820 C.ar   61  DC61        0.0849
   1254  P         -7.2200   13.6010   -4.7410 P.3    62  DC62        0.2141
   1255  OP1       -7.2720   12.2710   -5.3720 O.2    62  DC62       -0.5172
   1256  OP2       -6.9560   13.7010   -3.2780 O.3    62  DC62       -0.4373
   1257  O5'       -6.0990   14.4610   -5.5020 O.3    62  DC62       -0.3114
   1258  C5'       -5.9090   14.3170   -6.9210 C.3    62  DC62        0.1811
   1259  C4'       -4.9200   15.3260   -7.4960 C.3    62  DC62        0.1746
   1260  O4'       -5.4720   16.6670   -7.3670 O.3    62  DC62       -0.3327
   1261  C3'       -3.5430   15.4180   -6.8230 C.3    62  DC62        0.1558
   1262  O3'       -2.5820   14.4280   -7.2670 O.3    62  DC62       -0.3138
   1263  C2'       -3.1480   16.8320   -7.2590 C.3    62  DC62        0.0866
   1264  C1'       -4.4490   17.5810   -6.9800 C.3    62  DC62        0.2106
   1265  N1        -4.4770   18.0110   -5.5530 N.ar   62  DC62       -0.2556
   1266  C2        -3.7470   19.1270   -5.1260 C.ar   62  DC62        0.3531
   1267  O2        -2.9280   19.6400   -5.9070 O.2    62  DC62       -0.2443
   1268  N3        -3.9520   19.6120   -3.8780 N.ar   62  DC62       -0.1739
   1269  C4        -4.8410   19.0280   -3.0730 C.ar   62  DC62        0.1759
   1270  N4        -5.0100   19.5410   -1.8520 N.pl3  62  DC62       -0.1070
   1271  C5        -5.5910   17.8970   -3.4870 C.ar   62  DC62        0.0566
   1272  C6        -5.3850   17.4210   -4.7200 C.ar   62  DC62        0.0849
   1273  P         -1.6010   13.3200   -6.2510 P.3    63  DT63        0.2141
   1274  OP1       -1.2290   12.2100   -7.1670 O.2    63  DT63       -0.5172
   1275  OP2       -2.1390   13.0090   -4.9070 O.3    63  DT63       -0.4373
   1276  O5'       -0.3140   14.2230   -6.0670 O.3    63  DT63       -0.3114
   1277  C5'        0.2590   14.9080   -7.1830 C.3    63  DT63        0.1811
   1278  C4'        1.1610   15.9910   -6.6800 C.3    63  DT63        0.1746
   1279  O4'        0.3790   17.0810   -6.1260 O.3    63  DT63       -0.3327
   1280  C3'        1.9960   15.5210   -5.5130 C.3    63  DT63        0.1558
   1281  O3'        3.1380   14.8380   -5.9850 O.3    63  DT63       -0.3138
   1282  C2'        2.3360   16.8190   -4.7930 C.3    63  DT63        0.0866
   1283  C1'        1.0540   17.6190   -5.0010 C.3    63  DT63        0.2106
   1284  N1         0.0940   17.7870   -3.9990 N.ar   63  DT63       -0.2559
   1285  C2         0.1530   18.8740   -3.1480 C.ar   63  DT63        0.3545
   1286  O2         0.8950   19.8220   -3.3310 O.2    63  DT63       -0.2443
   1287  N3        -0.6930   18.8110   -2.0670 N.ar   63  DT63       -0.1533
   1288  C4        -1.5720   17.7940   -1.7590 C.ar   63  DT63        0.2804
   1289  O4        -2.2690   17.8810   -0.7510 O.2    63  DT63       -0.2654
   1290  C5        -1.5740   16.7010   -2.6900 C.ar   63  DT63        0.0534
   1291  C6        -0.7610   16.7360   -3.7500 C.ar   63  DT63        0.0824
   1292  C7        -2.4960   15.5440   -2.4420 C.3    63  DT63        0.0377
   1293  P          4.5070   14.7550   -4.9220 P.3    64  DA64        0.2141
   1294  OP1        5.1850   14.3500   -3.6670 O.3    64  DA64       -0.4373
   1295  OP2        4.9060   16.0160   -5.5930 O.2    64  DA64       -0.5172
   1296  O5'        4.6890   13.5690   -5.9710 O.3    64  DA64       -0.3114
   1297  C5'        5.1160   12.2690   -5.5520 C.3    64  DA64        0.1811
   1298  C4'        6.0690   11.6810   -6.5690 C.3    64  DA64        0.1746
   1299  O4'        5.3970   11.5980   -7.8510 O.3    64  DA64       -0.3327
   1300  C3'        7.3220   12.5020   -6.8280 C.3    64  DA64        0.1558
   1301  O3'        8.3540   12.1110   -5.9270 O.3    64  DA64       -0.3138
   1302  C2'        7.6740   12.1290   -8.2620 C.3    64  DA64        0.0865
   1303  C1'        6.2890   11.9580   -8.8920 C.3    64  DA64        0.2094
   1304  N9         5.6640   13.1080   -9.5560 N.ar   64  DA64       -0.2714
   1305  C8         4.8200   14.1230   -9.1890 C.ar   64  DA64        0.1815
   1306  N7         4.8610   15.1610   -9.9900 N.ar   64  DA64       -0.2193
   1307  C5         5.7970   14.8040  -10.9480 C.ar   64  DA64        0.1518
   1308  C6         6.2960   15.4740  -12.0790 C.ar   64  DA64        0.1919
   1309  N6         5.9010   16.6950  -12.4490 N.pl3  64  DA64       -0.1054
   1310  N1         7.2240   14.8380  -12.8250 N.ar   64  DA64       -0.2040
   1311  C2         7.6180   13.6150  -12.4540 C.ar   64  DA64        0.2016
   1312  N3         7.2230   12.8830  -11.4140 N.ar   64  DA64       -0.2048
   1313  C4         6.3010   13.5430  -10.6930 C.ar   64  DA64        0.1691
   1314  P          9.6300   13.1940   -5.4790 P.3    65  DT65        0.2141
   1315  OP1       10.5230   12.5540   -4.4840 O.3    65  DT65       -0.4373
   1316  OP2        9.2000   14.6030   -5.3230 O.2    65  DT65       -0.5172
   1317  O5'       10.3710   13.1530   -6.9000 O.3    65  DT65       -0.3114
   1318  C5'       11.0000   11.9300   -7.2690 C.3    65  DT65        0.1811
   1319  C4'       11.6380   11.9430   -8.6420 C.3    65  DT65        0.1746
   1320  O4'       10.6130   12.1080   -9.6620 O.3    65  DT65       -0.3327
   1321  C3'       12.6770   13.0350   -8.8810 C.3    65  DT65        0.1558
   1322  O3'       14.0030   12.5350   -8.9850 O.3    65  DT65       -0.3138
   1323  C2'       12.2980   13.6930  -10.2050 C.3    65  DT65        0.0866
   1324  C1'       11.0200   13.0130  -10.6670 C.3    65  DT65        0.2106
   1325  N1        10.0490   14.1900  -10.7970 N.ar   65  DT65       -0.2559
   1326  C2        10.0010   14.8300  -12.0200 C.ar   65  DT65        0.3545
   1327  O2        10.6640   14.4790  -12.9800 O.2    65  DT65       -0.2443
   1328  N3         9.1440   15.9020  -12.0820 N.ar   65  DT65       -0.1533
   1329  C4         8.3490   16.3870  -11.0640 C.ar   65  DT65        0.2804
   1330  O4         7.6280   17.3610  -11.2720 O.2    65  DT65       -0.2654
   1331  C5         8.4560   15.6700   -9.8250 C.ar   65  DT65        0.0534
   1332  C6         9.2820   14.6240   -9.7380 C.ar   65  DT65        0.0824
   1333  C7         7.6310   16.1220   -8.6570 C.3    65  DT65        0.0377
   1334  P         15.1610   13.6690   -8.6210 P.3    66  DG66        0.2141
   1335  OP1       16.1310   13.0680   -7.6810 O.3    66  DG66       -0.4373
   1336  OP2       14.0140   14.4380   -8.0880 O.2    66  DG66       -0.5172
   1337  O5'       15.9760   14.5540   -9.6710 O.3    66  DG66       -0.3114
   1338  C5'       16.9750   13.8930  -10.4320 C.3    66  DG66        0.1811
   1339  C4'       16.7040   13.9410  -11.9240 C.3    66  DG66        0.1746
   1340  O4'       15.3200   13.6470  -12.2470 O.3    66  DG66       -0.3327
   1341  C3'       16.9310   15.2980  -12.5580 C.3    66  DG66        0.1558
   1342  O3'       18.3120   15.5260  -12.7150 O.3    66  DG66       -0.3138
   1343  C2'       16.2490   15.0670  -13.8950 C.3    66  DG66        0.0865
   1344  C1'       14.9910   14.3170  -13.4560 C.3    66  DG66        0.2094
   1345  N9        13.8640   15.2140  -13.0540 N.ar   66  DG66       -0.2713
   1346  C8        13.1900   15.0250  -11.8720 C.ar   66  DG66        0.1816
   1347  N7        12.1530   15.8070  -11.7390 N.ar   66  DG66       -0.2173
   1348  C5        12.1380   16.5560  -12.9000 C.ar   66  DG66        0.1748
   1349  C6        11.2480   17.5750  -13.3300 C.ar   66  DG66        0.3023
   1350  O6        10.2600   18.0280  -12.7390 O.2    66  DG66       -0.2633
   1351  N1        11.5970   18.0770  -14.5800 N.ar   66  DG66       -0.1709
   1352  C2        12.6710   17.6510  -15.3250 C.ar   66  DG66        0.2606
   1353  N2        12.8460   18.2550  -16.5080 N.pl3  66  DG66       -0.0859
   1354  N3        13.5060   16.7070  -14.9390 N.ar   66  DG66       -0.1918
   1355  C4        13.1870   16.2050  -13.7270 C.ar   66  DG66        0.1722
   1356  P         18.9690   16.9560  -12.2450 P.3    67  DC67        0.2141
   1357  OP1       20.4310   16.8230  -12.2360 O.2    67  DC67       -0.5172
   1358  OP2       18.2410   17.1510  -10.9760 O.3    67  DC67       -0.4373
   1359  O5'       18.5620   18.1240  -13.2480 O.3    67  DC67       -0.3114
   1360  C5'       19.0510   18.1050  -14.5690 C.3    67  DC67        0.1811
   1361  C4'       18.2750   19.0430  -15.4620 C.3    67  DC67        0.1746
   1362  O4'       16.8700   18.6650  -15.4640 O.3    67  DC67       -0.3327
   1363  C3'       18.2290   20.4940  -15.0290 C.3    67  DC67        0.1558
   1364  O3'       19.4280   21.1760  -15.3660 O.3    67  DC67       -0.3138
   1365  C2'       17.0120   20.9910  -15.7910 C.3    67  DC67        0.0866
   1366  C1'       16.0600   19.8140  -15.6540 C.3    67  DC67        0.2106
   1367  N1        15.2110   19.9540  -14.4870 N.ar   67  DC67       -0.2556
   1368  C2        14.1540   20.8700  -14.5380 C.ar   67  DC67        0.3531
   1369  O2        13.9890   21.5350  -15.5760 O.2    67  DC67       -0.2443
   1370  N3        13.3450   21.0050  -13.4600 N.ar   67  DC67       -0.1739
   1371  C4        13.5600   20.2710  -12.3680 C.ar   67  DC67        0.1759
   1372  N4        12.7370   20.4390  -11.3300 N.pl3  67  DC67       -0.1070
   1373  C5        14.6260   19.3380  -12.2960 C.ar   67  DC67        0.0566
   1374  C6        15.4220   19.2070  -13.3630 C.ar   67  DC67        0.0849
   1375  P         20.0470   22.3200  -14.3600 P.3    68  DG68        0.2141
   1376  OP1       21.3930   22.8130  -14.6950 O.2    68  DG68       -0.5172
   1377  OP2       19.7120   21.9860  -12.9670 O.3    68  DG68       -0.4373
   1378  O5'       18.9740   23.3970  -14.8630 O.3    68  DG68       -0.3114
   1379  C5'       19.1160   23.9470  -16.1560 C.3    68  DG68        0.1811
   1380  C4'       17.9430   24.8350  -16.5140 C.3    68  DG68        0.1746
   1381  O4'       16.6830   24.1980  -16.2200 O.3    68  DG68       -0.3327
   1382  C3'       17.8800   26.1350  -15.7530 C.3    68  DG68        0.1558
   1383  O3'       18.7430   27.0810  -16.3220 O.3    68  DG68       -0.3138
   1384  C2'       16.4360   26.5290  -15.9600 C.3    68  DG68        0.0865
   1385  C1'       15.7380   25.1870  -15.8540 C.3    68  DG68        0.2094
   1386  N9        15.2290   24.8610  -14.4330 N.ar   68  DG68       -0.2713
   1387  C8        15.6670   23.8960  -13.5580 C.ar   68  DG68        0.1816
   1388  N7        15.0040   23.8810  -12.4340 N.ar   68  DG68       -0.2173
   1389  C5        14.0710   24.8910  -12.5720 C.ar   68  DG68        0.1748
   1390  C6        13.0700   25.3520  -11.6780 C.ar   68  DG68        0.3023
   1391  O6        12.8060   24.9350  -10.5430 O.2    68  DG68       -0.2633
   1392  N1        12.3370   26.4060  -12.2160 N.ar   68  DG68       -0.1709
   1393  C2        12.5420   26.9490  -13.4620 C.ar   68  DG68        0.2606
   1394  N2        11.7330   27.9600  -13.8070 N.pl3  68  DG68       -0.0859
   1395  N3        13.4680   26.5320  -14.3030 N.ar   68  DG68       -0.1918
   1396  C4        14.1930   25.5100  -13.8010 C.ar   68  DG68        0.1722
   1397  P         19.8120   27.7030  -15.3440 P.3    69  DT69        0.2141
   1398  OP1       20.7960   28.3810  -16.3130 O.2    69  DT69       -0.5172
   1399  OP2       20.5020   27.0790  -14.2000 O.3    69  DT69       -0.4373
   1400  O5'       18.6680   28.6990  -14.8850 O.3    69  DT69       -0.3114
   1401  C5'       18.0050   29.5150  -15.8740 C.3    69  DT69        0.1811
   1402  C4'       16.9390   30.2230  -15.0640 C.3    69  DT69        0.1746
   1403  O4'       15.8810   29.3070  -14.8500 O.3    69  DT69       -0.3327
   1404  C3'       17.3320   30.6680  -13.6760 C.3    69  DT69        0.1558
   1405  O3'       17.9380   31.9790  -13.6280 O.3    69  DT69       -0.3138
   1406  C2'       15.9470   30.7870  -12.9990 C.3    69  DT69        0.0866
   1407  C1'       15.2400   29.5990  -13.5940 C.3    69  DT69        0.2106
   1408  N1        15.4460   28.4010  -12.6910 N.ar   69  DT69       -0.2559
   1409  C2        14.6020   28.3020  -11.6010 C.ar   69  DT69        0.3545
   1410  O2        13.7350   29.1230  -11.3560 O.2    69  DT69       -0.2443
   1411  N3        14.8100   27.2040  -10.8030 N.ar   69  DT69       -0.1533
   1412  C4        15.7560   26.2160  -10.9810 C.ar   69  DT69        0.2804
   1413  O4        15.8210   25.2890  -10.1780 O.2    69  DT69       -0.2654
   1414  C5        16.5940   26.3900  -12.1340 C.ar   69  DT69        0.0534
   1415  C6        16.4130   27.4490  -12.9270 C.ar   69  DT69        0.0824
   1416  C7        17.6550   25.3680  -12.4140 C.3    69  DT69        0.0377
   1417  P         18.5470   32.7440  -12.0990 P.3    70  DG70        0.2141
   1418  OP1       19.3790   33.9260  -12.4170 O.2    70  DG70       -0.5172
   1419  OP2       19.1500   31.5100  -11.5310 O.3    70  DG70       -0.4373
   1420  O5'       17.3780   33.1920  -11.1020 O.3    70  DG70       -0.3114
   1421  C5'       16.3810   34.1280  -11.4840 C.3    70  DG70        0.1811
   1422  C4'       15.2680   34.1100  -10.4520 C.3    70  DG70        0.1746
   1423  O4'       14.5150   32.8660  -10.5280 O.3    70  DG70       -0.3327
   1424  C3'       15.7360   34.1690   -9.0020 C.3    70  DG70        0.1558
   1425  O3'       16.0890   35.5070   -8.6630 O.3    70  DG70       -0.3138
   1426  C2'       14.4640   33.6800   -8.3150 C.3    70  DG70        0.0865
   1427  C1'       14.0480   32.5180   -9.2360 C.3    70  DG70        0.2094
   1428  N9        14.6610   31.2590   -8.7960 N.ar   70  DG70       -0.2713
   1429  C8        15.7940   30.6560   -9.2880 C.ar   70  DG70        0.1816
   1430  N7        16.0870   29.5380   -8.6820 N.ar   70  DG70       -0.2173
   1431  C5        15.0910   29.3900   -7.7340 C.ar   70  DG70        0.1748
   1432  C6        14.8760   28.3690   -6.7730 C.ar   70  DG70        0.3023
   1433  O6        15.5540   27.3550   -6.5670 O.2    70  DG70       -0.2633
   1434  N1        13.7400   28.6100   -6.0040 N.ar   70  DG70       -0.1709
   1435  C2        12.9140   29.6990   -6.1440 C.ar   70  DG70        0.2606
   1436  N2        11.8670   29.7570   -5.3110 N.pl3  70  DG70       -0.0859
   1437  N3        13.1020   30.6560   -7.0320 N.ar   70  DG70       -0.1918
   1438  C4        14.1990   30.4440   -7.7890 C.ar   70  DG70        0.1722
   1439  P         16.5130   35.9710   -7.2040 P.3    71  DC71        0.2141
   1440  OP1       16.5820   37.4490   -7.1530 O.3    71  DC71       -0.4373
   1441  OP2       17.7350   35.1520   -7.3560 O.2    71  DC71       -0.5172
   1442  O5'       15.8590   35.4450   -5.8440 O.3    71  DC71       -0.3114
   1443  C5'       14.5670   35.8910   -5.4690 C.3    71  DC71        0.1811
   1444  C4'       14.1450   35.2510   -4.1740 C.3    71  DC71        0.1746
   1445  O4'       13.8300   33.8500   -4.3910 O.3    71  DC71       -0.3327
   1446  C3'       15.2160   35.2210   -3.0990 C.3    71  DC71        0.1558
   1447  O3'       15.3630   36.4600   -2.4260 O.3    71  DC71       -0.3138
   1448  C2'       14.7550   34.0670   -2.2150 C.3    71  DC71        0.0866
   1449  C1'       14.2270   33.0890   -3.2680 C.3    71  DC71        0.2106
   1450  N1        15.3380   32.1310   -3.8890 N.ar   71  DC71       -0.2556
   1451  C2        15.3680   30.8070   -3.4350 C.ar   71  DC71        0.3531
   1452  O2        14.4980   30.4310   -2.6310 O.2    71  DC71       -0.2443
   1453  N3        16.3410   29.9780   -3.8830 N.ar   71  DC71       -0.1739
   1454  C4        17.2550   30.4260   -4.7450 C.ar   71  DC71        0.1759
   1455  N4        18.1940   29.5730   -5.1590 N.pl3  71  DC71       -0.1070
   1456  C5        17.2420   31.7640   -5.2170 C.ar   71  DC71        0.0566
   1457  C6        16.2790   32.5790   -4.7720 C.ar   71  DC71        0.0849
   1458  P         17.0040   36.9470   -1.8540 P.3    72  DT72        0.2141
   1459  OP1       17.7670   37.0410   -0.5980 O.3    72  DT72       -0.4373
   1460  OP2       17.1000   38.0460   -2.8450 O.2    72  DT72       -0.5172
   1461  O5'       17.3920   35.5920   -2.6040 O.3    72  DT72       -0.3114
   1462  C5'       17.4140   34.3150   -1.9270 C.3    72  DT72        0.1811
   1463  C4'       18.8170   33.7240   -1.9290 C.3    72  DT72        0.1746
   1464  O4'       19.4250   33.8070   -3.2570 O.3    72  DT72       -0.3327
   1465  C3'       19.8190   34.3880   -0.9900 C.3    72  DT72        0.1558
   1466  O3'       20.7270   33.4080   -0.5190 O.3    72  DT72       -0.3138
   1467  C2'       20.6000   35.2990   -1.9200 C.3    72  DT72        0.0866
   1468  C1'       20.7050   34.4030   -3.1450 C.3    72  DT72        0.2106
   1469  N1        21.4570   34.4600   -4.2860 N.ar   72  DT72       -0.2559
   1470  C2        22.1690   33.5130   -4.9990 C.ar   72  DT72        0.3545
   1471  O2        22.2270   32.3410   -4.6720 O.2    72  DT72       -0.2443
   1472  N3        22.8150   33.9900   -6.1140 N.ar   72  DT72       -0.1533
   1473  C4        22.8210   35.2890   -6.5770 C.ar   72  DT72        0.2804
   1474  O4        23.4480   35.5650   -7.5960 O.2    72  DT72       -0.2654
   1475  C5        22.0600   36.2120   -5.7820 C.ar   72  DT72        0.0534
   1476  C6        21.4220   35.7750   -4.6930 C.ar   72  DT72        0.0824
   1477  C7        22.0050   37.6510   -6.2030 C.3    72  DT72        0.0377
   1478  P         20.7300   32.3450    1.0430 P.3    73  DA73        0.2141
   1479  OP1       20.0200   33.1330    2.0780 O.3    73  DA73       -0.4373
   1480  OP2       22.2110   32.4260    0.9410 O.2    73  DA73       -0.5172
   1481  O5'       20.3260   30.8190    1.2210 O.3    73  DA73       -0.3114
   1482  C5'       20.9980   29.8020    0.4730 C.3    73  DA73        0.1811
   1483  C4'       20.8140   28.4750    1.1470 C.3    73  DA73        0.1746
   1484  O4'       21.2950   28.5830    2.5070 O.3    73  DA73       -0.3327
   1485  C3'       19.3710   28.0320    1.2860 C.3    73  DA73        0.1558
   1486  O3'       18.9830   27.3420    0.1100 O.3    73  DA73       -0.3138
   1487  C2'       19.4390   27.1060    2.4910 C.3    73  DA73        0.0865
   1488  C1'       20.4520   27.8420    3.3720 C.3    73  DA73        0.2094
   1489  N9        19.8620   28.8070    4.3470 N.ar   73  DA73       -0.2714
   1490  C8        19.8270   30.1760    4.2970 C.ar   73  DA73        0.1815
   1491  N7        19.1950   30.7270    5.3060 N.ar   73  DA73       -0.2193
   1492  C5        18.7860   29.6460    6.0710 C.ar   73  DA73        0.1518
   1493  C6        18.0660   29.5580    7.2760 C.ar   73  DA73        0.1919
   1494  N6        17.6160   30.6210    7.9460 N.pl3  73  DA73       -0.1054
   1495  N1        17.8240   28.3270    7.7720 N.ar   73  DA73       -0.2040
   1496  C2        18.2770   27.2620    7.1000 C.ar   73  DA73        0.2016
   1497  N3        18.9640   27.2180    5.9610 N.ar   73  DA73       -0.2048
   1498  C4        19.1880   28.4570    5.4930 C.ar   73  DA73        0.1691
   1499  P         17.3460   27.2380   -0.3380 P.3    74  DC74        0.2141
   1500  OP1       17.0150   26.3980   -1.5130 O.2    74  DC74       -0.5172
   1501  OP2       16.7910   28.6000   -0.1770 O.3    74  DC74       -0.4373
   1502  O5'       16.8840   26.4600    0.9800 O.3    74  DC74       -0.3114
   1503  C5'       17.1140   25.0660    1.0840 C.3    74  DC74        0.1812
   1504  C4'       16.7820   24.5650    2.4650 C.3    74  DC74        0.1775
   1505  O4'       17.3410   25.4630    3.4550 O.3    74  DC74       -0.3326
   1506  C3'       15.3010   24.4940    2.7880 C.3    74  DC74        0.1864
   1507  O3'       14.7410   23.2610    2.3770 O.3    74  DC74       -0.2133
   1508  C2'       15.2540   24.6780    4.2980 C.3    74  DC74        0.0895
   1509  C1'       16.4930   25.5400    4.5790 C.3    74  DC74        0.2107
   1510  N1        16.4560   26.9420    4.8200 N.ar   74  DC74       -0.2556
   1511  C2        16.0380   27.3170    6.1020 C.ar   74  DC74        0.3531
   1512  O2        15.9810   26.4490    6.9900 O.2    74  DC74       -0.2443
   1513  N3        15.7080   28.6090    6.3370 N.ar   74  DC74       -0.1739
   1514  C4        15.7840   29.5070    5.3530 C.ar   74  DC74        0.1759
   1515  N4        15.4490   30.7690    5.6320 N.pl3  74  DC74       -0.1070
   1516  C5        16.2050   29.1470    4.0470 C.ar   74  DC74        0.0566
   1517  C6        16.5300   27.8700    3.8200 C.ar   74  DC74        0.0849
   1518  P         12.9780   23.3820    1.7430 P.3    75  DC75        0.3939
   1519  OP1       13.3350   22.9900    3.1240 O.3    75  DC75       -0.1496
   1520  OP2       13.0020   22.3840    0.6500 O.3    75  DC75       -0.1425
   1521  O5'       11.4740   23.9470    1.7110 O.3    75  DC75       -0.2926
   1522  C5'       10.5990   23.7720    0.6000 C.3    75  DC75        0.1828
   1523  C4'       10.2040   25.0950   -0.0180 C.3    75  DC75        0.1747
   1524  O4'       11.3910   25.9150   -0.1600 O.3    75  DC75       -0.3327
   1525  C3'        9.5560   25.0390   -1.4000 C.3    75  DC75        0.1558
   1526  O3'        8.1360   25.0720   -1.3130 O.3    75  DC75       -0.3138
   1527  C2'       10.1060   26.2510   -2.1500 C.3    75  DC75        0.0866
   1528  C1'       11.3760   26.6260   -1.3770 C.3    75  DC75        0.2106
   1529  N1        12.5020   26.2490   -2.2040 N.ar   75  DC75       -0.2556
   1530  C2        12.7480   27.0840   -3.3000 C.ar   75  DC75        0.3531
   1531  O2        12.0440   28.0970   -3.4500 O.2    75  DC75       -0.2443
   1532  N3        13.7430   26.7650   -4.1630 N.ar   75  DC75       -0.1739
   1533  C4        14.4730   25.6670   -3.9620 C.ar   75  DC75        0.1759
   1534  N4        15.4420   25.3920   -4.8380 N.pl3  75  DC75       -0.1070
   1535  C5        14.2390   24.8080   -2.8570 C.ar   75  DC75        0.0566
   1536  C6        13.2560   25.1270   -2.0080 C.ar   75  DC75        0.0849
   1537  P          7.1690   24.9400   -2.6520 P.3    76  DG76        0.2141
   1538  OP1        5.7630   24.8510   -2.2070 O.3    76  DG76       -0.4373
   1539  OP2        7.7760   23.8760   -3.4800 O.2    76  DG76       -0.5172
   1540  O5'        7.2900   26.2330   -3.5850 O.3    76  DG76       -0.3114
   1541  C5'        6.6890   27.4640   -3.2100 C.3    76  DG76        0.1811
   1542  C4'        7.1010   28.5980   -4.1200 C.3    76  DG76        0.1746
   1543  O4'        8.5480   28.7090   -4.2350 O.3    76  DG76       -0.3327
   1544  C3'        6.6750   28.4520   -5.5640 C.3    76  DG76        0.1558
   1545  O3'        5.2950   28.6670   -5.7550 O.3    76  DG76       -0.3138
   1546  C2'        7.5650   29.4740   -6.2450 C.3    76  DG76        0.0865
   1547  C1'        8.8820   29.2000   -5.5200 C.3    76  DG76        0.2094
   1548  N9         9.6580   28.0800   -6.2860 N.ar   76  DG76       -0.2713
   1549  C8         9.8100   26.7750   -5.8860 C.ar   76  DG76        0.1816
   1550  N7        10.7010   26.1230   -6.5830 N.ar   76  DG76       -0.2173
   1551  C5        11.1670   27.0500   -7.4960 C.ar   76  DG76        0.1748
   1552  C6        12.1430   26.9280   -8.5190 C.ar   76  DG76        0.3023
   1553  O6        12.8110   25.9320   -8.8250 O.2    76  DG76       -0.2633
   1554  N1        12.3120   28.1170   -9.2220 N.ar   76  DG76       -0.1709
   1555  C2        11.6270   29.2810   -8.9700 C.ar   76  DG76        0.2606
   1556  N2        11.9280   30.3260   -9.7530 N.pl3  76  DG76       -0.0859
   1557  N3        10.7170   29.4100   -8.0240 N.ar   76  DG76       -0.1918
   1558  C4        10.5350   28.2670   -7.3290 C.ar   76  DG76        0.1722
   1559  P          4.5470   27.5020   -6.4820 P.3    77  DT77        0.2141
   1560  OP1        3.0940   27.8260   -6.3980 O.3    77  DT77       -0.4373
   1561  OP2        4.8980   26.0700   -6.4740 O.2    77  DT77       -0.5172
   1562  O5'        5.1110   28.0490   -7.9100 O.3    77  DT77       -0.3114
   1563  C5'        4.8290   29.4010   -8.3810 C.3    77  DT77        0.1811
   1564  C4'        5.6500   29.7580   -9.6280 C.3    77  DT77        0.1746
   1565  O4'        7.0650   29.6530   -9.3080 O.3    77  DT77       -0.3327
   1566  C3'        5.4660   28.7630  -10.7750 C.3    77  DT77        0.1558
   1567  O3'        4.3750   29.1710  -11.6020 O.3    77  DT77       -0.3138
   1568  C2'        6.7620   28.9780  -11.5590 C.3    77  DT77        0.0866
   1569  C1'        7.7740   29.1230  -10.4300 C.3    77  DT77        0.2106
   1570  N1         8.3570   27.8890   -9.9650 N.ar   77  DT77       -0.2559
   1571  C2         9.5250   27.4800  -10.5800 C.ar   77  DT77        0.3545
   1572  O2        10.0630   28.1130  -11.4720 O.2    77  DT77       -0.2443
   1573  N3        10.0450   26.2980  -10.1120 N.ar   77  DT77       -0.1533
   1574  C4         9.5260   25.5000   -9.1140 C.ar   77  DT77        0.2804
   1575  O4        10.1090   24.4650   -8.8020 O.2    77  DT77       -0.2654
   1576  C5         8.3120   25.9910   -8.5260 C.ar   77  DT77        0.0534
   1577  C6         7.7840   27.1380   -8.9610 C.ar   77  DT77        0.0824
   1578  C7         7.6680   25.1930   -7.4310 C.3    77  DT77        0.0377
   1579  P          3.3960   28.0140  -12.4080 P.3    78  DG78        0.2141
   1580  OP1        2.2270   28.6900  -13.0190 O.2    78  DG78       -0.5172
   1581  OP2        3.1900   26.7910  -11.5870 O.3    78  DG78       -0.4373
   1582  O5'        4.4720   27.6240  -13.5210 O.3    78  DG78       -0.3114
   1583  C5'        4.8440   28.5530  -14.5310 C.3    78  DG78        0.1811
   1584  C4'        6.1210   28.1180  -15.2120 C.3    78  DG78        0.1746
   1585  O4'        7.1150   27.8460  -14.2000 O.3    78  DG78       -0.3327
   1586  C3'        6.1260   26.8620  -16.0710 C.3    78  DG78        0.1558
   1587  O3'        5.6990   27.0990  -17.4070 O.3    78  DG78       -0.3138
   1588  C2'        7.5980   26.5020  -16.1000 C.3    78  DG78        0.0865
   1589  C1'        8.0510   26.9160  -14.7030 C.3    78  DG78        0.2094
   1590  N9         8.3900   25.8910  -13.8260 N.ar   78  DG78       -0.2713
   1591  C8         7.6520   25.6130  -12.7010 C.ar   78  DG78        0.1816
   1592  N7         8.1460   24.6380  -11.9880 N.ar   78  DG78       -0.2173
   1593  C5         9.2780   24.2470  -12.6780 C.ar   78  DG78        0.1748
   1594  C6        10.2280   23.2320  -12.3950 C.ar   78  DG78        0.3023
   1595  O6        10.2510   22.4510  -11.4360 O.2    78  DG78       -0.2633
   1596  N1        11.2270   23.1700  -13.3620 N.ar   78  DG78       -0.1709
   1597  C2        11.3020   23.9860  -14.4660 C.ar   78  DG78        0.2606
   1598  N2        12.3410   23.7760  -15.2860 N.pl3  78  DG78       -0.0859
   1599  N3        10.4270   24.9320  -14.7430 N.ar   78  DG78       -0.1918
   1600  C4         9.4470   25.0100  -13.8180 C.ar   78  DG78        0.1722
   1601  P          5.5910   25.8470  -18.3760 P.3    79  DA79        0.2141
   1602  OP1        5.2600   26.1630  -19.7810 O.2    79  DA79       -0.5172
   1603  OP2        4.5590   25.2500  -17.5000 O.3    79  DA79       -0.4373
   1604  O5'        6.8430   24.8680  -18.3660 O.3    79  DA79       -0.3113
   1605  C5'        7.9980   25.1300  -19.1800 C.3    79  DA79        0.1838
   1606  C4'        8.9090   23.9290  -19.1720 C.3    79  DA79        0.2038
   1607  O4'        9.3940   23.7090  -17.8200 O.3    79  DA79       -0.3299
   1608  C3'        8.2080   22.6280  -19.5130 C.3    79  DA79        0.2810
   1609  O3'        8.0660   22.4630  -20.9150 O.3    79  DA79       -0.1894
   1610  C2'        9.1070   21.5910  -18.8520 C.3    79  DA79        0.1185
   1611  C1'        9.4830   22.3180  -17.5650 C.3    79  DA79        0.2122
   1612  N9         8.6490   22.0280  -16.3820 N.ar   79  DA79       -0.2714
   1613  C8         7.4860   22.5820  -15.9140 C.ar   79  DA79        0.1815
   1614  N7         6.9180   21.8880  -14.9560 N.ar   79  DA79       -0.2193
   1615  C5         7.7660   20.8050  -14.7840 C.ar   79  DA79        0.1518
   1616  C6         7.7240   19.7000  -13.9160 C.ar   79  DA79        0.1919
   1617  N6         6.7530   19.4990  -13.0210 N.pl3  79  DA79       -0.1054
   1618  N1         8.7250   18.7980  -14.0000 N.ar   79  DA79       -0.2040
   1619  C2         9.6980   19.0010  -14.8970 C.ar   79  DA79        0.2016
   1620  N3         9.8460   19.9990  -15.7650 N.ar   79  DA79       -0.2048
   1621  C4         8.8350   20.8770  -15.6560 C.ar   79  DA79        0.1691
   1622  P          6.5820   21.6670  -21.1530 P.3    80  DA80        0.2954
   1623  OP1        5.3950   20.9250  -20.6510 O.3    80  DA80       -0.1680
   1624  OP2        7.3020   22.6050  -20.2480 O.3    80  DA80       -0.1894
   1625  O5'        7.6520   20.6320  -21.7260 O.3    80  DA80       -0.3089
   1626  C5'        8.1300   19.5770  -20.9070 C.3    80  DA80        0.1810
   1627  C4'        8.7740   18.4960  -21.7420 C.3    80  DA80        0.1753
   1628  O4'       10.1260   18.8970  -22.1050 O.3    80  DA80       -0.3510
   1629  C3'        8.9620   17.2080  -20.9580 C.3    80  DA80        0.1839
   1630  O3'        7.7840   16.4150  -20.9870 O.3    80  DA80       -0.2204
   1631  C2'       10.1720   16.5710  -21.6270 C.3    80  DA80        0.0676
   1632  C1'       11.0200   17.8060  -21.9350 C.3    80  DA80        0.1450
   1633  N9         8.3770   17.8000  -18.4450 N.ar   80  DA80       -0.2032
   1634  C8         7.3360   18.6770  -18.2860 C.ar   80  DA80        0.2005
   1635  N7         6.8550   18.7110  -17.0660 N.ar   80  DA80       -0.2179
   1636  C5         7.6310   17.7920  -16.3780 C.ar   80  DA80        0.1534
   1637  C6         7.6250   17.3630  -15.0390 C.ar   80  DA80        0.1919
   1638  N6         6.7750   17.8250  -14.1180 N.pl3  80  DA80       -0.1054
   1639  N1         8.5320   16.4320  -14.6750 N.ar   80  DA80       -0.2040
   1640  C2         9.3840   15.9700  -15.5980 C.ar   80  DA80        0.2016
   1641  N3         9.4880   16.2960  -16.8840 N.ar   80  DA80       -0.2031
   1642  C4         8.5720   17.2220  -17.2140 C.ar   80  DA80        0.1862
@<TRIPOS>BOND
     1  1628  1632    1
     2  1628  1627    1
     3  1632  1631    1
     4  1627  1629    1
     5  1627  1626    1
     6  1625  1622    1
     7  1625  1626    1
     8  1631  1629    1
     9  1622  1623    1
    10  1630  1629    1
    11  1609  1624    1
    12  1609  1608    1
    13  1624  1608    1
    14  1602  1601    2
    15  1608  1606    1
    16  1608  1610    1
    17  1605  1606    1
    18  1605  1604    1
    19  1606  1607    1
    20  1610  1611    1
    21  1633  1634   ar
    22  1633  1642   ar
    23  1601  1604    1
    24  1601  1603    1
    25  1601  1587    1
    26  1634  1635   ar
    27  1607  1611    1
    28  1611  1612    1
    29  1587  1586    1
    30  1642  1641   ar
    31  1642  1636   ar
    32  1635  1636   ar
    33  1641  1640   ar
    34  1380  1381    1
    35  1380  1379    1
    36  1380  1382    1
    37  1353  1352    1
    38  1612  1613   ar
    39  1612  1621   ar
    40  1636  1637   ar
    41  1383  1382    1
    42  1383  1397    1
    43  1398  1397    2
    44  1381  1385    1
    45  1379  1378    1
    46  1588  1586    1
    47  1588  1589    1
    48  1586  1584    1
    49  1384  1385    1
    50  1384  1382    1
    51  1613  1614   ar
    52  1401  1402    1
    53  1401  1400    1
    54  1385  1386    1
    55  1365  1366    1
    56  1365  1363    1
    57  1620  1621   ar
    58  1620  1619   ar
    59  1621  1615   ar
    60  1366  1362    1
    61  1366  1367    1
    62  1640  1639   ar
    63  1369  1368    2
    64  1362  1361    1
    65  1361  1363    1
    66  1361  1360    1
    67  1364  1363    1
    68  1364  1375    1
    69  1397  1400    1
    70  1397  1399    1
    71  1352  1354   ar
    72  1352  1351   ar
    73  1598  1597    1
    74  1584  1583    1
    75  1584  1585    1
    76  1402  1403    1
    77  1402  1404    1
    78  1637  1639   ar
    79  1637  1638    1
    80  1614  1615   ar
    81  1354  1355   ar
    82  1619  1618   ar
    83  1378  1375    1
    84  1403  1407    1
    85  1615  1616   ar
    86  1599  1597   ar
    87  1599  1600   ar
    88  1589  1585    1
    89  1589  1590    1
    90  1376  1375    2
    91  1351  1349   ar
    92  1360  1359    1
    93  1368  1367   ar
    94  1368  1370   ar
    95  1583  1582    1
    96  1367  1374   ar
    97  1597  1596   ar
    98  1386  1396   ar
    99  1386  1387   ar
   100  1375  1377    1
   101  1395  1396   ar
   102  1395  1393   ar
   103  1618  1616   ar
   104  1616  1617    1
   105  1343  1344    1
   106  1343  1341    1
   107  1590  1600   ar
   108  1590  1591   ar
   109  1600  1593   ar
   110  1394  1393    1
   111  1396  1389   ar
   112  1355  1345   ar
   113  1355  1348   ar
   114  1404  1405    1
   115  1404  1406    1
   116  1405  1417    1
   117  1407  1406    1
   118  1407  1408    1
   119  1387  1388   ar
   120  1582  1579    1
   121  1393  1392   ar
   122  1370  1371   ar
   123  1344  1345    1
   124  1344  1340    1
   125  1133  1132    2
   126  1374  1373   ar
   127  1596  1594   ar
   128  1349  1348   ar
   129  1349  1350    2
   130  1359  1356    1
   131  1345  1346   ar
   132  1580  1579    2
   133  1327  1326    2
   134  1415  1408   ar
   135  1415  1414   ar
   136  1348  1347   ar
   137  1310  1311   ar
   138  1310  1308   ar
   139  1342  1341    1
   140  1342  1356    1
   141  1591  1592   ar
   142  1408  1409   ar
   143  1593  1594   ar
   144  1593  1592   ar
   145  1389  1388   ar
   146  1389  1390   ar
   147  1341  1339    1
   148  1155  1154    2
   149  1311  1312   ar
   150  1309  1308    1
   151  1418  1417    2
   152  1416  1414    1
   153  1579  1567    1
   154  1579  1581    1
   155  1594  1595    2
   156  1371  1373   ar
   157  1371  1372    1
   158  1340  1339    1
   159  1356  1357    2
   160  1356  1358    1
   161  1392  1390   ar
   162  1414  1412   ar
   163  1417  1419    1
   164  1417  1420    1
   165  1328  1326   ar
   166  1328  1329   ar
   167  1308  1307   ar
   168  1132  1119    1
   169  1132  1135    1
   170  1132  1134    1
   171  1119  1118    1
   172  1326  1325   ar
   173  1339  1338    1
   174  1346  1347   ar
   175  1136  1135    1
   176  1136  1137    1
   177  1390  1391    2
   178  1567  1566    1
   179  1409  1410    2
   180  1409  1411   ar
   181  1568  1566    1
   182  1568  1569    1
   183  1421  1420    1
   184  1421  1422    1
   185  1572  1571    2
   186     4     3    1
   187     4     8    1
   188  1312  1313   ar
   189  1140  1154    1
   190  1140  1139    1
   191     3     2    1
   192     3     5    1
   193  1330  1329    2
   194     8     7    1
   195     8     9    1
   196  1154  1156    1
   197  1154  1157    1
   198     7     5    1
   199  1329  1331   ar
   200  1412  1411   ar
   201  1412  1413    2
   202  1307  1313   ar
   203  1307  1306   ar
   204  1137  1139    1
   205  1137  1138    1
   206  1116  1115    1
   207  1116  1118    1
   208  1116  1117    1
   209  1115  1114    1
   210  1325  1324    1
   211  1325  1332   ar
   212     6     5    1
   213     6    19    1
   214  1566  1564    1
   215  1118  1120    1
   216  1167  1166   ar
   217  1167  1168   ar
   218     2     1    1
   219  1313  1304   ar
   220  1324  1323    1
   221  1324  1320    1
   222  1571  1573   ar
   223  1571  1570   ar
   224  1423  1422    1
   225  1423  1427    1
   226    20    19    2
   227  1157  1158    1
   228  1422  1424    1
   229  1112  1111    2
   230  1338  1337    1
   231  1569  1570    1
   232  1569  1565    1
   233  1166  1165   ar
   234  1170  1169    1
   235  1139  1141    1
   236  1120  1121    1
   237  1323  1321    1
   238  1573  1574   ar
   239     9    18   ar
   240     9    10   ar
   241  1306  1305   ar
   242  1570  1577   ar
   243    17    18   ar
   244    17    16   ar
   245  1331  1332   ar
   246  1331  1333    1
   247    22    19    1
   248    22    23    1
   249  1168  1169   ar
   250  1168  1174   ar
   251  1556  1555    1
   252  1117  1121    1
   253  1337  1334    1
   254    19    21    1
   255  1138  1142    1
   256  1320  1319    1
   257  1564  1565    1
   258  1564  1563    1
   259  1114  1111    1
   260  1169  1171   ar
   261  1304  1305   ar
   262  1304  1303    1
   263    18    12   ar
   264  1160  1164    1
   265  1160  1159    1
   266  1429  1428   ar
   267  1429  1430   ar
   268    10    11   ar
   269  1121  1122    1
   270  1165  1174   ar
   271  1165  1164    1
   272  1427  1428    1
   273  1427  1426    1
   274  1111  1097    1
   275  1111  1113    1
   276  1554  1555   ar
   277  1554  1552   ar
   278  1141  1142    1
   279  1097  1096    1
   280  1158  1159    1
   281  1574  1575    2
   282  1574  1576   ar
   283    16    15   ar
   284    23    24    1
   285  1424  1425    1
   286  1424  1426    1
   287  1322  1321    1
   288  1322  1334    1
   289  1555  1557   ar
   290  1577  1576   ar
   291  1303  1302    1
   292  1303  1299    1
   293  1321  1319    1
   294  1174  1173   ar
   295  1553  1552    2
   296  1428  1438   ar
   297  1164  1163    1
   298  1430  1431   ar
   299  1425  1439    1
   300    24    25    1
   301    24    26    1
   302  1319  1318    1
   303  1334  1336    2
   304  1334  1335    1
   305  1142  1143    1
   306  1171  1172   ar
   307  1576  1578    1
   308  1552  1551   ar
   309  1159  1161    1
   310    25    29    1
   311    12    11   ar
   312    12    13   ar
   313  1563  1562    1
   314  1302  1300    1
   315  1098  1096    1
   316  1098  1099    1
   317   704   703    2
   318    15    13   ar
   319  1557  1558   ar
   320  1096  1094    1
   321  1122  1123   ar
   322  1122  1131   ar
   323  1562  1559    1
   324  1299  1298    1
   325  1173  1172   ar
   326  1438  1431   ar
   327  1438  1437   ar
   328  1431  1432   ar
   329    13    14    1
   330  1094  1093    1
   331  1094  1095    1
   332  1474  1473    2
   333  1144  1143   ar
   334  1144  1145   ar
   335  1143  1153   ar
   336  1551  1558   ar
   337  1551  1550   ar
   338  1259  1260    1
   339  1259  1258    1
   340  1259  1261    1
   341    27    26    1
   342    27    41    1
   343  1260  1264    1
   344  1441  1439    2
   345    29    28    1
   346    29    30    1
   347  1123  1124   ar
   348    26    28    1
   349  1558  1548   ar
   350  1191  1210    1
   351  1191  1190    1
   352  1318  1317    1
   353  1262  1261    1
   354  1262  1273    1
   355  1263  1264    1
   356  1263  1261    1
   357  1161  1163    1
   358  1161  1162    1
   359  1439  1440    1
   360  1439  1442    1
   361  1277  1278    1
   362  1277  1276    1
   363  1274  1273    2
   364  1130  1131   ar
   365  1130  1129   ar
   366   690   703    1
   367   690   689    1
   368  1099  1095    1
   369  1099  1100    1
   370  1437  1435   ar
   371  1093  1092    1
   372  1264  1265    1
   373    42    41    2
   374  1131  1125   ar
   375  1210  1190    1
   376  1210  1209    1
   377  1210  1189    1
   378  1258  1257    1
   379  1317  1314    1
   380   703   706    1
   381   703   705    1
   382  1300  1298    1
   383  1300  1301    1
   384   707   706    1
   385   707   708    1
   386  1432  1433    2
   387  1432  1434   ar
   388  1108  1107    1
   389  1278  1279    1
   390  1278  1280    1
   391  1550  1549   ar
   392  1473  1472   ar
   393  1473  1475   ar
   394  1298  1297    1
   395  1109  1107   ar
   396  1109  1110   ar
   397  1559  1561    2
   398  1559  1560    1
   399  1559  1545    1
   400  1190  1192    1
   401  1190  1189    1
   402  1145  1146   ar
   403    41    43    1
   404    41    44    1
   405  1248  1247    2
   406  1548  1549   ar
   407  1548  1547    1
   408  1273  1276    1
   409  1273  1275    1
   410  1546  1544    1
   411  1546  1547    1
   412   687   686    1
   413   687   689    1
   414   687   688    1
   415  1211  1209    1
   416  1211  1212    1
   417  1477  1475    1
   418    31    30   ar
   419    31    32   ar
   420  1192  1193    2
   421  1153  1152   ar
   422  1153  1146   ar
   423  1435  1434   ar
   424  1435  1436    1
   425    30    40   ar
   426  1279  1283    1
   427  1472  1470   ar
   428  1124  1125   ar
   429  1162  1175    1
   430  1107  1106   ar
   431   478   477    2
   432   686   685    1
   433  1281  1280    1
   434  1281  1293    1
   435  1296  1297    1
   436  1296  1293    1
   437  1129  1128   ar
   438  1209  1189    1
   439  1209  1208    1
   440  1189  1187    1
   441  1301  1314    1
   442   724   723    2
   443   689   691    1
   444  1267  1266    2
   445  1177  1175    2
   446  1125  1126   ar
   447  1100  1110   ar
   448  1100  1101   ar
   449  1442  1443    1
   450  1244  1245    1
   451  1244  1242    1
   452   708   710    1
   453   708   709    1
   454  1475  1476   ar
   455  1092  1089    1
   456  1545  1544    1
   457  1152  1150   ar
   458  1110  1103   ar
   459   711   723    1
   460   711   710    1
   461  1090  1089    2
   462  1295  1293    2
   463   691   692    1
   464  1544  1542    1
   465  1265  1266   ar
   466  1265  1272   ar
   467  1146  1147   ar
   468  1245  1241    1
   469  1245  1246    1
   470  1547  1543    1
   471  1280  1282    1
   472  1257  1254    1
   473  1086  1085    1
   474  1314  1316    2
   475  1314  1315    1
   476  1443  1444    1
   477  1255  1254    2
   478   926   925    2
   479  1193  1186    1
   480   688   692    1
   481  1456  1457   ar
   482  1456  1454   ar
   483  1212  1213    2
   484   464   477    1
   485   464   463    1
   486    32    33   ar
   487   481   482    1
   488   481   480    1
   489  1455  1454    1
   490    44    45    1
   491  1247  1246   ar
   492  1247  1249   ar
   493    45    46    1
   494  1266  1268   ar
   495  1175  1178    1
   496  1175  1176    1
   497  1187  1186   am
   498  1187  1188    2
   499   723   725    1
   500   723   726    1
   501   683   682    2
   502  1283  1282    1
   503  1283  1284    1
   504  1470  1471    2
   505  1470  1469   ar
   506    40    39    1
   507    40    33   ar
   508  1243  1254    1
   509  1243  1242    1
   510   710   712    1
   511  1241  1240    1
   512  1293  1294    1
   513  1534  1533    1
   514   709   713    1
   515  1128  1126   ar
   516   461   463    1
   517   461   460    1
   518   461   462    1
   519   692   693    1
   520   477   480    1
   521   477   479    1
   522  1106  1104   ar
   523  1089  1075    1
   524  1089  1091    1
   525   685   682    1
   526  1240  1242    1
   527  1240  1239    1
   528  1186  1185    1
   529  1457  1450   ar
   530  1454  1453   ar
   531  1254  1256    1
   532  1126  1127    1
   533  1101  1102   ar
   534  1272  1271   ar
   535  1476  1469   ar
   536  1228  1227    2
   537  1246  1253   ar
   538   271   270    2
   539  1208  1207   ar
   540  1208  1214   ar
   541   929   930    1
   542   929   928    1
   543   465   463    1
   544   465   466    1
   545    39    37    1
   546   498   497    2
   547   482   483    1
   548   482   484    1
   549   914   925    1
   550   914   913    1
   551   670   682    1
   552   670   669    1
   553    33    34    1
   554  1103  1104   ar
   555  1103  1102   ar
   556  1445  1444    1
   557  1445  1449    1
   558  1150  1151    1
   559  1150  1149   ar
   560   460   459    1
   561   925   928    1
   562   925   927    1
   563  1085  1087   ar
   564  1085  1084   ar
   565  1249  1250   ar
   566   462   466    1
   567  1469  1468    1
   568  1178  1179    1
   569  1543  1542    1
   570   682   684    1
   571   485   497    1
   572   485   484    1
   573  1444  1446    1
   574  1532  1533   ar
   575  1532  1530   ar
   576  1147  1149   ar
   577  1147  1148    2
   578  1542  1541    1
   579  1181  1185    1
   580  1181  1180    1
   581   466   467    1
   582  1087  1088   ar
   583   945   944    2
   584  1284  1291   ar
   585  1284  1285   ar
   586  1207  1206   ar
   587  1533  1535   ar
   588   930   931    1
   589   930   932    1
   590  1075  1074    1
   591  1104  1105    2
   592  1213  1214    1
   593    46    47    1
   594    46    48    1
   595  1076  1074    1
   596  1076  1077    1
   597  1450  1451   ar
   598  1450  1449    1
   599  1453  1451   ar
   600  1268  1269   ar
   601   712   713    1
   602  1185  1184    1
   603  1291  1290   ar
   604   671   669    1
   605   671   672    1
   606   483   487    1
   607   911   910    1
   608   911   913    1
   609   911   912    1
   610    47    51    1
   611  1214  1205   ar
   612   933   944    1
   613   933   932    1
   614   713   714    1
   615  1239  1238    1
   616   726   727    1
   617  1540  1541    1
   618  1540  1537    1
   619  1227  1229   ar
   620  1227  1226   ar
   621  1179  1180    1
   622   497   499    1
   623   497   500    1
   624  1084  1082   ar
   625   484   486    1
   626   910   909    1
   627  1271  1269   ar
   628  1539  1537    2
   629  1531  1530    2
   630   727   728    1
   631  1451  1452    2
   632    37    38    1
   633    37    36    1
   634    37  1064    1
   635   669   667    1
   636   913   915    1
   637   693   694   ar
   638   693   702   ar
   639   256   270    1
   640   256   255    1
   641  1286  1285    2
   642  1229  1230   ar
   643  1530  1529   ar
   644   915   916    1
   645  1253  1252   ar
   646  1449  1448    1
   647  1464  1468    1
   648  1464  1463    1
   649    34    36   am
   650    34    35    2
   651   667   668    1
   652   667   666    1
   653   274   273    1
   654   274   275    1
   655   931   935    1
   656   291   290    2
   657  1285  1287   ar
   658  1468  1467    1
   659   270   273    1
   660   270   272    1
   661   457   456    2
   662   453   452    1
   663  1446  1447    1
   664  1446  1448    1
   665  1269  1270    1
   666  1074  1072    1
   667  1250  1252   ar
   668  1250  1251    1
   669  1224  1225    1
   670  1224  1222    1
   671  1180  1182    1
   672   944   946    1
   673   944   947    1
   674   443   444    1
   675   443   441    1
   676   932   934    1
   677   459   456    1
   678  1077  1078    1
   679  1077  1073    1
   680  1535  1536   ar
   681  1088  1078   ar
   682  1088  1081   ar
   683  1460  1458    2
   684   701   702   ar
   685   701   700   ar
   686   721   714   ar
   687   721   720   ar
   688    59    58   ar
   689    59    52   ar
   690   912   916    1
   691   672   668    1
   692   672   673    1
   693   442   456    1
   694   442   441    1
   695  1206  1205   ar
   696  1290  1292    1
   697  1290  1288   ar
   698   486   487    1
   699  1537  1538    1
   700  1537  1526    1
   701   487   488    1
   702    48    49    1
   703    48    50    1
   704   467   476   ar
   705   467   468   ar
   706  1461  1462    1
   707  1461  1458    1
   708  1225  1226    1
   709  1225  1221    1
   710   253   252    1
   711   253   255    1
   712   253   254    1
   713   252   251    1
   714   694   695   ar
   715   475   476   ar
   716   475   474   ar
   717   444   440    1
   718   444   445    1
   719   916   917    1
   720   714   715   ar
   721    58    56   ar
   722   702   696   ar
   723   454   452   ar
   724   454   455   ar
   725  1226  1233   ar
   726  1238  1235    1
   727    49    60    1
   728  1205  1204    1
   729  1447  1458    1
   730   501   500    1
   731   501   502    1
   732   666   665    1
   733  1184  1182    1
   734   456   458    1
   735    51    52    1
   736    51    50    1
   737  1082  1081   ar
   738  1082  1083    2
   739  1072  1073    1
   740  1072  1071    1
   741   907   906    2
   742   948   947    1
   743   948   949    1
   744   934   935    1
   745  1078  1079   ar
   746  1182  1183    1
   747   439   441    1
   748   439   440    1
   749   439   438    1
   750   255   257    1
   751  1529  1536   ar
   752  1529  1528    1
   753   909   906    1
   754   675   674    2
   755   722   720    1
   756   452   451   ar
   757  1527  1525    1
   758  1527  1528    1
   759  1230  1231    2
   760  1230  1232   ar
   761   275   277    1
   762   275   276    1
   763   935   936    1
   764    62    60    2
   765  1287  1288   ar
   766   278   290    1
   767   278   277    1
   768   728   729    1
   769   728   730    1
   770   290   292    1
   771   290   293    1
   772   476   470   ar
   773  1081  1080   ar
   774   249   248    2
   775  1463  1462    1
   776  1463  1465    1
   777    52    53   ar
   778  1467  1465    1
   779  1458  1459    1
   780   720   718   ar
   781  1288  1289    2
   782   895   906    1
   783   895   894    1
   784   700   699   ar
   785  1064  1063    2
   786   742   740    1
   787   257   258    1
   788   474   473   ar
   789    61    60    1
   790   254   258    1
   791   468   469   ar
   792  1222  1223    1
   793  1222  1220    1
   794   729   733    1
   795    60    63    1
   796  1223  1235    1
   797  1500  1499    2
   798   906   908    1
   799   488   495   ar
   800   488   489   ar
   801   445   455   ar
   802   445   446   ar
   803   455   448   ar
   804   673   674   ar
   805   673   680   ar
   806  1525  1526    1
   807  1525  1523    1
   808  1528  1524    1
   809   277   279    1
   810   495   494   ar
   811  1221  1220    1
   812   919   918    2
   813   695   696   ar
   814    56    57    1
   815    56    55   ar
   816  1233  1232   ar
   817   674   676   ar
   818   715   716    2
   819   715   717   ar
   820   251   248    1
   821   696   697   ar
   822   665   662    1
   823   517   516    2
   824   438   437    1
   825  1204  1200    1
   826  1204  1203    1
   827   917   918   ar
   828   917   924   ar
   829   276   280    1
   830  1196  1194    2
   831   502   503    1
   832   502   504    1
   833  1235  1236    2
   834  1235  1237    1
   835  1232  1234    1
   836  1079  1080   ar
   837   949   950    1
   838   949   951    1
   839   896   894    1
   840   896   897    1
   841   258   259    1
   842  1465  1466    1
   843  1071  1070    1
   844   234   248    1
   845   234   233    1
   846   964   963    2
   847   730   731    1
   848   730   732    1
   849  1220  1219    1
   850  1183  1194    1
   851   451   449   ar
   852   248   250    1
   853   428   427    2
   854   741   740   ar
   855   741   734   ar
   856   235   236    1
   857   235   233    1
   858  1062  1063    2
   859  1062  1060    1
   860   731   743    1
   861   936   943   ar
   862   936   937   ar
   863   894   892    1
   864   943   942   ar
   865   965   963    1
   866   293   294    1
   867    53    55   ar
   868    53    54    2
   869   518   516    1
   870  1063  1065    1
   871   892   893    1
   872   892   891    1
   873   470   469   ar
   874   470   471   ar
   875   294   295    1
   876   740   738   ar
   877   245   244    1
   878   663   662    2
   879   918   920   ar
   880  1466  1478    1
   881   952   963    1
   882   952   951    1
   883   718   717   ar
   884   718   719    2
   885   699   697   ar
   886   745   743    2
   887   516   505    1
   888   516   519    1
   889  1200  1199    1
   890   503   507    1
   891   505   504    1
   892   963   966    1
   893   897   893    1
   894   897   898    1
   895   680   679   ar
   896  1499  1501    1
   897  1499  1486    1
   898  1499  1502    1
   899   490   489    2
   900   473   471   ar
   901  1203  1201    1
   902   924   923   ar
   903   489   491   ar
   904   744   743    1
   905   231   233    1
   906   231   232    1
   907   231   230    1
   908   950   954    1
   909   236   232    1
   910   236   237    1
   911   494   496    1
   912   494   492   ar
   913   733   734    1
   914   733   732    1
   915   900   899    2
   916   697   698    1
   917  1524  1523    1
   918   446   447   ar
   919   504   506    1
   920   448   449   ar
   921   448   447   ar
   922   951   953    1
   923  1070  1067    1
   924  1061  1060    2
   925    63    64    1
   926  1194  1197    1
   927  1194  1195    1
   928   279   280    1
   929  1523  1522    1
   930  1197  1198    1
   931   246   244   ar
   932   246   247   ar
   933   662   650    1
   934   662   664    1
   935   676   677   ar
   936   743   746    1
   937  1486  1485    1
   938  1060  1059    1
   939   734   735   ar
   940   437   434    1
   941   280   281    1
   942   891   890    1
   943   424   425    1
   944   424   422    1
   945   471   472    1
   946   449   450    2
   947   655   654    2
   948   938   937    2
   949   427   429   ar
   950   427   426   ar
   951  1065  1066    1
   952   244   243   ar
   953   259   260   ar
   954   259   269   ar
   955   937   939   ar
   956   942   940   ar
   957  1482  1483    1
   958  1482  1481    1
   959   425   426    1
   960   425   421    1
   961  1201  1199    1
   962  1201  1202    1
   963  1522  1521    1
   964  1219  1218    1
   965   288   281   ar
   966   288   287   ar
   967   651   652    1
   968   651   649    1
   969  1520  1518    1
   970   515   514   ar
   971   515   508   ar
   972   230   229    1
   973   738   739    2
   974   738   737   ar
   975   650   649    1
   976   920   921   ar
   977   429   430   ar
   978  1199  1198    1
   979    64    65    1
   980   295   296    1
   981   295   297    1
   982   412   411    1
   983   491   492   ar
   984   679   677   ar
   985   679   681    1
   986   268   269   ar
   987   268   266   ar
   988   899   898   ar
   989   899   901   ar
   990   898   905   ar
   991   289   287    1
   992  1480  1478    2
   993  1502  1503    1
   994   310   309    2
   995   762   760    1
   996   492   493    2
   997   507   506    1
   998   507   508    1
   999   237   247   ar
  1000   237   238   ar
  1001   923   921   ar
  1002  1478  1481    1
  1003  1478  1479    1
  1004   247   240   ar
  1005   281   282   ar
  1006  1503  1504    1
  1007   677   678    2
  1008   954   953    1
  1009   954   955    1
  1010   260   261   ar
  1011   298   309    1
  1012   298   297    1
  1013   519   520    1
  1014  1483  1485    1
  1015  1483  1484    1
  1016    73    72   ar
  1017    73    74   ar
  1018  1068  1067    2
  1019  1218  1215    1
  1020   426   433   ar
  1021   966   967    1
  1022   269   262   ar
  1023  1059  1066   ar
  1024  1059  1058   ar
  1025   423   434    1
  1026   423   422    1
  1027  1066  1056   ar
  1028  1485  1487    1
  1029   514   512   ar
  1030   311   309    1
  1031   435   434    2
  1032  1067  1069    1
  1033  1067  1053    1
  1034   508   509   ar
  1035    72    71   ar
  1036   962   955   ar
  1037   962   961   ar
  1038   434   436    1
  1039   890   887    1
  1040   735   737   ar
  1041   735   736    2
  1042   287   285   ar
  1043   652   653    1
  1044   652   648    1
  1045   654   653   ar
  1046   654   656   ar
  1047   422   420    1
  1048   223   224   ar
  1049   223   222   ar
  1050   649   647    1
  1051   421   420    1
  1052   296   300    1
  1053   309   312    1
  1054   224   225   ar
  1055   297   299    1
  1056   939   940   ar
  1057   921   922    1
  1058   940   941    1
  1059   982   980    1
  1060   243   241   ar
  1061   746   747    1
  1062   520   521    1
  1063  1521  1518    1
  1064   535   533    1
  1065  1518  1519    1
  1066   267   266    1
  1067  1202  1215    1
  1068   967   968    1
  1069    66    65    1
  1070    66    70    1
  1071   410   411   ar
  1072   410   408   ar
  1073   266   265   ar
  1074   420   419    1
  1075   955   956   ar
  1076   884   885   ar
  1077   884   883   ar
  1078  1054  1052    1
  1079  1054  1055    1
  1080    76    75    1
  1081  1039  1038    2
  1082   411   413   ar
  1083   308   307   ar
  1084   308   301   ar
  1085   229   226    1
  1086   901   902   ar
  1087   905   904   ar
  1088   885   886   ar
  1089   430   431    1
  1090   430   432   ar
  1091    65    67    1
  1092   653   660   ar
  1093   647   648    1
  1094   647   646    1
  1095   961   959   ar
  1096   656   657   ar
  1097   537   536    2
  1098  1053  1052    1
  1099   307   305   ar
  1100    74    75   ar
  1101    74    80   ar
  1102   238   239   ar
  1103   875   873    1
  1104   875   876    1
  1105  1040  1038   ar
  1106  1040  1041   ar
  1107   202   201    1
  1108   760   761   ar
  1109   760   758   ar
  1110   214   215    1
  1111   214   212    1
  1112  1215  1217    2
  1113  1215  1216    1
  1114  1507  1506    1
  1115  1507  1519    1
  1116   215   211    1
  1117   215   216    1
  1118   261   262   ar
  1119   240   241   ar
  1120   240   239   ar
  1121  1058  1057   ar
  1122   282   283    2
  1123   282   284   ar
  1124   262   263   ar
  1125   222   220   ar
  1126  1504  1506    1
  1127  1504  1505    1
  1128  1056  1055    1
  1129  1056  1057   ar
  1130  1487  1488    1
  1131   433   432   ar
  1132  1484  1488    1
  1133   874   887    1
  1134   874   873    1
  1135  1042  1041    1
  1136   747   748    1
  1137   888   887    2
  1138    71    70    1
  1139    71    80   ar
  1140   759   758    2
  1141  1052  1050    1
  1142    75    77   ar
  1143   887   889    1
  1144  1038  1037   ar
  1145   512   513    1
  1146   512   511   ar
  1147   241   242    2
  1148   509   510    2
  1149   509   511   ar
  1150  1506  1508    1
  1151   409   408    2
  1152  1055  1051    1
  1153   225   216   ar
  1154   225   219   ar
  1155   538   536    1
  1156   285   284   ar
  1157   285   286    2
  1158   300   299    1
  1159   300   301    1
  1160   211   210    1
  1161  1002  1000    1
  1162   883   881   ar
  1163   639   638   ar
  1164   639   640   ar
  1165   761   754   ar
  1166    70    69    1
  1167   213   226    1
  1168   213   212    1
  1169   408   407   ar
  1170   758   757   ar
  1171   227   226    2
  1172   980   981   ar
  1173   980   978   ar
  1174  1041  1043   ar
  1175   413   414   ar
  1176   301   302   ar
  1177   533   534   ar
  1178   533   531   ar
  1179   312   313    1
  1180    80    79   ar
  1181   536   524    1
  1182   536   539    1
  1183    67    68    1
  1184    67    69    1
  1185   265   263   ar
  1186   521   523    1
  1187   521   522    1
  1188   902   904   ar
  1189   902   903    1
  1190  1019  1018    2
  1191   999   998    2
  1192   873   871    1
  1193   638   636   ar
  1194   226   228    1
  1195   216   217   ar
  1196   956   957    2
  1197   956   958   ar
  1198   210   212    1
  1199   210   209    1
  1200   981   974   ar
  1201   876   877    1
  1202   876   872    1
  1203   968   969    1
  1204   968   970    1
  1205   886   877   ar
  1206   886   880   ar
  1207   985   983    2
  1208  1488  1489    1
  1209   534   527   ar
  1210   419   418    1
  1211   660   659   ar
  1212  1505  1509    1
  1213    83    81    2
  1214   657   658    2
  1215   657   659   ar
  1216   646   645    1
  1217   640   641   ar
  1218   263   264    2
  1219   305   306    1
  1220   305   304   ar
  1221   969   973    1
  1222   201   200   ar
  1223   201   203   ar
  1224   959   958   ar
  1225   959   960    1
  1226   524   523    1
  1227   523   525    1
  1228   522   526    1
  1229   220   219   ar
  1230   220   221    1
  1231   749   748    1
  1232   749   753    1
  1233  1517  1516   ar
  1234  1517  1510   ar
  1235   200   198   ar
  1236    77    78   ar
  1237   877   878   ar
  1238   748   750    1
  1239    68    81    1
  1240   313   314    1
  1241   219   218   ar
  1242   979   978    2
  1243  1037  1044   ar
  1244  1037  1036   ar
  1245  1516  1514   ar
  1246   532   531    2
  1247   659   661    1
  1248   978   977   ar
  1249  1050  1051    1
  1250  1050  1049    1
  1251  1022  1020    1
  1252   414   407   ar
  1253   414   404   ar
  1254  1000   998   ar
  1255  1000  1001   ar
  1256   754   753    1
  1257   754   755   ar
  1258   407   406   ar
  1259   418   415    1
  1260   881   880   ar
  1261   881   882    1
  1262   998   997   ar
  1263   531   530   ar
  1264   871   872    1
  1265   871   870    1
  1266   757   755   ar
  1267   970   971    1
  1268   970   972    1
  1269  1043  1044   ar
  1270    81    82    1
  1271    81    84    1
  1272  1490  1489   ar
  1273  1490  1491   ar
  1274  1508  1509    1
  1275  1489  1498   ar
  1276    79    78   ar
  1277   322   321   ar
  1278   322   323   ar
  1279  1018  1020   ar
  1280  1018  1017   ar
  1281   636   637    1
  1282   636   635   ar
  1283   302   304   ar
  1284   302   303    2
  1285   880   879   ar
  1286    97    96    2
  1287   203   204   ar
  1288   645   642    1
  1289   332   330    2
  1290   539   540    1
  1291  1509  1510    1
  1292   974   973    1
  1293   974   975   ar
  1294   971   983    1
  1295   209   208    1
  1296   321   320   ar
  1297   527   526    1
  1298   527   528   ar
  1299   217   218   ar
  1300  1044  1034   ar
  1301   983   984    1
  1302   983   986    1
  1303   641   635   ar
  1304   641   632   ar
  1305   540   541    1
  1306   782   780    1
  1307    94    93   ar
  1308    94    95   ar
  1309   617   616    2
  1310  1036  1035   ar
  1311   389   388    2
  1312   750   751    1
  1313   750   752    1
  1314   973   972    1
  1315   753   752    1
  1316   368   367    1
  1317  1510  1511   ar
  1318   755   756    2
  1319   526   525    1
  1320   779   778    2
  1321  1020  1021   ar
  1322   630   631    1
  1323   630   628    1
  1324  1048  1049    1
  1325  1048  1045    1
  1326   198   199    2
  1327   198   197   ar
  1328   325   324    1
  1329   331   330    1
  1330   635   634   ar
  1331   878   879   ar
  1332  1017  1015   ar
  1333  1001   994   ar
  1334  1491  1492   ar
  1335  1514  1515    1
  1336  1514  1513   ar
  1337   977   975   ar
  1338   997   995   ar
  1339    93    92   ar
  1340   402   403    1
  1341   402   400    1
  1342   404   403    1
  1343   404   405   ar
  1344    96    95   ar
  1345    96    98   ar
  1346   406   405   ar
  1347   314   315    1
  1348   314   316    1
  1349   559   558    2
  1350   530   528   ar
  1351  1498  1497   ar
  1352  1498  1492   ar
  1353   330   317    1
  1354   330   333    1
  1355   751   763    1
  1356   870   869    1
  1357    84    85    1
  1358    95   102   ar
  1359   859   858    2
  1360   323   324   ar
  1361   323   329   ar
  1362   986   987    1
  1363  1047  1045    2
  1364   765   763    2
  1365   643   642    2
  1366   632   631    1
  1367   632   633   ar
  1368   631   627    1
  1369   975   976    2
  1370   208   205    1
  1371   204   197   ar
  1372   204   194   ar
  1373  1005  1003    2
  1374   415   416    2
  1375   415   417    1
  1376   415   401    1
  1377   528   529    2
  1378   315   319    1
  1379   778   780   ar
  1380   778   777   ar
  1381   388   387   ar
  1382   388   390   ar
  1383   119   118    1
  1384   780   781   ar
  1385  1035  1034   ar
  1386  1034  1033    1
  1387   387   385   ar
  1388   642   629    1
  1389   642   644    1
  1390   616   615   ar
  1391   616   618   ar
  1392  1497  1496   ar
  1393   324   326   ar
  1394   320   329   ar
  1395   320   319    1
  1396   629   628    1
  1397   403   399    1
  1398   197   196   ar
  1399  1492  1493   ar
  1400   367   369   ar
  1401   367   366   ar
  1402  1511  1513   ar
  1403  1511  1512    2
  1404   316   317    1
  1405   316   318    1
  1406   560   558    1
  1407   560   543    1
  1408   541   542    1
  1409   541   543    1
  1410   842   843   ar
  1411   842   840   ar
  1412  1045  1046    1
  1413  1045  1031    1
  1414   628   626    1
  1415   346   345    2
  1416  1021  1014   ar
  1417   401   400    1
  1418   192   193    1
  1419   192   190    1
  1420   179   180   ar
  1421   179   177   ar
  1422   615   613   ar
  1423   400   398    1
  1424   843   844   ar
  1425  1032  1033    1
  1426  1032  1030    1
  1427   369   370   ar
  1428   558   544    1
  1429   558   561    1
  1430    85    86    1
  1431   634   633   ar
  1432   819   818    2
  1433   994   995   ar
  1434   994   993    1
  1435   620   618    1
  1436   763   764    1
  1437   763   766    1
  1438    98    99   ar
  1439   995   996    2
  1440   138   137    1
  1441   799   798    2
  1442   343   342   ar
  1443   343   344   ar
  1444   178   177    1
  1445   869   866    1
  1446  1015  1014   ar
  1447  1015  1016    2
  1448   329   328   ar
  1449    92   102   ar
  1450    92    91    1
  1451   206   205    2
  1452   319   318    1
  1453   858   860   ar
  1454   858   857   ar
  1455   102   101   ar
  1456   544   543    1
  1457   333   334    1
  1458   820   818   ar
  1459   820   821   ar
  1460   596   595    1
  1461  1033  1029    1
  1462   781   774   ar
  1463   194   193    1
  1464   194   195   ar
  1465   542   546    1
  1466   543   545    1
  1467   777   775   ar
  1468   618   619   ar
  1469   860   861   ar
  1470   386   385    2
  1471   180   181   ar
  1472   822   821    1
  1473   385   384   ar
  1474   627   626    1
  1475   987   988    1
  1476   205   191    1
  1477   205   207    1
  1478   548   549   ar
  1479   548   547   ar
  1480   365   366   ar
  1481   365   364   ar
  1482    87    86    1
  1483    87    91    1
  1484   390   392    1
  1485   390   391   ar
  1486   366   372   ar
  1487   193   189    1
  1488   841   840    1
  1489  1496  1495   ar
  1490  1014  1013    1
  1491   118   120   ar
  1492   118   117   ar
  1493  1003  1004    1
  1494  1003  1006    1
  1495  1003   991    1
  1496   177   176   ar
  1497  1030  1031    1
  1498  1030  1028    1
  1499   818   817   ar
  1500   626   625    1
  1501  1493  1495   ar
  1502  1493  1494    1
  1503   191   190    1
  1504   342   341   ar
  1505   840   839   ar
  1506   326   327   ar
  1507   855   856    1
  1508   855   853    1
  1509  1025  1023    2
  1510   345   344   ar
  1511   345   347   ar
  1512   196   195   ar
  1513   990   988    1
  1514   990   991    1
  1515   990   992    1
  1516   989   993    1
  1517   989   988    1
  1518   399   398    1
  1519   549   550   ar
  1520   344   351   ar
  1521   159   158    1
  1522   190   188    1
  1523   120   121   ar
  1524    86    88    1
  1525   821   823   ar
  1526   844   845   ar
  1527   856   857    1
  1528   856   852    1
  1529   766   767    1
  1530   613   614    2
  1531   613   612   ar
  1532   993   992    1
  1533    99   101   ar
  1534    99   100    1
  1535    91    90    1
  1536   370   371   ar
  1537   798   797   ar
  1538   798   800   ar
  1539   574   573    2
  1540   398   397    1
  1541  1006  1007    1
  1542   802   800    1
  1543   137   139   ar
  1544   137   136   ar
  1545   857   864   ar
  1546   561   562    1
  1547   774   775   ar
  1548   774   773    1
  1549   139   140   ar
  1550   775   776    2
  1551   328   327   ar
  1552   571   570   ar
  1553   571   572   ar
  1554   117   115   ar
  1555   595   594   ar
  1556   595   597   ar
  1557   546   547    1
  1558   546   545    1
  1559   593   594   ar
  1560   593   592   ar
  1561   547   557   ar
  1562  1029  1028    1
  1563   334   335    1
  1564   354   352    2
  1565   866   868    2
  1566   866   854    1
  1567   866   867    1
  1568   384   391   ar
  1569   384   383    1
  1570   861   862    2
  1571   861   863   ar
  1572   582   580    2
  1573   619   612   ar
  1574    88    90    1
  1575    88    89    1
  1576  1026  1023    1
  1577  1026  1027    1
  1578   181   182   ar
  1579   364   363   ar
  1580   372   371   ar
  1581   372   363   ar
  1582   797   795   ar
  1583   105   103    2
  1584   800   801   ar
  1585   769   773    1
  1586   769   768    1
  1587   189   188    1
  1588  1028  1027    1
  1589   176   182   ar
  1590   176   175   ar
  1591   347   348   ar
  1592   581   580    1
  1593   612   611    1
  1594   839   845   ar
  1595   839   838   ar
  1596   594   600   ar
  1597  1013  1012    1
  1598  1013  1009    1
  1599  1023  1024    1
  1600  1023  1011    1
  1601   817   824   ar
  1602   817   816   ar
  1603   570   569   ar
  1604   341   351   ar
  1605   341   340    1
  1606   845   836   ar
  1607   767   768    1
  1608   854   853    1
  1609   188   187    1
  1610   573   572   ar
  1611   573   575   ar
  1612   853   851    1
  1613   625   624    1
  1614   351   350   ar
  1615  1010  1012    1
  1616  1010  1011    1
  1617  1010  1008    1
  1618   597   598   ar
  1619   158   157   ar
  1620   158   160   ar
  1621   336   335    1
  1622   336   340    1
  1623   550   557   ar
  1624   550   551   ar
  1625   823   824   ar
  1626   121   114   ar
  1627   572   579   ar
  1628   773   772    1
  1629   852   851    1
  1630   396   397    1
  1631   396   393    1
  1632   182   173   ar
  1633   136   135   ar
  1634   136   142   ar
  1635   580   566    1
  1636   580   583    1
  1637  1009  1008    1
  1638   592   591   ar
  1639   864   863   ar
  1640   562   563    1
  1641   140   141   ar
  1642   363   362    1
  1643   335   337    1
  1644  1007  1008    1
  1645    89   103    1
  1646   624   621    1
  1647   557   556   ar
  1648   157   155   ar
  1649   863   865    1
  1650   135   134   ar
  1651   337   339    1
  1652   337   338    1
  1653   824   814   ar
  1654   115   114   ar
  1655   115   116    2
  1656   851   850    1
  1657   383   382    1
  1658   383   379    1
  1659   768   770    1
  1660   382   380    1
  1661   816   815   ar
  1662   340   339    1
  1663   175   174   ar
  1664   352   355    1
  1665   352   338    1
  1666   352   353    1
  1667   801   794   ar
  1668   795   796    2
  1669   795   794   ar
  1670   552   551    2
  1671   160   161   ar
  1672   395   393    2
  1673   348   350   ar
  1674   348   349    1
  1675   114   113    1
  1676   103   106    1
  1677   103   104    1
  1678   551   553   ar
  1679   838   837   ar
  1680   600   591   ar
  1681   600   599   ar
  1682   603   601    2
  1683   375   373    2
  1684   575   576   ar
  1685   565   566    1
  1686   565   563    1
  1687   565   567    1
  1688   569   579   ar
  1689   569   568    1
  1690   355   356    1
  1691   836   835    1
  1692   836   837   ar
  1693   770   772    1
  1694   770   771    1
  1695   611   610    1
  1696   611   607    1
  1697   598   599   ar
  1698   579   578   ar
  1699   187   186    1
  1700   393   381    1
  1701   393   394    1
  1702   591   590    1
  1703   142   141   ar
  1704   142   133   ar
  1705   563   564    1
  1706   380   381    1
  1707   380   378    1
  1708   186   183    1
  1709   173   174   ar
  1710   173   172    1
  1711   785   783    2
  1712   794   793    1
  1713   583   584    1
  1714   610   608    1
  1715   584   585    1
  1716   379   378    1
  1717   556   554   ar
  1718   362   361    1
  1719   362   358    1
  1720   106   107    1
  1721   835   834    1
  1722   835   831    1
  1723   814   815   ar
  1724   814   813    1
  1725   134   133   ar
  1726   155   156    2
  1727   155   154   ar
  1728   564   568    1
  1729   834   832    1
  1730   621   623    2
  1731   621   622    1
  1732   621   609    1
  1733   608   609    1
  1734   608   606    1
  1735   607   606    1
  1736   361   359    1
  1737   850   849    1
  1738   604   601    1
  1739   604   605    1
  1740   359   357    1
  1741   359   360    1
  1742   567   568    1
  1743   376   373    1
  1744   376   377    1
  1745   358   357    1
  1746   161   154   ar
  1747   576   578   ar
  1748   576   577    1
  1749   601   588    1
  1750   601   602    1
  1751   553   554   ar
  1752   113   109    1
  1753   113   112    1
  1754   124   122    2
  1755   171   172    1
  1756   171   169    1
  1757   109   108    1
  1758   133   132    1
  1759   373   360    1
  1760   373   374    1
  1761   172   168    1
  1762   771   783    1
  1763   378   377    1
  1764   356   357    1
  1765   587   585    1
  1766   587   588    1
  1767   587   589    1
  1768   586   585    1
  1769   586   590    1
  1770   554   555    1
  1771   849   846    1
  1772   154   153    1
  1773   185   183    2
  1774   590   589    1
  1775   783   786    1
  1776   783   784    1
  1777   606   605    1
  1778   813   812    1
  1779   813   809    1
  1780   793   789    1
  1781   793   792    1
  1782   183   184    1
  1783   183   170    1
  1784   107   108    1
  1785   831   830    1
  1786   786   787    1
  1787   110   112    1
  1788   110   108    1
  1789   110   111    1
  1790   789   788    1
  1791   832   833    1
  1792   832   830    1
  1793   169   170    1
  1794   169   167    1
  1795   812   810    1
  1796   145   143    2
  1797   122   125    1
  1798   122   111    1
  1799   122   123    1
  1800   168   167    1
  1801   132   128    1
  1802   132   131    1
  1803   809   808    1
  1804   833   846    1
  1805   792   790    1
  1806   153   152    1
  1807   153   149    1
  1808   152   150    1
  1809   830   829    1
  1810   164   162    2
  1811   125   126    1
  1812   846   848    2
  1813   846   847    1
  1814   787   788    1
  1815   790   788    1
  1816   790   791    1
  1817   128   127    1
  1818   131   129    1
  1819   167   166    1
  1820   165   162    1
  1821   165   166    1
  1822   810   808    1
  1823   810   811    1
  1824   129   127    1
  1825   129   130    1
  1826   805   803    2
  1827   150   151    1
  1828   150   148    1
  1829   149   148    1
  1830   146   143    1
  1831   146   147    1
  1832   828   829    1
  1833   828   825    1
  1834   143   130    1
  1835   143   144    1
  1836   808   807    1
  1837   806   803    1
  1838   806   807    1
  1839   162   151    1
  1840   162   163    1
  1841   127   126    1
  1842   791   803    1
  1843   827   825    2
  1844   148   147    1
  1845   803   804    1
  1846   811   825    1
  1847   825   826    1
