FB1.pdb
  RxDock  10072011503D
librxdock.so/0.1.0
 59 58  0  0  0  0  0  0  0  0999 V2000
    3.3090  -10.4039    5.1862 C   0  0  0  0  0  0
    3.1701  -11.9078    4.9619 C   0  0  0  0  0  0
    2.8129  -12.2353    3.5027 C   0  0  0  0  0  0
    1.2884  -12.3402    3.2487 C   0  0  0  0  0  0
    0.5893  -10.9928    2.8535 C   0  0  0  0  0  0
    1.4640  -10.2846    1.7934 C   0  0  0  0  0  0
   -0.8968  -11.1803    2.3297 C   0  0  0  0  0  0
   -1.9751  -10.0936    2.8014 C   0  0  0  0  0  0
   -2.8080   -9.1496    1.8301 C   0  0  0  0  0  0
   -3.7510   -8.0264    2.5853 C   0  0  0  0  0  0
   -2.8537   -7.1408    3.4483 C   0  0  0  0  0  0
   -4.6518   -7.1127    1.6374 C   0  0  0  0  0  0
   -4.1539   -6.5049    0.2227 C   0  0  0  0  0  0
   -4.4094   -5.0142   -0.1878 C   0  0  0  0  0  0
   -5.9072   -4.5626   -0.5071 C   0  0  0  0  0  0
   -6.6734   -4.9076   -1.8444 C   0  0  0  0  0  0
   -6.3647   -4.0998   -3.1327 C   0  0  0  0  0  0
   -5.0402   -4.4778   -3.9021 C   0  0  0  0  0  0
   -4.8803   -5.9515   -4.2959 C   0  0  0  0  0  0
   -3.8478   -6.3115   -5.4016 C   0  0  0  0  0  0
   -3.1559   -7.7066   -5.4144 C   0  0  0  0  0  0
   -4.0348   -8.9019   -5.0732 C   0  0  0  0  0  0
   -2.4379   -7.9255   -6.6844 N   0  0  0  0  0  0
   -4.6006   -6.2543   -6.6401 O   0  0  0  0  0  0
   -4.9763   -3.6803   -5.0895 O   0  0  0  0  0  0
   -2.7237   -6.6491    0.2414 O   0  0  0  0  0  0
   -2.9861  -10.8223    3.5491 O   0  0  0  0  0  0
   -3.4170  -10.2638    4.7100 C   0  0  0  0  0  0
   -4.1784   -9.3212    4.8157 O   0  0  0  0  0  0
   -2.8744  -11.0712    5.8568 C   0  0  0  0  0  0
   -1.7734  -10.3300    6.6319 C   0  0  0  0  0  0
   -2.0536  -10.2690    8.1389 C   0  0  0  0  0  0
   -2.9161  -11.4286    8.5804 C   0  0  0  0  0  0
   -4.1410  -11.4234    8.5224 O   0  0  0  0  0  0
   -2.2123  -12.4722    9.0433 O   0  0  0  0  0  0
   -0.4764  -11.1079    6.3698 C   0  0  0  0  0  0
    0.4535  -10.6546    5.7200 O   0  0  0  0  0  0
   -0.4655  -12.3502    6.8723 O   0  0  0  0  0  0
   -0.9247  -11.3878    0.8613 O   0  0  0  0  0  0
   -0.8413  -10.2779    0.0372 C   0  0  0  0  0  0
   -0.5202   -9.1568    0.4093 O   0  0  0  0  0  0
   -1.1989  -10.6037   -1.4189 C   0  0  0  0  0  0
    0.0049  -10.9394   -2.3532 C   0  0  0  0  0  0
    0.1733  -10.1127   -3.6411 C   0  0  0  0  0  0
    1.1924  -10.6908   -4.5801 C   0  0  0  0  0  0
    0.9743  -11.5354   -5.4379 O   0  0  0  0  0  0
    2.4131  -10.1635   -4.4006 O   0  0  0  0  0  0
    1.3683  -10.9673   -1.6514 C   0  0  0  0  0  0
    2.2521  -10.1693   -1.8938 O   0  0  0  0  0  0
    1.4917  -11.8758   -0.6610 O   0  0  0  0  0  0
   -3.1088   -8.1808   -7.4078 H   0  0  0  0  0  0
   -1.8360   -8.7457   -6.5822 H   0  0  0  0  0  0
   -3.9226   -6.3291   -7.3445 H   0  0  0  0  0  0
   -4.9921   -2.7416   -4.8266 H   0  0  0  0  0  0
   -2.4276   -6.8272   -0.6670 H   0  0  0  0  0  0
   -2.7392  -13.1710    9.4763 H   0  0  0  0  0  0
   -1.2592  -12.5793    7.4167 H   0  0  0  0  0  0
    2.4135   -9.7515   -3.5109 H   0  0  0  0  0  0
    2.3815  -11.9265   -0.2465 H   0  0  0  0  0  0
  1  2  1  0  0  0
  2  3  1  0  0  0
  3  4  1  0  0  0
  4  5  1  0  0  0
  5  6  1  0  0  0
  5  7  1  0  0  0
  7  8  1  0  0  0
  7 39  1  0  0  0
  8  9  1  0  0  0
  8 27  1  0  0  0
  9 10  1  0  0  0
 10 11  1  0  0  0
 10 12  1  0  0  0
 12 13  1  0  0  0
 13 14  1  0  0  0
 13 26  1  0  0  0
 14 15  1  0  0  0
 15 16  1  0  0  0
 16 17  1  0  0  0
 17 18  1  0  0  0
 18 19  1  0  0  0
 18 25  1  0  0  0
 19 20  1  0  0  0
 20 21  1  0  0  0
 20 24  1  0  0  0
 21 22  1  0  0  0
 21 23  1  0  0  0
 23 51  1  0  0  0
 23 52  1  0  0  0
 24 53  1  0  0  0
 25 54  1  0  0  0
 26 55  1  0  0  0
 27 28  1  0  0  0
 28 29  2  0  0  0
 28 30  1  0  0  0
 30 31  1  0  0  0
 31 32  1  0  0  0
 31 36  1  0  0  0
 32 33  1  0  0  0
 33 34  2  0  0  0
 33 35  1  0  0  0
 35 56  1  0  0  0
 36 37  2  0  0  0
 36 38  1  0  0  0
 38 57  1  0  0  0
 39 40  1  0  0  0
 40 41  2  0  0  0
 40 42  1  0  0  0
 42 43  1  0  0  0
 43 44  1  0  0  0
 43 48  1  0  0  0
 44 45  1  0  0  0
 45 46  2  0  0  0
 45 47  1  0  0  0
 47 58  1  0  0  0
 48 49  2  0  0  0
 48 50  1  0  0  0
 50 59  1  0  0  0
M  END
>  <AUTHOR>
    GENERATED BY OPEN BABEL 2.4.1

>  <CHROM.1>
-92.20006568,89.41715856,45.08126155,140.17463338,119.71328887,-81.13087063
-174.69914198,136.17136507,58.92744952,-40.20163486,-134.72923489,-69.36985337
146.06950490,-76.18264179,-77.91725534,77.96127765,54.60634480,161.73668368
58.50978475,151.79750384,40.42687522,170.64885467,-78.29968612,75.73818817
108.67836674,127.12024771,26.61057952,112.31932328,-85.32298275,169.92363845
-5.23442145,13.02644840,-94.49058079,-124.49437047,-168.88256948,-114.23641666
87.58629336,18.63531884,176.72943749,-1.74505388,-9.26682694,0.82076523,-1.30460435
0.63265621,-1.33159922

>  <COMPND>
    UNNAMED

>  <MASTER>
        0    0    0    0    0    0    0    0  109    0  109    0

>  <Name>
FB1.pdb

>  <RI>
0

>  <Rbt.Current_Directory>
/cluster/tossine/F10/p3/0_clust01/stat

>  <Rbt.Executable>
rbdock/0.1.0

>  <Rbt.Library>
librxdock.so/0.1.0

>  <Rbt.Parameter_File>
/cluster/rxdock/data/scripts/dock.prm

>  <Rbt.Receptor>
rx_3.prm

>  <SCORE>
41.0644

>  <SCORE.INTER>
5.96033

>  <SCORE.INTER.CONST>
1

>  <SCORE.INTER.POLAR>
-1.2713

>  <SCORE.INTER.REPUL>
0.116713

>  <SCORE.INTER.ROT>
32

>  <SCORE.INTER.VDW>
-27.7008

>  <SCORE.INTER.norm>
0.119207

>  <SCORE.INTRA>
32.4447

>  <SCORE.INTRA.DIHEDRAL>
48.3682

>  <SCORE.INTRA.DIHEDRAL.0>
47.3121

>  <SCORE.INTRA.POLAR>
-0.063861

>  <SCORE.INTRA.POLAR.0>
-1.47808

>  <SCORE.INTRA.REPUL>
0

>  <SCORE.INTRA.REPUL.0>
0

>  <SCORE.INTRA.VDW>
8.47774

>  <SCORE.INTRA.VDW.0>
-2.78316

>  <SCORE.INTRA.norm>
0.648894

>  <SCORE.RESTR>
2.6594

>  <SCORE.RESTR.CAVITY>
2.6594

>  <SCORE.RESTR.norm>
0.053188

>  <SCORE.SYSTEM>
0

>  <SCORE.SYSTEM.CONST>
0

>  <SCORE.SYSTEM.DIHEDRAL>
0

>  <SCORE.SYSTEM.norm>
0

>  <SCORE.heavy>
50

>  <SCORE.norm>
0.821288

$$$$
