FB1.pdb
  RxDock  10072012093D
librxdock.so/0.1.0
 59 58  0  0  0  0  0  0  0  0999 V2000
   -4.5230  -12.0795    7.4924 C   0  0  0  0  0  0
   -3.9109  -11.4345    6.2511 C   0  0  0  0  0  0
   -2.3800  -11.5767    6.2318 C   0  0  0  0  0  0
   -1.6593  -10.6296    7.2234 C   0  0  0  0  0  0
   -1.9052   -9.1004    6.9751 C   0  0  0  0  0  0
   -1.0895   -8.3019    8.0180 C   0  0  0  0  0  0
   -1.5522   -8.6335    5.5002 C   0  0  0  0  0  0
   -0.6615   -9.6301    4.6172 C   0  0  0  0  0  0
   -0.2588   -9.3941    3.0972 C   0  0  0  0  0  0
   -0.9826  -10.4085    2.0163 C   0  0  0  0  0  0
   -2.4670  -10.5086    2.3638 C   0  0  0  0  0  0
   -0.8185  -10.0276    0.4759 C   0  0  0  0  0  0
   -0.9410  -11.0889   -0.7395 C   0  0  0  0  0  0
   -1.1647  -10.6428   -2.2251 C   0  0  0  0  0  0
   -1.0893  -11.7539   -3.3692 C   0  0  0  0  0  0
   -2.1093  -11.8636   -4.5700 C   0  0  0  0  0  0
   -2.5241  -10.5822   -5.3404 C   0  0  0  0  0  0
   -1.4116   -9.4788   -5.5251 C   0  0  0  0  0  0
   -1.5707   -8.5495   -6.7348 C   0  0  0  0  0  0
   -0.4945   -8.6076   -7.8558 C   0  0  0  0  0  0
    0.8336   -9.3912   -7.6380 C   0  0  0  0  0  0
    1.8965   -9.2361   -8.7166 C   0  0  0  0  0  0
    1.3941   -9.1142   -6.3017 N   0  0  0  0  0  0
   -1.1505   -9.2805   -8.9607 O   0  0  0  0  0  0
   -1.3814   -8.6790   -4.3380 O   0  0  0  0  0  0
    0.3128  -11.7923   -0.7438 O   0  0  0  0  0  0
    0.6094   -9.7612    5.3100 O   0  0  0  0  0  0
    1.3445  -10.8725    5.0453 C   0  0  0  0  0  0
    1.0598  -11.7518    4.2547 O   0  0  0  0  0  0
    2.6297  -10.7891    5.8216 C   0  0  0  0  0  0
    3.8203  -10.3624    4.9482 C   0  0  0  0  0  0
    5.1405  -10.3278    5.7288 C   0  0  0  0  0  0
    5.6771   -8.9188    5.8300 C   0  0  0  0  0  0
    6.6560   -8.5195    5.2088 O   0  0  0  0  0  0
    4.9769   -8.1393    6.6673 O   0  0  0  0  0  0
    3.9059  -11.3967    3.8172 C   0  0  0  0  0  0
    3.9705  -12.6001    4.0175 O   0  0  0  0  0  0
    3.9539  -10.8680    2.5867 O   0  0  0  0  0  0
   -2.7662   -8.1854    4.7755 O   0  0  0  0  0  0
   -2.6742   -7.0666    3.9643 C   0  0  0  0  0  0
   -2.2049   -5.9910    4.3122 O   0  0  0  0  0  0
   -3.2310   -7.3186    2.5569 C   0  0  0  0  0  0
   -4.7771   -7.5068    2.4638 C   0  0  0  0  0  0
   -5.4792   -7.0905    1.1584 C   0  0  0  0  0  0
   -5.0654   -5.7294    0.6781 C   0  0  0  0  0  0
   -5.4909   -4.6635    1.1015 O   0  0  0  0  0  0
   -4.1335   -5.7866   -0.2855 O   0  0  0  0  0  0
   -5.2701   -8.9164    2.8135 C   0  0  0  0  0  0
   -5.8326   -9.6368    2.0127 O   0  0  0  0  0  0
   -4.9436   -9.3549    4.0474 O   0  0  0  0  0  0
    0.7590   -8.5000   -5.7939 H   0  0  0  0  0  0
    2.2528   -8.5707   -6.4139 H   0  0  0  0  0  0
   -0.6535   -8.9922   -9.7552 H   0  0  0  0  0  0
   -2.2112   -8.1692   -4.2936 H   0  0  0  0  0  0
    0.3646  -12.3194    0.0710 H   0  0  0  0  0  0
    5.2095   -7.1911    6.6463 H   0  0  0  0  0  0
    3.9308   -9.8792    2.5641 H   0  0  0  0  0  0
   -3.8002   -6.7086   -0.3002 H   0  0  0  0  0  0
   -4.2740   -8.8135    4.5216 H   0  0  0  0  0  0
  1  2  1  0  0  0
  2  3  1  0  0  0
  3  4  1  0  0  0
  4  5  1  0  0  0
  5  6  1  0  0  0
  5  7  1  0  0  0
  7  8  1  0  0  0
  7 39  1  0  0  0
  8  9  1  0  0  0
  8 27  1  0  0  0
  9 10  1  0  0  0
 10 11  1  0  0  0
 10 12  1  0  0  0
 12 13  1  0  0  0
 13 14  1  0  0  0
 13 26  1  0  0  0
 14 15  1  0  0  0
 15 16  1  0  0  0
 16 17  1  0  0  0
 17 18  1  0  0  0
 18 19  1  0  0  0
 18 25  1  0  0  0
 19 20  1  0  0  0
 20 21  1  0  0  0
 20 24  1  0  0  0
 21 22  1  0  0  0
 21 23  1  0  0  0
 23 51  1  0  0  0
 23 52  1  0  0  0
 24 53  1  0  0  0
 25 54  1  0  0  0
 26 55  1  0  0  0
 27 28  1  0  0  0
 28 29  2  0  0  0
 28 30  1  0  0  0
 30 31  1  0  0  0
 31 32  1  0  0  0
 31 36  1  0  0  0
 32 33  1  0  0  0
 33 34  2  0  0  0
 33 35  1  0  0  0
 35 56  1  0  0  0
 36 37  2  0  0  0
 36 38  1  0  0  0
 38 57  1  0  0  0
 39 40  1  0  0  0
 40 41  2  0  0  0
 40 42  1  0  0  0
 42 43  1  0  0  0
 43 44  1  0  0  0
 43 48  1  0  0  0
 44 45  1  0  0  0
 45 46  2  0  0  0
 45 47  1  0  0  0
 47 58  1  0  0  0
 48 49  2  0  0  0
 48 50  1  0  0  0
 50 59  1  0  0  0
M  END
>  <AUTHOR>
    GENERATED BY OPEN BABEL 2.4.1

>  <CHROM.1>
-74.80724435,-60.27127823,-178.43734418,-15.64169594,176.64609859,139.65061929
-110.19976324,157.48654180,44.93850486,156.48820132,162.88580202,172.47667436
67.10384022,136.31358502,44.97294413,35.28700663,154.14570556,-115.20931704
-68.17221834,-10.90597900,-172.15660176,156.74560241,2.71869695,2.25119272
-101.94505976,-177.87975268,-114.51597964,-53.81672561,-107.76116320,-170.65395548
0.17065659,-50.72739288,69.36961621,150.90069956,-47.70112433,-116.74947398
-80.21339240,-12.62887862,-12.15914474,-0.77886018,-9.45391840,1.48612609
1.44811211,-0.25610217,1.57658944

>  <COMPND>
    UNNAMED

>  <MASTER>
        0    0    0    0    0    0    0    0  109    0  109    0

>  <Name>
FB1.pdb

>  <RI>
0

>  <Rbt.Current_Directory>
/cluster/tossine/F10/p3/0_clust01/stat

>  <Rbt.Executable>
rbdock/0.1.0

>  <Rbt.Library>
librxdock.so/0.1.0

>  <Rbt.Parameter_File>
/cluster/rxdock/data/scripts/dock.prm

>  <Rbt.Receptor>
rx_3.prm

>  <SCORE>
37.1003

>  <SCORE.INTER>
8.0905

>  <SCORE.INTER.CONST>
1

>  <SCORE.INTER.POLAR>
-1.49836

>  <SCORE.INTER.REPUL>
0.518738

>  <SCORE.INTER.ROT>
32

>  <SCORE.INTER.VDW>
-26.8088

>  <SCORE.INTER.norm>
0.16181

>  <SCORE.INTRA>
22.5894

>  <SCORE.INTRA.DIHEDRAL>
40.8666

>  <SCORE.INTRA.DIHEDRAL.0>
47.3121

>  <SCORE.INTRA.POLAR>
0.478077

>  <SCORE.INTRA.POLAR.0>
-1.47808

>  <SCORE.INTRA.REPUL>
0

>  <SCORE.INTRA.REPUL.0>
0

>  <SCORE.INTRA.VDW>
0.530661

>  <SCORE.INTRA.VDW.0>
-2.78316

>  <SCORE.INTRA.norm>
0.451788

>  <SCORE.RESTR>
6.42039

>  <SCORE.RESTR.CAVITY>
6.42039

>  <SCORE.RESTR.norm>
0.128408

>  <SCORE.SYSTEM>
0

>  <SCORE.SYSTEM.CONST>
0

>  <SCORE.SYSTEM.DIHEDRAL>
0

>  <SCORE.SYSTEM.norm>
0

>  <SCORE.heavy>
50

>  <SCORE.norm>
0.742006

$$$$
