FB1.pdb
  RxDock  10072011573D
librxdock.so/0.1.0
 59 58  0  0  0  0  0  0  0  0999 V2000
   -0.6995  -11.1004    6.2588 C   0  0  0  0  0  0
   -1.1692  -12.3642    5.5423 C   0  0  0  0  0  0
   -0.6029  -12.4537    4.1155 C   0  0  0  0  0  0
    0.8915  -12.8589    4.0685 C   0  0  0  0  0  0
    1.4872  -13.0237    2.6268 C   0  0  0  0  0  0
    0.4318  -13.7274    1.7429 C   0  0  0  0  0  0
    1.9526  -11.6545    1.9737 C   0  0  0  0  0  0
    0.8780  -10.8766    1.0757 C   0  0  0  0  0  0
    0.6585  -11.0957   -0.4838 C   0  0  0  0  0  0
    1.8440  -10.4783   -1.4506 C   0  0  0  0  0  0
    3.1897  -10.6771   -0.7551 C   0  0  0  0  0  0
    1.9169  -11.0618   -2.9335 C   0  0  0  0  0  0
    0.8236  -10.7520   -4.0855 C   0  0  0  0  0  0
    0.8825   -9.4629   -4.9748 C   0  0  0  0  0  0
   -0.3086   -9.1981   -6.0045 C   0  0  0  0  0  0
   -1.6653   -8.4819   -5.6289 C   0  0  0  0  0  0
   -2.8016   -8.3961   -6.6819 C   0  0  0  0  0  0
   -4.1019   -7.6115   -6.2544 C   0  0  0  0  0  0
   -3.9622   -6.6686   -5.0528 C   0  0  0  0  0  0
   -4.9956   -5.5173   -4.8948 C   0  0  0  0  0  0
   -4.9903   -4.6180   -3.6234 C   0  0  0  0  0  0
   -6.0515   -3.5284   -3.5597 C   0  0  0  0  0  0
   -5.0043   -5.4399   -2.3983 N   0  0  0  0  0  0
   -4.7114   -4.6148   -5.9942 O   0  0  0  0  0  0
   -4.5484   -6.8493   -7.3811 O   0  0  0  0  0  0
    0.9371  -11.8493   -5.0074 O   0  0  0  0  0  0
   -0.4213  -11.1549    1.6646 O   0  0  0  0  0  0
   -1.2312  -10.0907    1.9030 C   0  0  0  0  0  0
   -1.0024   -8.9326    1.6101 O   0  0  0  0  0  0
   -2.5147  -10.5945    2.5032 C   0  0  0  0  0  0
   -3.3905   -9.4611    3.0607 C   0  0  0  0  0  0
   -4.0358   -8.6171    1.9540 C   0  0  0  0  0  0
   -4.3931   -7.2382    2.4583 C   0  0  0  0  0  0
   -3.7589   -6.6480    3.3262 O   0  0  0  0  0  0
   -5.4750   -6.7152    1.8628 O   0  0  0  0  0  0
   -4.4777  -10.1432    3.9026 C   0  0  0  0  0  0
   -5.6725  -10.0004    3.6914 O   0  0  0  0  0  0
   -4.0094  -10.8729    4.9244 O   0  0  0  0  0  0
    2.5794  -10.7658    2.9823 O   0  0  0  0  0  0
    1.7590  -10.1194    3.8917 C   0  0  0  0  0  0
    0.5703   -9.8868    3.7145 O   0  0  0  0  0  0
    2.5069   -9.7173    5.1697 C   0  0  0  0  0  0
    3.7706  -10.5665    5.5106 C   0  0  0  0  0  0
    4.6541  -10.1092    6.6857 C   0  0  0  0  0  0
    5.4822   -8.8995    6.3608 C   0  0  0  0  0  0
    5.8224   -8.5479    5.2396 O   0  0  0  0  0  0
    5.8154   -8.1970    7.4543 O   0  0  0  0  0  0
    3.4997  -12.0637    5.7036 C   0  0  0  0  0  0
    4.0473  -12.9243    5.0432 O   0  0  0  0  0  0
    2.6871  -12.3773    6.7344 O   0  0  0  0  0  0
   -4.6381   -4.8896   -1.6227 H   0  0  0  0  0  0
   -4.3396   -6.2083   -2.5130 H   0  0  0  0  0  0
   -4.9788   -5.1113   -6.7963 H   0  0  0  0  0  0
   -4.8033   -7.4711   -8.0873 H   0  0  0  0  0  0
    0.2482  -11.7453   -5.6849 H   0  0  0  0  0  0
   -5.8737   -7.2679    1.1635 H   0  0  0  0  0  0
   -4.7097  -11.2755    5.4957 H   0  0  0  0  0  0
    5.7616   -8.8154    8.2132 H   0  0  0  0  0  0
    2.2745  -11.6112    7.1917 H   0  0  0  0  0  0
  1  2  1  0  0  0
  2  3  1  0  0  0
  3  4  1  0  0  0
  4  5  1  0  0  0
  5  6  1  0  0  0
  5  7  1  0  0  0
  7  8  1  0  0  0
  7 39  1  0  0  0
  8  9  1  0  0  0
  8 27  1  0  0  0
  9 10  1  0  0  0
 10 11  1  0  0  0
 10 12  1  0  0  0
 12 13  1  0  0  0
 13 14  1  0  0  0
 13 26  1  0  0  0
 14 15  1  0  0  0
 15 16  1  0  0  0
 16 17  1  0  0  0
 17 18  1  0  0  0
 18 19  1  0  0  0
 18 25  1  0  0  0
 19 20  1  0  0  0
 20 21  1  0  0  0
 20 24  1  0  0  0
 21 22  1  0  0  0
 21 23  1  0  0  0
 23 51  1  0  0  0
 23 52  1  0  0  0
 24 53  1  0  0  0
 25 54  1  0  0  0
 26 55  1  0  0  0
 27 28  1  0  0  0
 28 29  2  0  0  0
 28 30  1  0  0  0
 30 31  1  0  0  0
 31 32  1  0  0  0
 31 36  1  0  0  0
 32 33  1  0  0  0
 33 34  2  0  0  0
 33 35  1  0  0  0
 35 56  1  0  0  0
 36 37  2  0  0  0
 36 38  1  0  0  0
 38 57  1  0  0  0
 39 40  1  0  0  0
 40 41  2  0  0  0
 40 42  1  0  0  0
 42 43  1  0  0  0
 43 44  1  0  0  0
 43 48  1  0  0  0
 44 45  1  0  0  0
 45 46  2  0  0  0
 45 47  1  0  0  0
 47 58  1  0  0  0
 48 49  2  0  0  0
 48 50  1  0  0  0
 50 59  1  0  0  0
M  END
>  <AUTHOR>
    GENERATED BY OPEN BABEL 2.4.1

>  <CHROM.1>
75.47892380,177.36021491,-40.50596498,-92.00733730,-88.71214102,-74.94375679
-73.05829110,130.45385077,37.11783039,70.84449000,84.05566419,-175.30825450
175.57731284,85.18362774,-174.44105821,-177.42849288,18.04295031,158.28567840
64.13291612,173.88001899,-179.40161468,68.67658052,157.85920607,3.95114907
168.92125124,72.20638905,-156.56730582,-122.32230573,31.44499699,-2.13089229
177.02019712,-23.03601731,-24.90973592,172.97419584,-74.10223120,122.10856792
-24.13250406,22.85473789,6.50208042,-0.56841742,-9.55420850,0.94876821,0.98151567
-0.42934117,1.68354389

>  <COMPND>
    UNNAMED

>  <MASTER>
        0    0    0    0    0    0    0    0  109    0  109    0

>  <Name>
FB1.pdb

>  <RI>
0

>  <Rbt.Current_Directory>
/cluster/tossine/F10/p3/0_clust01/stat

>  <Rbt.Executable>
rbdock/0.1.0

>  <Rbt.Library>
librxdock.so/0.1.0

>  <Rbt.Parameter_File>
/cluster/rxdock/data/scripts/dock.prm

>  <Rbt.Receptor>
rx_3.prm

>  <SCORE>
24.5699

>  <SCORE.INTER>
8.19542

>  <SCORE.INTER.CONST>
1

>  <SCORE.INTER.POLAR>
-1.49681

>  <SCORE.INTER.REPUL>
0.258641

>  <SCORE.INTER.ROT>
32

>  <SCORE.INTER.VDW>
-25.4086

>  <SCORE.INTER.norm>
0.163908

>  <SCORE.INTRA>
12.1633

>  <SCORE.INTRA.DIHEDRAL>
3.76665

>  <SCORE.INTRA.DIHEDRAL.0>
47.3121

>  <SCORE.INTRA.POLAR>
0.853842

>  <SCORE.INTRA.POLAR.0>
-1.47808

>  <SCORE.INTRA.REPUL>
0

>  <SCORE.INTRA.REPUL.0>
0

>  <SCORE.INTRA.VDW>
7.37687

>  <SCORE.INTRA.VDW.0>
-2.78316

>  <SCORE.INTRA.norm>
0.243265

>  <SCORE.RESTR>
4.21121

>  <SCORE.RESTR.CAVITY>
4.21121

>  <SCORE.RESTR.norm>
0.0842242

>  <SCORE.SYSTEM>
0

>  <SCORE.SYSTEM.CONST>
0

>  <SCORE.SYSTEM.DIHEDRAL>
0

>  <SCORE.SYSTEM.norm>
0

>  <SCORE.heavy>
50

>  <SCORE.norm>
0.491398

$$$$
