FB1.pdb
  RxDock  10072011443D
librxdock.so/0.1.0
 59 58  0  0  0  0  0  0  0  0999 V2000
    1.4939  -12.8353    5.7329 C   0  0  0  0  0  0
    1.9287  -11.5925    4.9597 C   0  0  0  0  0  0
    2.2065  -11.9101    3.4811 C   0  0  0  0  0  0
    2.7510  -10.7003    2.6814 C   0  0  0  0  0  0
    2.0285  -10.4309    1.3154 C   0  0  0  0  0  0
    2.3870  -11.5776    0.3421 C   0  0  0  0  0  0
    0.4555  -10.2729    1.4514 C   0  0  0  0  0  0
   -0.3060   -9.5337    0.2515 C   0  0  0  0  0  0
   -1.3473  -10.2222   -0.7333 C   0  0  0  0  0  0
   -0.8000  -10.4670   -2.2702 C   0  0  0  0  0  0
   -0.1622  -11.8534   -2.3429 C   0  0  0  0  0  0
   -1.8802  -10.3134   -3.4340 C   0  0  0  0  0  0
   -2.9815   -9.1296   -3.4997 C   0  0  0  0  0  0
   -3.2442   -8.2979   -4.8018 C   0  0  0  0  0  0
   -2.0811   -8.2102   -5.8921 C   0  0  0  0  0  0
   -1.5320   -9.4466   -6.7071 C   0  0  0  0  0  0
   -0.0011   -9.6267   -6.8841 C   0  0  0  0  0  0
    0.7999  -10.1352   -5.6234 C   0  0  0  0  0  0
    2.3173  -10.2779   -5.7948 C   0  0  0  0  0  0
    3.1505  -10.7936   -4.5873 C   0  0  0  0  0  0
    3.5229   -9.8368   -3.4164 C   0  0  0  0  0  0
    4.3605  -10.4335   -2.2940 C   0  0  0  0  0  0
    4.1334   -8.5945   -3.9268 N   0  0  0  0  0  0
    2.3249  -11.8222   -3.9836 O   0  0  0  0  0  0
    0.5473   -9.2286   -4.5445 O   0  0  0  0  0  0
   -4.2332   -9.7726   -3.2062 O   0  0  0  0  0  0
   -1.0500   -8.4404    0.8546 O   0  0  0  0  0  0
   -2.3271   -8.7006    1.2375 C   0  0  0  0  0  0
   -2.6730   -9.2297    2.2766 O   0  0  0  0  0  0
   -3.2592   -8.1316    0.2036 C   0  0  0  0  0  0
   -3.7013   -6.6969    0.5331 C   0  0  0  0  0  0
   -4.7795   -6.1781   -0.4269 C   0  0  0  0  0  0
   -4.9897   -4.6912   -0.2583 C   0  0  0  0  0  0
   -4.7637   -3.8699   -1.1404 O   0  0  0  0  0  0
   -5.4515   -4.3509    0.9541 O   0  0  0  0  0  0
   -4.2516   -6.7435    1.9653 C   0  0  0  0  0  0
   -3.5474   -6.6125    2.9549 O   0  0  0  0  0  0
   -5.5664   -6.9899    2.0448 O   0  0  0  0  0  0
   -0.1840  -11.5644    1.8017 O   0  0  0  0  0  0
   -1.3635  -11.5405    2.5273 C   0  0  0  0  0  0
   -2.4131  -12.0572    2.1673 O   0  0  0  0  0  0
   -1.2168  -10.7858    3.8552 C   0  0  0  0  0  0
   -2.0320  -11.3609    5.0548 C   0  0  0  0  0  0
   -1.9469  -10.6267    6.4054 C   0  0  0  0  0  0
   -2.4375  -11.4569    7.5563 C   0  0  0  0  0  0
   -1.7360  -12.1192    8.3085 O   0  0  0  0  0  0
   -3.7694  -11.3911    7.7054 O   0  0  0  0  0  0
   -3.5186  -11.5971    4.7606 C   0  0  0  0  0  0
   -4.1261  -12.5676    5.1678 O   0  0  0  0  0  0
   -4.1453  -10.5981    4.1045 O   0  0  0  0  0  0
    5.0620   -8.8037   -4.2908 H   0  0  0  0  0  0
    4.2953   -7.9626   -3.1394 H   0  0  0  0  0  0
    2.1578  -12.4612   -4.7082 H   0  0  0  0  0  0
    1.1584   -9.4447   -3.8162 H   0  0  0  0  0  0
   -4.3976  -10.4391   -3.8942 H   0  0  0  0  0  0
   -5.6580   -5.0993    1.5463 H   0  0  0  0  0  0
   -5.8780   -7.2682    2.9416 H   0  0  0  0  0  0
   -4.0900  -10.7131    7.0740 H   0  0  0  0  0  0
   -3.5541   -9.9160    3.7153 H   0  0  0  0  0  0
  1  2  1  0  0  0
  2  3  1  0  0  0
  3  4  1  0  0  0
  4  5  1  0  0  0
  5  6  1  0  0  0
  5  7  1  0  0  0
  7  8  1  0  0  0
  7 39  1  0  0  0
  8  9  1  0  0  0
  8 27  1  0  0  0
  9 10  1  0  0  0
 10 11  1  0  0  0
 10 12  1  0  0  0
 12 13  1  0  0  0
 13 14  1  0  0  0
 13 26  1  0  0  0
 14 15  1  0  0  0
 15 16  1  0  0  0
 16 17  1  0  0  0
 17 18  1  0  0  0
 18 19  1  0  0  0
 18 25  1  0  0  0
 19 20  1  0  0  0
 20 21  1  0  0  0
 20 24  1  0  0  0
 21 22  1  0  0  0
 21 23  1  0  0  0
 23 51  1  0  0  0
 23 52  1  0  0  0
 24 53  1  0  0  0
 25 54  1  0  0  0
 26 55  1  0  0  0
 27 28  1  0  0  0
 28 29  2  0  0  0
 28 30  1  0  0  0
 30 31  1  0  0  0
 31 32  1  0  0  0
 31 36  1  0  0  0
 32 33  1  0  0  0
 33 34  2  0  0  0
 33 35  1  0  0  0
 35 56  1  0  0  0
 36 37  2  0  0  0
 36 38  1  0  0  0
 38 57  1  0  0  0
 39 40  1  0  0  0
 40 41  2  0  0  0
 40 42  1  0  0  0
 42 43  1  0  0  0
 43 44  1  0  0  0
 43 48  1  0  0  0
 44 45  1  0  0  0
 45 46  2  0  0  0
 45 47  1  0  0  0
 47 58  1  0  0  0
 48 49  2  0  0  0
 48 50  1  0  0  0
 50 59  1  0  0  0
M  END
>  <AUTHOR>
    GENERATED BY OPEN BABEL 2.4.1

>  <CHROM.1>
-175.74226132,-131.46267768,-69.23696725,160.32968030,113.63426455,151.24444232
-107.90104516,-91.37248125,90.96103784,42.98025245,132.27006665,-23.38481693
-61.57791734,64.62931300,-135.49142121,74.81095087,-178.53761145,-179.20355850
-170.08416409,-78.93487111,-179.00028084,56.79075739,-70.57735486,82.34444475
-91.99741453,-173.11316618,-168.50046477,87.00324230,116.57467774,-4.48892813
163.83300920,123.30202312,-144.26178651,-178.73231728,-163.79085176,140.28041931
96.53351252,-6.80280574,12.55885061,-1.21744409,-9.70979659,0.35886937,-1.89475881
0.58166204,-1.26623296

>  <COMPND>
    UNNAMED

>  <MASTER>
        0    0    0    0    0    0    0    0  109    0  109    0

>  <Name>
FB1.pdb

>  <RI>
0

>  <Rbt.Current_Directory>
/cluster/tossine/F10/p3/0_clust01/stat

>  <Rbt.Executable>
rbdock/0.1.0

>  <Rbt.Library>
librxdock.so/0.1.0

>  <Rbt.Parameter_File>
/cluster/rxdock/data/scripts/dock.prm

>  <Rbt.Receptor>
rx_3.prm

>  <SCORE>
50.6866

>  <SCORE.INTER>
12.9133

>  <SCORE.INTER.CONST>
1

>  <SCORE.INTER.POLAR>
-1.69011

>  <SCORE.INTER.REPUL>
0.776967

>  <SCORE.INTER.ROT>
32

>  <SCORE.INTER.VDW>
-22.6252

>  <SCORE.INTER.norm>
0.258265

>  <SCORE.INTRA>
30.4521

>  <SCORE.INTRA.DIHEDRAL>
55.434

>  <SCORE.INTRA.DIHEDRAL.0>
47.3121

>  <SCORE.INTRA.POLAR>
-0.0888527

>  <SCORE.INTRA.POLAR.0>
-1.47808

>  <SCORE.INTRA.REPUL>
0

>  <SCORE.INTRA.REPUL.0>
0

>  <SCORE.INTRA.VDW>
3.03724

>  <SCORE.INTRA.VDW.0>
-2.78316

>  <SCORE.INTRA.norm>
0.609042

>  <SCORE.RESTR>
7.32123

>  <SCORE.RESTR.CAVITY>
7.32123

>  <SCORE.RESTR.norm>
0.146425

>  <SCORE.SYSTEM>
0

>  <SCORE.SYSTEM.CONST>
0

>  <SCORE.SYSTEM.DIHEDRAL>
0

>  <SCORE.SYSTEM.norm>
0

>  <SCORE.heavy>
50

>  <SCORE.norm>
1.01373

$$$$
