FB1.pdb
  RxDock  10072012053D
librxdock.so/0.1.0
 59 58  0  0  0  0  0  0  0  0999 V2000
   -6.8272  -11.8210    5.2030 C   0  0  0  0  0  0
   -5.3543  -11.4578    5.3769 C   0  0  0  0  0  0
   -4.6194  -12.4719    6.2690 C   0  0  0  0  0  0
   -3.1386  -12.1019    6.5340 C   0  0  0  0  0  0
   -2.9241  -10.8372    7.4367 C   0  0  0  0  0  0
   -2.8671  -11.2974    8.9117 C   0  0  0  0  0  0
   -1.6332   -9.9976    7.0539 C   0  0  0  0  0  0
   -1.5013   -9.5239    5.5293 C   0  0  0  0  0  0
   -2.1259   -8.1910    4.9280 C   0  0  0  0  0  0
   -3.3464   -8.4185    3.8419 C   0  0  0  0  0  0
   -3.4256   -7.1902    2.9368 C   0  0  0  0  0  0
   -3.2555   -9.7366    2.9480 C   0  0  0  0  0  0
   -2.1208   -9.9941    1.8234 C   0  0  0  0  0  0
   -1.7500   -8.9212    0.7429 C   0  0  0  0  0  0
   -0.7234   -9.3302   -0.4095 C   0  0  0  0  0  0
   -0.8525  -10.6328   -1.2933 C   0  0  0  0  0  0
   -1.9174  -10.6897   -2.4203 C   0  0  0  0  0  0
   -1.3879  -10.5436   -3.8993 C   0  0  0  0  0  0
   -1.4983   -9.1479   -4.5257 C   0  0  0  0  0  0
   -2.9115   -8.5165   -4.6753 C   0  0  0  0  0  0
   -3.1466   -7.3245   -5.6495 C   0  0  0  0  0  0
   -3.4656   -7.6830   -7.0942 C   0  0  0  0  0  0
   -4.1497   -6.3901   -5.1043 N   0  0  0  0  0  0
   -3.7413   -9.5899   -5.1881 O   0  0  0  0  0  0
   -0.0131  -10.9429   -3.9178 O   0  0  0  0  0  0
   -0.9090  -10.2144    2.5648 O   0  0  0  0  0  0
   -0.0775   -9.4065    5.2620 O   0  0  0  0  0  0
    0.6503  -10.5534    5.2811 C   0  0  0  0  0  0
    0.3968  -11.5557    5.9218 O   0  0  0  0  0  0
    1.7768  -10.4187    4.2941 C   0  0  0  0  0  0
    2.5493  -11.7328    4.0970 C   0  0  0  0  0  0
    3.1649  -12.2550    5.4015 C   0  0  0  0  0  0
    4.0600  -11.2160    6.0361 C   0  0  0  0  0  0
    5.1208  -10.8442    5.5461 O   0  0  0  0  0  0
    3.5820  -10.7335    7.1927 O   0  0  0  0  0  0
    1.5298  -12.7444    3.5555 C   0  0  0  0  0  0
    0.8194  -13.4271    4.2778 O   0  0  0  0  0  0
    1.5160  -12.8547    2.2200 O   0  0  0  0  0  0
   -1.4224   -8.8772    8.0027 O   0  0  0  0  0  0
   -1.1859   -9.1766    9.3341 C   0  0  0  0  0  0
   -1.4558  -10.2455    9.8660 O   0  0  0  0  0  0
   -0.5375   -8.0086   10.0889 C   0  0  0  0  0  0
   -0.7926   -7.9717   11.6277 C   0  0  0  0  0  0
    0.2243   -7.2268   12.5118 C   0  0  0  0  0  0
    0.6703   -5.9209   11.9199 C   0  0  0  0  0  0
    1.5101   -5.1707   12.3979 O   0  0  0  0  0  0
    0.0535   -5.6457   10.7606 O   0  0  0  0  0  0
   -2.1885   -7.4810   12.0311 C   0  0  0  0  0  0
   -2.3818   -6.4076   12.5670 O   0  0  0  0  0  0
   -3.2129   -8.2751   11.6551 O   0  0  0  0  0  0
   -4.2283   -6.5340   -4.0985 H   0  0  0  0  0  0
   -5.0675   -6.6411   -5.4788 H   0  0  0  0  0  0
   -3.2895   -9.8805   -6.0084 H   0  0  0  0  0  0
    0.5185  -10.2208   -3.5349 H   0  0  0  0  0  0
   -0.2649  -10.6341    1.9703 H   0  0  0  0  0  0
    4.1605  -10.0913    7.6470 H   0  0  0  0  0  0
    1.1538  -13.7115    1.8831 H   0  0  0  0  0  0
    0.5886   -4.9559   10.3141 H   0  0  0  0  0  0
   -2.9665   -9.0349   11.0822 H   0  0  0  0  0  0
  1  2  1  0  0  0
  2  3  1  0  0  0
  3  4  1  0  0  0
  4  5  1  0  0  0
  5  6  1  0  0  0
  5  7  1  0  0  0
  7  8  1  0  0  0
  7 39  1  0  0  0
  8  9  1  0  0  0
  8 27  1  0  0  0
  9 10  1  0  0  0
 10 11  1  0  0  0
 10 12  1  0  0  0
 12 13  1  0  0  0
 13 14  1  0  0  0
 13 26  1  0  0  0
 14 15  1  0  0  0
 15 16  1  0  0  0
 16 17  1  0  0  0
 17 18  1  0  0  0
 18 19  1  0  0  0
 18 25  1  0  0  0
 19 20  1  0  0  0
 20 21  1  0  0  0
 20 24  1  0  0  0
 21 22  1  0  0  0
 21 23  1  0  0  0
 23 51  1  0  0  0
 23 52  1  0  0  0
 24 53  1  0  0  0
 25 54  1  0  0  0
 26 55  1  0  0  0
 27 28  1  0  0  0
 28 29  2  0  0  0
 28 30  1  0  0  0
 30 31  1  0  0  0
 31 32  1  0  0  0
 31 36  1  0  0  0
 32 33  1  0  0  0
 33 34  2  0  0  0
 33 35  1  0  0  0
 35 56  1  0  0  0
 36 37  2  0  0  0
 36 38  1  0  0  0
 38 57  1  0  0  0
 39 40  1  0  0  0
 40 41  2  0  0  0
 40 42  1  0  0  0
 42 43  1  0  0  0
 43 44  1  0  0  0
 43 48  1  0  0  0
 44 45  1  0  0  0
 45 46  2  0  0  0
 45 47  1  0  0  0
 47 58  1  0  0  0
 48 49  2  0  0  0
 48 50  1  0  0  0
 50 59  1  0  0  0
M  END
>  <AUTHOR>
    GENERATED BY OPEN BABEL 2.4.1

>  <CHROM.1>
-176.95504355,68.80752281,89.66163414,54.14522087,86.42290519,62.46649576
-112.29141888,66.14849947,-155.86077489,-67.32241582,-48.11693727,-173.90058210
163.05458652,50.27887363,75.10853001,104.92200708,-98.21618412,-60.61883848
-76.38288385,-162.17618220,87.01913822,-56.08514258,19.79562530,-27.67976766
-172.19019099,-59.29277308,-55.93693002,-87.13788173,-67.65386864,177.19873036
156.99343180,-19.05074543,154.17454392,155.89704298,42.37947266,-109.58116285
-176.83728124,-162.39477379,-6.11194743,-1.09593394,-9.61815439,4.37501793
1.44132291,-0.44206382,1.44717408

>  <COMPND>
    UNNAMED

>  <MASTER>
        0    0    0    0    0    0    0    0  109    0  109    0

>  <Name>
FB1.pdb

>  <RI>
0

>  <Rbt.Current_Directory>
/cluster/tossine/F10/p3/0_clust01/stat

>  <Rbt.Executable>
rbdock/0.1.0

>  <Rbt.Library>
librxdock.so/0.1.0

>  <Rbt.Parameter_File>
/cluster/rxdock/data/scripts/dock.prm

>  <Rbt.Receptor>
rx_3.prm

>  <SCORE>
70.2004

>  <SCORE.INTER>
32.7063

>  <SCORE.INTER.CONST>
1

>  <SCORE.INTER.POLAR>
-0.996891

>  <SCORE.INTER.REPUL>
0.516156

>  <SCORE.INTER.ROT>
32

>  <SCORE.INTER.VDW>
-3.88509

>  <SCORE.INTER.norm>
0.654125

>  <SCORE.INTRA>
35.6926

>  <SCORE.INTRA.DIHEDRAL>
17.0789

>  <SCORE.INTRA.DIHEDRAL.0>
47.3121

>  <SCORE.INTRA.POLAR>
1.47808

>  <SCORE.INTRA.POLAR.0>
-1.47808

>  <SCORE.INTRA.REPUL>
0

>  <SCORE.INTRA.REPUL.0>
0

>  <SCORE.INTRA.VDW>
22.1276

>  <SCORE.INTRA.VDW.0>
-2.78316

>  <SCORE.INTRA.norm>
0.713851

>  <SCORE.RESTR>
1.80154

>  <SCORE.RESTR.CAVITY>
1.80154

>  <SCORE.RESTR.norm>
0.0360307

>  <SCORE.SYSTEM>
0

>  <SCORE.SYSTEM.CONST>
0

>  <SCORE.SYSTEM.DIHEDRAL>
0

>  <SCORE.SYSTEM.norm>
0

>  <SCORE.heavy>
50

>  <SCORE.norm>
1.40401

$$$$
