FB1.pdb
  RxDock  10072011363D
librxdock.so/0.1.0
 59 58  0  0  0  0  0  0  0  0999 V2000
    3.1110  -10.6223   -2.2804 C   0  0  0  0  0  0
    1.9388  -11.5496   -1.9683 C   0  0  0  0  0  0
    0.5945  -10.8048   -2.0187 C   0  0  0  0  0  0
   -0.3710  -11.1948   -0.8718 C   0  0  0  0  0  0
    0.2198  -11.0372    0.5727 C   0  0  0  0  0  0
    1.0076   -9.7081    0.6327 C   0  0  0  0  0  0
   -0.8786  -11.0979    1.7162 C   0  0  0  0  0  0
   -0.3875  -11.5556    3.1707 C   0  0  0  0  0  0
   -1.2295  -12.4481    4.1820 C   0  0  0  0  0  0
   -2.0395  -11.6085    5.3483 C   0  0  0  0  0  0
   -3.5157  -11.9978    5.2894 C   0  0  0  0  0  0
   -1.5004  -11.7791    6.8400 C   0  0  0  0  0  0
   -1.9869  -10.8739    8.0899 C   0  0  0  0  0  0
   -2.4972   -9.4026    7.9135 C   0  0  0  0  0  0
   -1.5294   -8.2085    8.3456 C   0  0  0  0  0  0
   -1.0462   -7.9477    9.8265 C   0  0  0  0  0  0
   -2.0905   -7.6097   10.9232 C   0  0  0  0  0  0
   -1.5416   -6.9196   12.2314 C   0  0  0  0  0  0
   -0.2507   -7.5047   12.8177 C   0  0  0  0  0  0
    0.4028   -6.7816   14.0295 C   0  0  0  0  0  0
    1.3544   -5.5689   13.8082 C   0  0  0  0  0  0
    1.8907   -5.3773   12.3965 C   0  0  0  0  0  0
    0.7458   -4.3240   14.3146 N   0  0  0  0  0  0
   -0.7144   -6.2490   14.7859 O   0  0  0  0  0  0
   -1.3226   -5.5347   11.9417 O   0  0  0  0  0  0
   -3.0973  -11.5908    8.6554 O   0  0  0  0  0  0
    0.8416  -12.3043    2.9676 O   0  0  0  0  0  0
    2.0025  -11.5989    2.9779 C   0  0  0  0  0  0
    3.0144  -11.8698    2.3599 O   0  0  0  0  0  0
    1.7995  -10.3603    3.8063 C   0  0  0  0  0  0
    2.1430  -10.5786    5.2885 C   0  0  0  0  0  0
    1.6054  -11.9105    5.8274 C   0  0  0  0  0  0
    2.4992  -13.0612    5.4269 C   0  0  0  0  0  0
    2.2620  -13.8079    4.4837 O   0  0  0  0  0  0
    3.5850  -13.1898    6.2037 O   0  0  0  0  0  0
    3.6754  -10.5577    5.3738 C   0  0  0  0  0  0
    4.3988  -10.6007    4.3903 O   0  0  0  0  0  0
    4.1595  -10.5381    6.6233 O   0  0  0  0  0  0
   -1.6684   -9.8434    1.7672 O   0  0  0  0  0  0
   -2.4161   -9.4898    0.6563 C   0  0  0  0  0  0
   -2.8875  -10.2837   -0.1473 O   0  0  0  0  0  0
   -2.5973   -7.9711    0.5339 C   0  0  0  0  0  0
   -3.9794   -7.4956   -0.0121 C   0  0  0  0  0  0
   -5.0829   -7.1589    1.0074 C   0  0  0  0  0  0
   -5.7171   -5.8198    0.7644 C   0  0  0  0  0  0
   -5.3637   -4.7613    1.2657 O   0  0  0  0  0  0
   -6.7386   -5.8856   -0.1031 O   0  0  0  0  0  0
   -3.9060   -6.3270   -1.0026 C   0  0  0  0  0  0
   -4.4268   -6.3579   -2.1001 O   0  0  0  0  0  0
   -3.3119   -5.2086   -0.5361 O   0  0  0  0  0  0
    0.0272   -4.0140   13.6619 H   0  0  0  0  0  0
    1.4524   -3.5851   14.2989 H   0  0  0  0  0  0
   -0.3413   -5.4826   15.2704 H   0  0  0  0  0  0
   -0.8308   -5.4737   11.1021 H   0  0  0  0  0  0
   -3.8180  -11.5917    8.0034 H   0  0  0  0  0  0
    4.0529  -14.0434    6.1277 H   0  0  0  0  0  0
    3.7874  -11.2355    7.2182 H   0  0  0  0  0  0
   -7.0640   -4.9688   -0.2247 H   0  0  0  0  0  0
   -2.9408   -5.2779    0.3714 H   0  0  0  0  0  0
  1  2  1  0  0  0
  2  3  1  0  0  0
  3  4  1  0  0  0
  4  5  1  0  0  0
  5  6  1  0  0  0
  5  7  1  0  0  0
  7  8  1  0  0  0
  7 39  1  0  0  0
  8  9  1  0  0  0
  8 27  1  0  0  0
  9 10  1  0  0  0
 10 11  1  0  0  0
 10 12  1  0  0  0
 12 13  1  0  0  0
 13 14  1  0  0  0
 13 26  1  0  0  0
 14 15  1  0  0  0
 15 16  1  0  0  0
 16 17  1  0  0  0
 17 18  1  0  0  0
 18 19  1  0  0  0
 18 25  1  0  0  0
 19 20  1  0  0  0
 20 21  1  0  0  0
 20 24  1  0  0  0
 21 22  1  0  0  0
 21 23  1  0  0  0
 23 51  1  0  0  0
 23 52  1  0  0  0
 24 53  1  0  0  0
 25 54  1  0  0  0
 26 55  1  0  0  0
 27 28  1  0  0  0
 28 29  2  0  0  0
 28 30  1  0  0  0
 30 31  1  0  0  0
 31 32  1  0  0  0
 31 36  1  0  0  0
 32 33  1  0  0  0
 33 34  2  0  0  0
 33 35  1  0  0  0
 35 56  1  0  0  0
 36 37  2  0  0  0
 36 38  1  0  0  0
 38 57  1  0  0  0
 39 40  1  0  0  0
 40 41  2  0  0  0
 40 42  1  0  0  0
 42 43  1  0  0  0
 43 44  1  0  0  0
 43 48  1  0  0  0
 44 45  1  0  0  0
 45 46  2  0  0  0
 45 47  1  0  0  0
 47 58  1  0  0  0
 48 49  2  0  0  0
 48 50  1  0  0  0
 50 59  1  0  0  0
M  END
>  <AUTHOR>
    GENERATED BY OPEN BABEL 2.4.1

>  <CHROM.1>
-138.20314585,54.83093591,42.20354864,155.20808310,-143.44821071,61.93763722
-97.91283625,89.56781292,125.24364525,169.73725180,-28.12529630,-104.88603504
-65.89291983,-64.17281008,-62.60402553,-160.97641553,-43.93630037,174.50785508
-47.77024578,-84.09562262,-15.76407968,-154.44491574,-75.58564625,-149.77588874
90.19588096,-43.19434082,79.72811996,-11.63942895,-99.38829563,164.62519927
50.90913326,28.32268449,-143.71477269,93.19620822,129.69649985,127.24427207
-91.96978660,-177.86844212,3.48151403,-0.61447165,-9.29278977,4.80433144
-1.73682579,-0.71021139,1.30045134

>  <COMPND>
    UNNAMED

>  <MASTER>
        0    0    0    0    0    0    0    0  109    0  109    0

>  <Name>
FB1.pdb

>  <RI>
0

>  <Rbt.Current_Directory>
/cluster/tossine/F10/p3/0_clust01/stat

>  <Rbt.Executable>
rbdock/0.1.0

>  <Rbt.Library>
librxdock.so/0.1.0

>  <Rbt.Parameter_File>
/cluster/rxdock/data/scripts/dock.prm

>  <Rbt.Receptor>
rx_3.prm

>  <SCORE>
61.185

>  <SCORE.INTER>
12.7081

>  <SCORE.INTER.CONST>
1

>  <SCORE.INTER.POLAR>
-2.43397

>  <SCORE.INTER.REPUL>
0.222852

>  <SCORE.INTER.ROT>
32

>  <SCORE.INTER.VDW>
-17.5306

>  <SCORE.INTER.norm>
0.254163

>  <SCORE.INTRA>
38.0798

>  <SCORE.INTRA.DIHEDRAL>
46.2521

>  <SCORE.INTRA.DIHEDRAL.0>
47.3121

>  <SCORE.INTRA.POLAR>
0.929199

>  <SCORE.INTRA.POLAR.0>
-1.47808

>  <SCORE.INTRA.REPUL>
0

>  <SCORE.INTRA.REPUL.0>
0

>  <SCORE.INTRA.VDW>
11.7945

>  <SCORE.INTRA.VDW.0>
-2.78316

>  <SCORE.INTRA.norm>
0.761596

>  <SCORE.RESTR>
10.3971

>  <SCORE.RESTR.CAVITY>
10.3971

>  <SCORE.RESTR.norm>
0.207942

>  <SCORE.SYSTEM>
0

>  <SCORE.SYSTEM.CONST>
0

>  <SCORE.SYSTEM.DIHEDRAL>
0

>  <SCORE.SYSTEM.norm>
0

>  <SCORE.heavy>
50

>  <SCORE.norm>
1.2237

$$$$
