FB1.pdb
  RxDock  10072011533D
librxdock.so/0.1.0
 59 58  0  0  0  0  0  0  0  0999 V2000
    8.9176   -0.5172   -6.2100 C   0  0  0  0  0  0
    7.5093   -0.1783   -6.6927 C   0  0  0  0  0  0
    6.8634   -1.3581   -7.4378 C   0  0  0  0  0  0
    7.4458   -1.5868   -8.8549 C   0  0  0  0  0  0
    7.3313   -3.0577   -9.3878 C   0  0  0  0  0  0
    7.9867   -4.0013   -8.3530 C   0  0  0  0  0  0
    5.8408   -3.5042   -9.6990 C   0  0  0  0  0  0
    5.5003   -5.0609   -9.5344 C   0  0  0  0  0  0
    5.8527   -5.9450   -8.2607 C   0  0  0  0  0  0
    4.7831   -7.1575   -7.9332 C   0  0  0  0  0  0
    5.2791   -8.4365   -8.6057 C   0  0  0  0  0  0
    4.4935   -7.4419   -6.3905 C   0  0  0  0  0  0
    3.6743   -8.7254   -5.8424 C   0  0  0  0  0  0
    2.7947   -8.6698   -4.5466 C   0  0  0  0  0  0
    1.7489   -9.8487   -4.2900 C   0  0  0  0  0  0
    2.1317  -11.2641   -3.7030 C   0  0  0  0  0  0
    1.0155  -12.1913   -3.1535 C   0  0  0  0  0  0
    0.4912  -11.8787   -1.6987 C   0  0  0  0  0  0
   -0.0080  -10.4501   -1.4488 C   0  0  0  0  0  0
   -0.6856  -10.1338   -0.0853 C   0  0  0  0  0  0
   -0.0081  -10.5558    1.2519 C   0  0  0  0  0  0
    1.4880  -10.2980    1.3643 C   0  0  0  0  0  0
   -0.7290   -9.9898    2.4079 N   0  0  0  0  0  0
   -0.7489   -8.6856   -0.0335 O   0  0  0  0  0  0
   -0.5739  -12.7900   -1.4077 O   0  0  0  0  0  0
    2.7618   -9.0610   -6.9013 O   0  0  0  0  0  0
    4.0575   -5.1772   -9.6652 O   0  0  0  0  0  0
    3.5907   -6.0617  -10.5845 C   0  0  0  0  0  0
    4.0368   -7.1713  -10.8065 O   0  0  0  0  0  0
    2.3576   -5.4813  -11.2202 C   0  0  0  0  0  0
    1.0634   -6.1130  -10.6830 C   0  0  0  0  0  0
   -0.0493   -6.1627  -11.7378 C   0  0  0  0  0  0
   -1.4020   -6.3612  -11.0943 C   0  0  0  0  0  0
   -1.5627   -6.5240   -9.8896 O   0  0  0  0  0  0
   -2.4182   -6.3408  -11.9694 O   0  0  0  0  0  0
    1.4380   -7.5363  -10.2471 C   0  0  0  0  0  0
    1.9980   -8.3338  -10.9839 O   0  0  0  0  0  0
    1.0552   -7.8523   -9.0023 O   0  0  0  0  0  0
    4.8645   -2.6449   -8.9861 O   0  0  0  0  0  0
    3.9907   -1.8767   -9.7374 C   0  0  0  0  0  0
    3.5371   -2.2027  -10.8266 O   0  0  0  0  0  0
    3.6421   -0.5494   -9.0512 C   0  0  0  0  0  0
    2.8488   -0.6668   -7.7127 C   0  0  0  0  0  0
    2.2493    0.6178   -7.1122 C   0  0  0  0  0  0
    2.9891    1.0980   -5.8970 C   0  0  0  0  0  0
    2.6683    0.8851   -4.7358 O   0  0  0  0  0  0
    4.0916    1.7959   -6.2099 O   0  0  0  0  0  0
    1.7379   -1.7243   -7.7205 C   0  0  0  0  0  0
    0.6002   -1.4842   -8.0734 O   0  0  0  0  0  0
    2.1292   -2.9779   -7.4096 O   0  0  0  0  0  0
   -0.1745  -10.1339    3.2506 H   0  0  0  0  0  0
   -1.5825  -10.5323    2.5581 H   0  0  0  0  0  0
   -1.4140   -8.4433   -0.7118 H   0  0  0  0  0  0
   -0.2048  -13.6921   -1.3851 H   0  0  0  0  0  0
    2.1241   -8.3331   -6.9907 H   0  0  0  0  0  0
   -3.2786   -6.6373  -11.6156 H   0  0  0  0  0  0
    1.4107   -8.7137   -8.6702 H   0  0  0  0  0  0
    4.4733    2.1129   -5.3642 H   0  0  0  0  0  0
    1.4404   -3.6710   -7.5158 H   0  0  0  0  0  0
  1  2  1  0  0  0
  2  3  1  0  0  0
  3  4  1  0  0  0
  4  5  1  0  0  0
  5  6  1  0  0  0
  5  7  1  0  0  0
  7  8  1  0  0  0
  7 39  1  0  0  0
  8  9  1  0  0  0
  8 27  1  0  0  0
  9 10  1  0  0  0
 10 11  1  0  0  0
 10 12  1  0  0  0
 12 13  1  0  0  0
 13 14  1  0  0  0
 13 26  1  0  0  0
 14 15  1  0  0  0
 15 16  1  0  0  0
 16 17  1  0  0  0
 17 18  1  0  0  0
 18 19  1  0  0  0
 18 25  1  0  0  0
 19 20  1  0  0  0
 20 21  1  0  0  0
 20 24  1  0  0  0
 21 22  1  0  0  0
 21 23  1  0  0  0
 23 51  1  0  0  0
 23 52  1  0  0  0
 24 53  1  0  0  0
 25 54  1  0  0  0
 26 55  1  0  0  0
 27 28  1  0  0  0
 28 29  2  0  0  0
 28 30  1  0  0  0
 30 31  1  0  0  0
 31 32  1  0  0  0
 31 36  1  0  0  0
 32 33  1  0  0  0
 33 34  2  0  0  0
 33 35  1  0  0  0
 35 56  1  0  0  0
 36 37  2  0  0  0
 36 38  1  0  0  0
 38 57  1  0  0  0
 39 40  1  0  0  0
 40 41  2  0  0  0
 40 42  1  0  0  0
 42 43  1  0  0  0
 43 44  1  0  0  0
 43 48  1  0  0  0
 44 45  1  0  0  0
 45 46  2  0  0  0
 45 47  1  0  0  0
 47 58  1  0  0  0
 48 49  2  0  0  0
 48 50  1  0  0  0
 50 59  1  0  0  0
M  END
>  <AUTHOR>
    GENERATED BY OPEN BABEL 2.4.1

>  <CHROM.1>
-73.77953979,153.87933581,-54.88232058,-150.43977279,49.91460239,116.90412702
148.04575895,126.53824895,93.35274665,-169.70324969,-148.28827856,164.84319476
-66.08077737,79.92002456,164.16355213,-79.95603633,54.74860952,173.06436052
64.85219174,49.24377043,43.95447518,69.72089401,-169.64215162,40.86944194
-103.11857101,-148.31591590,-161.79538912,-53.55791717,-3.24612558,168.56357370
-171.27590140,32.69882847,-65.04215722,-169.06211011,-106.89035768,-88.96382856
-97.63371972,176.52064054,-173.23023133,2.76534966,-5.65853540,-6.89995046
-0.74433006,1.08233518,1.68340080

>  <COMPND>
    UNNAMED

>  <MASTER>
        0    0    0    0    0    0    0    0  109    0  109    0

>  <Name>
FB1.pdb

>  <RI>
0

>  <Rbt.Current_Directory>
/cluster/tossine/F10/p3/0_clust01/stat

>  <Rbt.Executable>
rbdock/0.1.0

>  <Rbt.Library>
librxdock.so/0.1.0

>  <Rbt.Parameter_File>
/cluster/rxdock/data/scripts/dock.prm

>  <Rbt.Receptor>
rx_3.prm

>  <SCORE>
28.149

>  <SCORE.INTER>
-2.66379

>  <SCORE.INTER.CONST>
1

>  <SCORE.INTER.POLAR>
-1.70898

>  <SCORE.INTER.REPUL>
0.0747988

>  <SCORE.INTER.ROT>
32

>  <SCORE.INTER.VDW>
-34.6273

>  <SCORE.INTER.norm>
-0.0532758

>  <SCORE.INTRA>
22.8015

>  <SCORE.INTRA.DIHEDRAL>
30.2459

>  <SCORE.INTRA.DIHEDRAL.0>
47.3121

>  <SCORE.INTRA.POLAR>
0.947129

>  <SCORE.INTRA.POLAR.0>
-1.47808

>  <SCORE.INTRA.REPUL>
0.00399433

>  <SCORE.INTRA.REPUL.0>
0

>  <SCORE.INTRA.VDW>
4.4383

>  <SCORE.INTRA.VDW.0>
-2.78316

>  <SCORE.INTRA.norm>
0.45603

>  <SCORE.RESTR>
8.01131

>  <SCORE.RESTR.CAVITY>
8.01131

>  <SCORE.RESTR.norm>
0.160226

>  <SCORE.SYSTEM>
0

>  <SCORE.SYSTEM.CONST>
0

>  <SCORE.SYSTEM.DIHEDRAL>
0

>  <SCORE.SYSTEM.norm>
0

>  <SCORE.heavy>
50

>  <SCORE.norm>
0.56298

$$$$
