FB1.pdb
  RxDock  10072012033D
librxdock.so/0.1.0
 59 58  0  0  0  0  0  0  0  0999 V2000
   -7.2554  -11.5892    4.4920 C   0  0  0  0  0  0
   -5.8084  -11.1742    4.2365 C   0  0  0  0  0  0
   -4.8584  -11.7308    5.3099 C   0  0  0  0  0  0
   -3.4395  -11.1114    5.2600 C   0  0  0  0  0  0
   -2.3834  -11.8009    6.1926 C   0  0  0  0  0  0
   -1.9282  -13.1170    5.5207 C   0  0  0  0  0  0
   -1.1389  -10.8768    6.5316 C   0  0  0  0  0  0
   -0.4985  -10.0484    5.3193 C   0  0  0  0  0  0
   -0.9111   -8.5706    4.9021 C   0  0  0  0  0  0
   -2.4350   -8.4163    4.2896 C   0  0  0  0  0  0
   -2.8338   -6.9426    4.3465 C   0  0  0  0  0  0
   -2.6587   -8.9744    2.8120 C   0  0  0  0  0  0
   -1.8631   -8.4378    1.5091 C   0  0  0  0  0  0
   -1.6011   -9.3395    0.2543 C   0  0  0  0  0  0
   -0.6570  -10.6160    0.4228 C   0  0  0  0  0  0
    0.5935  -10.9234   -0.4918 C   0  0  0  0  0  0
    1.9522  -10.2404   -0.1840 C   0  0  0  0  0  0
    3.2328  -10.8912   -0.8365 C   0  0  0  0  0  0
    3.5674  -10.4468   -2.2658 C   0  0  0  0  0  0
    2.3947  -10.0622   -3.2120 C   0  0  0  0  0  0
    2.6773   -9.4122   -4.5987 C   0  0  0  0  0  0
    3.4717   -8.1136   -4.5890 C   0  0  0  0  0  0
    3.2777  -10.3907   -5.5252 N   0  0  0  0  0  0
    1.7382  -11.3199   -3.5137 O   0  0  0  0  0  0
    4.3540  -10.5994    0.0047 O   0  0  0  0  0  0
   -2.6500   -7.3375    1.0227 O   0  0  0  0  0  0
    0.9258   -9.9600    5.5950 O   0  0  0  0  0  0
    1.6385  -11.1149    5.5353 C   0  0  0  0  0  0
    1.2444  -12.1820    5.1046 O   0  0  0  0  0  0
    3.0410  -10.8333    5.9991 C   0  0  0  0  0  0
    3.8142   -9.9290    5.0260 C   0  0  0  0  0  0
    4.4145   -8.6980    5.7171 C   0  0  0  0  0  0
    5.4797   -9.0967    6.7120 C   0  0  0  0  0  0
    5.9688  -10.2197    6.7683 O   0  0  0  0  0  0
    5.8443   -8.1004    7.5325 O   0  0  0  0  0  0
    4.9336  -10.8002    4.4395 C   0  0  0  0  0  0
    4.9827  -12.0118    4.5875 O   0  0  0  0  0  0
    5.8847  -10.1151    3.7899 O   0  0  0  0  0  0
   -1.4161  -10.0150    7.7065 O   0  0  0  0  0  0
   -2.3365   -8.9893    7.5689 C   0  0  0  0  0  0
   -3.3249   -9.0327    6.8481 O   0  0  0  0  0  0
   -1.9840   -7.7691    8.4299 C   0  0  0  0  0  0
   -0.9010   -8.0051    9.5280 C   0  0  0  0  0  0
   -0.1724   -6.7759   10.1013 C   0  0  0  0  0  0
   -0.8689   -6.1840   11.2925 C   0  0  0  0  0  0
   -2.0800   -6.1240   11.4540 O   0  0  0  0  0  0
   -0.0086   -5.7232   12.2134 O   0  0  0  0  0  0
   -1.3736   -8.8478   10.7191 C   0  0  0  0  0  0
   -1.1773   -8.5265   11.8745 O   0  0  0  0  0  0
   -2.1219   -9.9261   10.4053 O   0  0  0  0  0  0
    3.9704  -10.9445   -5.0233 H   0  0  0  0  0  0
    3.8103   -9.8837   -6.2357 H   0  0  0  0  0  0
    0.7898  -11.0879   -3.6027 H   0  0  0  0  0  0
    4.9651  -10.0243   -0.4916 H   0  0  0  0  0  0
   -2.5273   -6.5885    1.6297 H   0  0  0  0  0  0
    5.3481   -7.2667    7.4216 H   0  0  0  0  0  0
    6.7141   -9.9715    4.3099 H   0  0  0  0  0  0
    0.8643   -6.1182   12.0054 H   0  0  0  0  0  0
   -2.0642  -10.2189    9.4687 H   0  0  0  0  0  0
  1  2  1  0  0  0
  2  3  1  0  0  0
  3  4  1  0  0  0
  4  5  1  0  0  0
  5  6  1  0  0  0
  5  7  1  0  0  0
  7  8  1  0  0  0
  7 39  1  0  0  0
  8  9  1  0  0  0
  8 27  1  0  0  0
  9 10  1  0  0  0
 10 11  1  0  0  0
 10 12  1  0  0  0
 12 13  1  0  0  0
 13 14  1  0  0  0
 13 26  1  0  0  0
 14 15  1  0  0  0
 15 16  1  0  0  0
 16 17  1  0  0  0
 17 18  1  0  0  0
 18 19  1  0  0  0
 18 25  1  0  0  0
 19 20  1  0  0  0
 20 21  1  0  0  0
 20 24  1  0  0  0
 21 22  1  0  0  0
 21 23  1  0  0  0
 23 51  1  0  0  0
 23 52  1  0  0  0
 24 53  1  0  0  0
 25 54  1  0  0  0
 26 55  1  0  0  0
 27 28  1  0  0  0
 28 29  2  0  0  0
 28 30  1  0  0  0
 30 31  1  0  0  0
 31 32  1  0  0  0
 31 36  1  0  0  0
 32 33  1  0  0  0
 33 34  2  0  0  0
 33 35  1  0  0  0
 35 56  1  0  0  0
 36 37  2  0  0  0
 36 38  1  0  0  0
 38 57  1  0  0  0
 39 40  1  0  0  0
 40 41  2  0  0  0
 40 42  1  0  0  0
 42 43  1  0  0  0
 43 44  1  0  0  0
 43 48  1  0  0  0
 44 45  1  0  0  0
 45 46  2  0  0  0
 45 47  1  0  0  0
 47 58  1  0  0  0
 48 49  2  0  0  0
 48 50  1  0  0  0
 50 59  1  0  0  0
M  END
>  <AUTHOR>
    GENERATED BY OPEN BABEL 2.4.1

>  <CHROM.1>
-168.41188861,-171.29281304,77.30723259,-43.90569370,91.65118739,-69.81867529
-67.45643857,67.77296613,162.68429214,-60.00600457,152.29315252,-65.04292088
73.24423728,-127.30211034,82.78204596,162.43332435,85.39616199,-31.57853916
-114.84696249,171.20627518,-57.65791495,146.36487110,-41.73123478,10.40327388
-67.86597266,126.47064581,65.59361455,11.25601860,12.82794169,3.28544823
100.92116615,32.98054928,-13.98242732,160.27601139,89.52324054,-132.45277152
-35.59190670,-16.24310928,17.77027036,0.32978724,-9.62118947,4.43699698,1.91151487
0.02267415,1.41304509

>  <COMPND>
    UNNAMED

>  <MASTER>
        0    0    0    0    0    0    0    0  109    0  109    0

>  <Name>
FB1.pdb

>  <RI>
0

>  <Rbt.Current_Directory>
/cluster/tossine/F10/p3/0_clust01/stat

>  <Rbt.Executable>
rbdock/0.1.0

>  <Rbt.Library>
librxdock.so/0.1.0

>  <Rbt.Parameter_File>
/cluster/rxdock/data/scripts/dock.prm

>  <Rbt.Receptor>
rx_3.prm

>  <SCORE>
43.7825

>  <SCORE.INTER>
9.9123

>  <SCORE.INTER.CONST>
1

>  <SCORE.INTER.POLAR>
-1.35568

>  <SCORE.INTER.REPUL>
0.232937

>  <SCORE.INTER.ROT>
32

>  <SCORE.INTER.VDW>
-24.0431

>  <SCORE.INTER.norm>
0.198246

>  <SCORE.INTRA>
31.9358

>  <SCORE.INTRA.DIHEDRAL>
43.0531

>  <SCORE.INTRA.DIHEDRAL.0>
47.3121

>  <SCORE.INTRA.POLAR>
0.478077

>  <SCORE.INTRA.POLAR.0>
-1.47808

>  <SCORE.INTRA.REPUL>
0.207703

>  <SCORE.INTRA.REPUL.0>
0

>  <SCORE.INTRA.VDW>
7.74527

>  <SCORE.INTRA.VDW.0>
-2.78316

>  <SCORE.INTRA.norm>
0.638716

>  <SCORE.RESTR>
1.9344

>  <SCORE.RESTR.CAVITY>
1.9344

>  <SCORE.RESTR.norm>
0.0386879

>  <SCORE.SYSTEM>
0

>  <SCORE.SYSTEM.CONST>
0

>  <SCORE.SYSTEM.DIHEDRAL>
0

>  <SCORE.SYSTEM.norm>
0

>  <SCORE.heavy>
50

>  <SCORE.norm>
0.87565

$$$$
