FB1.pdb
  RxDock  10072012073D
librxdock.so/0.1.0
 59 58  0  0  0  0  0  0  0  0999 V2000
   -6.0561  -12.5139    5.0339 C   0  0  0  0  0  0
   -5.2896  -11.4054    5.7515 C   0  0  0  0  0  0
   -4.5605  -10.4835    4.7602 C   0  0  0  0  0  0
   -3.1671  -11.0113    4.3364 C   0  0  0  0  0  0
   -2.3307  -11.6700    5.4884 C   0  0  0  0  0  0
   -1.9210  -13.0916    5.0392 C   0  0  0  0  0  0
   -1.0595  -10.8207    5.9133 C   0  0  0  0  0  0
   -0.2189  -10.1336    4.7353 C   0  0  0  0  0  0
   -0.7198   -8.9160    3.8437 C   0  0  0  0  0  0
   -1.5450   -9.3407    2.4799 C   0  0  0  0  0  0
   -2.5663   -8.2473    2.1707 C   0  0  0  0  0  0
   -0.6606   -9.6285    1.1839 C   0  0  0  0  0  0
   -1.2597  -10.1483   -0.2266 C   0  0  0  0  0  0
   -0.3510  -10.4341   -1.4711 C   0  0  0  0  0  0
   -0.9808  -11.2340   -2.7010 C   0  0  0  0  0  0
   -1.2706  -10.6002   -4.1184 C   0  0  0  0  0  0
   -0.3384   -9.4855   -4.6625 C   0  0  0  0  0  0
    1.1782   -9.8706   -4.8650 C   0  0  0  0  0  0
    1.9076  -10.4275   -3.6361 C   0  0  0  0  0  0
    3.4465  -10.2262   -3.5381 C   0  0  0  0  0  0
    4.0998   -8.8867   -3.9901 C   0  0  0  0  0  0
    5.6155   -8.8002   -3.8775 C   0  0  0  0  0  0
    3.6495   -8.5130   -5.3443 N   0  0  0  0  0  0
    3.7412  -10.3285   -2.1216 O   0  0  0  0  0  0
    1.2512  -10.8405   -5.9155 O   0  0  0  0  0  0
   -1.8846  -11.4065    0.0785 O   0  0  0  0  0  0
    1.0120   -9.6537    5.3410 O   0  0  0  0  0  0
    1.9698  -10.5792    5.6081 C   0  0  0  0  0  0
    1.8487  -11.5528    6.3270 O   0  0  0  0  0  0
    3.1855  -10.2579    4.7833 C   0  0  0  0  0  0
    3.1402  -10.9032    3.3890 C   0  0  0  0  0  0
    4.3802  -10.5745    2.5478 C   0  0  0  0  0  0
    3.9921  -10.1102    1.1632 C   0  0  0  0  0  0
    2.8443  -10.1454    0.7329 O   0  0  0  0  0  0
    5.0268   -9.6510    0.4439 O   0  0  0  0  0  0
    3.0535  -12.4170    3.6275 C   0  0  0  0  0  0
    2.0593  -13.0774    3.3668 O   0  0  0  0  0  0
    4.1445  -12.9511    4.1936 O   0  0  0  0  0  0
   -1.3947   -9.8571    6.9899 O   0  0  0  0  0  0
   -2.3835   -8.9177    6.7492 C   0  0  0  0  0  0
   -2.6104   -8.4092    5.6590 O   0  0  0  0  0  0
   -3.1818   -8.5733    8.0135 C   0  0  0  0  0  0
   -2.5525   -9.0446    9.3612 C   0  0  0  0  0  0
   -2.1064  -10.5136    9.4766 C   0  0  0  0  0  0
   -3.1679  -11.4845    9.0464 C   0  0  0  0  0  0
   -3.4154  -11.8060    7.8923 O   0  0  0  0  0  0
   -3.8383  -12.0055   10.0854 O   0  0  0  0  0  0
   -1.3897   -8.1776    9.8597 C   0  0  0  0  0  0
   -0.7060   -7.5001    9.1179 O   0  0  0  0  0  0
   -1.2363   -8.1287   11.1996 O   0  0  0  0  0  0
    2.7512   -8.0363   -5.2780 H   0  0  0  0  0  0
    3.4559   -9.3674   -5.8716 H   0  0  0  0  0  0
    3.2729   -9.5681   -1.7167 H   0  0  0  0  0  0
    0.7061  -11.6074   -5.6599 H   0  0  0  0  0  0
   -1.1891  -12.0311    0.3442 H   0  0  0  0  0  0
    4.8286   -9.4523   -0.4913 H   0  0  0  0  0  0
    4.0997  -13.9305    4.3266 H   0  0  0  0  0  0
   -4.5232  -12.5979    9.7097 H   0  0  0  0  0  0
   -1.8398   -8.7108   11.7126 H   0  0  0  0  0  0
  1  2  1  0  0  0
  2  3  1  0  0  0
  3  4  1  0  0  0
  4  5  1  0  0  0
  5  6  1  0  0  0
  5  7  1  0  0  0
  7  8  1  0  0  0
  7 39  1  0  0  0
  8  9  1  0  0  0
  8 27  1  0  0  0
  9 10  1  0  0  0
 10 11  1  0  0  0
 10 12  1  0  0  0
 12 13  1  0  0  0
 13 14  1  0  0  0
 13 26  1  0  0  0
 14 15  1  0  0  0
 15 16  1  0  0  0
 16 17  1  0  0  0
 17 18  1  0  0  0
 18 19  1  0  0  0
 18 25  1  0  0  0
 19 20  1  0  0  0
 20 21  1  0  0  0
 20 24  1  0  0  0
 21 22  1  0  0  0
 21 23  1  0  0  0
 23 51  1  0  0  0
 23 52  1  0  0  0
 24 53  1  0  0  0
 25 54  1  0  0  0
 26 55  1  0  0  0
 27 28  1  0  0  0
 28 29  2  0  0  0
 28 30  1  0  0  0
 30 31  1  0  0  0
 31 32  1  0  0  0
 31 36  1  0  0  0
 32 33  1  0  0  0
 33 34  2  0  0  0
 33 35  1  0  0  0
 35 56  1  0  0  0
 36 37  2  0  0  0
 36 38  1  0  0  0
 38 57  1  0  0  0
 39 40  1  0  0  0
 40 41  2  0  0  0
 40 42  1  0  0  0
 42 43  1  0  0  0
 43 44  1  0  0  0
 43 48  1  0  0  0
 44 45  1  0  0  0
 45 46  2  0  0  0
 45 47  1  0  0  0
 47 58  1  0  0  0
 48 49  2  0  0  0
 48 50  1  0  0  0
 50 59  1  0  0  0
M  END
>  <AUTHOR>
    GENERATED BY OPEN BABEL 2.4.1

>  <CHROM.1>
-85.15254399,-39.61913934,125.39831916,-40.54558809,69.66882555,-58.60438089
-89.30675627,76.90085724,149.17150852,175.94737987,-179.29055778,167.01071871
-65.83081624,111.44930652,32.90605262,60.81733899,-55.50010860,-152.71447833
-58.26431249,39.36388760,-178.91349914,-64.02675588,83.29549664,-58.91310045
-87.73111170,179.96581897,-131.55598427,111.43417909,-7.81675589,172.44345353
-178.49765116,-33.18919433,14.06584847,-50.37783707,-50.14212681,-24.51876736
81.81642577,178.13150025,4.74198807,-0.03281793,-10.31169775,2.96971294,1.97203312
0.05056524,1.56472853

>  <COMPND>
    UNNAMED

>  <MASTER>
        0    0    0    0    0    0    0    0  109    0  109    0

>  <Name>
FB1.pdb

>  <RI>
0

>  <Rbt.Current_Directory>
/cluster/tossine/F10/p3/0_clust01/stat

>  <Rbt.Executable>
rbdock/0.1.0

>  <Rbt.Library>
librxdock.so/0.1.0

>  <Rbt.Parameter_File>
/cluster/rxdock/data/scripts/dock.prm

>  <Rbt.Receptor>
rx_3.prm

>  <SCORE>
20.1202

>  <SCORE.INTER>
2.04153

>  <SCORE.INTER.CONST>
1

>  <SCORE.INTER.POLAR>
-0.576455

>  <SCORE.INTER.REPUL>
0.0884799

>  <SCORE.INTER.ROT>
32

>  <SCORE.INTER.VDW>
-33.8409

>  <SCORE.INTER.norm>
0.0408306

>  <SCORE.INTRA>
14.6306

>  <SCORE.INTRA.DIHEDRAL>
29.2626

>  <SCORE.INTRA.DIHEDRAL.0>
47.3121

>  <SCORE.INTRA.POLAR>
0.711177

>  <SCORE.INTRA.POLAR.0>
-1.47808

>  <SCORE.INTRA.REPUL>
0

>  <SCORE.INTRA.REPUL.0>
0

>  <SCORE.INTRA.VDW>
-2.41866

>  <SCORE.INTRA.VDW.0>
-2.78316

>  <SCORE.INTRA.norm>
0.292613

>  <SCORE.RESTR>
3.44806

>  <SCORE.RESTR.CAVITY>
3.44806

>  <SCORE.RESTR.norm>
0.0689611

>  <SCORE.SYSTEM>
0

>  <SCORE.SYSTEM.CONST>
0

>  <SCORE.SYSTEM.DIHEDRAL>
0

>  <SCORE.SYSTEM.norm>
0

>  <SCORE.heavy>
50

>  <SCORE.norm>
0.402404

$$$$
