FB1.pdb
  RxDock  10072011553D
librxdock.so/0.1.0
 59 58  0  0  0  0  0  0  0  0999 V2000
    1.9035  -13.1355    6.4312 C   0  0  0  0  0  0
    0.5244  -13.6505    6.0261 C   0  0  0  0  0  0
    0.0974  -13.1130    4.6502 C   0  0  0  0  0  0
    1.0082  -13.5896    3.4913 C   0  0  0  0  0  0
    1.5711  -12.4447    2.5786 C   0  0  0  0  0  0
    2.1189  -13.0830    1.2813 C   0  0  0  0  0  0
    0.5058  -11.3156    2.2496 C   0  0  0  0  0  0
   -0.8472  -11.7820    1.5297 C   0  0  0  0  0  0
   -2.2676  -11.8936    2.2355 C   0  0  0  0  0  0
   -3.2597  -10.5933    2.0202 C   0  0  0  0  0  0
   -4.4635  -10.7426    2.9489 C   0  0  0  0  0  0
   -2.5948   -9.1588    2.2328 C   0  0  0  0  0  0
   -3.4309   -7.8068    2.5353 C   0  0  0  0  0  0
   -3.5171   -7.1748    3.9668 C   0  0  0  0  0  0
   -2.3740   -7.5323    5.0226 C   0  0  0  0  0  0
   -1.7074   -8.9573    5.1622 C   0  0  0  0  0  0
   -2.5913  -10.1840    5.5106 C   0  0  0  0  0  0
   -2.7404  -10.5342    7.0417 C   0  0  0  0  0  0
   -2.5184   -9.3801    8.0273 C   0  0  0  0  0  0
   -1.6250   -9.6367    9.2740 C   0  0  0  0  0  0
   -1.3574   -8.4991   10.3034 C   0  0  0  0  0  0
   -0.8347   -7.1849    9.7403 C   0  0  0  0  0  0
   -2.5394   -8.2741   11.1570 N   0  0  0  0  0  0
   -2.3244  -10.6635   10.0225 O   0  0  0  0  0  0
   -4.0551  -11.0620    7.2481 O   0  0  0  0  0  0
   -2.8129   -6.7993    1.7170 O   0  0  0  0  0  0
   -1.0631  -10.8555    0.4310 O   0  0  0  0  0  0
   -0.3473  -11.0670   -0.7040 C   0  0  0  0  0  0
    0.3987  -12.0030   -0.9201 O   0  0  0  0  0  0
   -0.7076   -9.9993   -1.6999 C   0  0  0  0  0  0
   -0.5675  -10.4769   -3.1541 C   0  0  0  0  0  0
   -1.2609   -9.5395   -4.1509 C   0  0  0  0  0  0
   -2.6060  -10.0867   -4.5688 C   0  0  0  0  0  0
   -3.6405   -9.4284   -4.5538 O   0  0  0  0  0  0
   -2.5627  -11.3682   -4.9622 O   0  0  0  0  0  0
    0.9400  -10.5245   -3.4391 C   0  0  0  0  0  0
    1.5570   -9.5881   -3.9236 O   0  0  0  0  0  0
    1.5191  -11.6998   -3.1578 O   0  0  0  0  0  0
    0.2381  -10.4694    3.4379 O   0  0  0  0  0  0
    1.2606  -10.2733    4.3512 C   0  0  0  0  0  0
    1.1097  -10.2208    5.5648 O   0  0  0  0  0  0
    2.6291  -10.1265    3.6729 C   0  0  0  0  0  0
    3.8258  -10.8066    4.4078 C   0  0  0  0  0  0
    5.1415  -10.9915    3.6299 C   0  0  0  0  0  0
    5.5461   -9.7662    2.8620 C   0  0  0  0  0  0
    5.0804   -9.4112    1.7879 O   0  0  0  0  0  0
    6.4914   -9.0537    3.4936 O   0  0  0  0  0  0
    4.1837  -10.1782    5.7603 C   0  0  0  0  0  0
    5.1038   -9.3972    5.9026 O   0  0  0  0  0  0
    3.3404  -10.4654    6.7739 O   0  0  0  0  0  0
   -3.1737   -9.0663   11.0648 H   0  0  0  0  0  0
   -3.0606   -7.4750   10.7891 H   0  0  0  0  0  0
   -2.2694  -11.4621    9.4563 H   0  0  0  0  0  0
   -4.0760  -11.4934    8.1222 H   0  0  0  0  0  0
   -2.9984   -7.0118    0.7869 H   0  0  0  0  0  0
   -1.6731  -11.7707   -4.9736 H   0  0  0  0  0  0
    0.9600  -12.3144   -2.6208 H   0  0  0  0  0  0
    6.3491   -9.1869    4.4545 H   0  0  0  0  0  0
    2.4043  -10.6119    6.5123 H   0  0  0  0  0  0
  1  2  1  0  0  0
  2  3  1  0  0  0
  3  4  1  0  0  0
  4  5  1  0  0  0
  5  6  1  0  0  0
  5  7  1  0  0  0
  7  8  1  0  0  0
  7 39  1  0  0  0
  8  9  1  0  0  0
  8 27  1  0  0  0
  9 10  1  0  0  0
 10 11  1  0  0  0
 10 12  1  0  0  0
 12 13  1  0  0  0
 13 14  1  0  0  0
 13 26  1  0  0  0
 14 15  1  0  0  0
 15 16  1  0  0  0
 16 17  1  0  0  0
 17 18  1  0  0  0
 18 19  1  0  0  0
 18 25  1  0  0  0
 19 20  1  0  0  0
 20 21  1  0  0  0
 20 24  1  0  0  0
 21 22  1  0  0  0
 21 23  1  0  0  0
 23 51  1  0  0  0
 23 52  1  0  0  0
 24 53  1  0  0  0
 25 54  1  0  0  0
 26 55  1  0  0  0
 27 28  1  0  0  0
 28 29  2  0  0  0
 28 30  1  0  0  0
 30 31  1  0  0  0
 31 32  1  0  0  0
 31 36  1  0  0  0
 32 33  1  0  0  0
 33 34  2  0  0  0
 33 35  1  0  0  0
 35 56  1  0  0  0
 36 37  2  0  0  0
 36 38  1  0  0  0
 38 57  1  0  0  0
 39 40  1  0  0  0
 40 41  2  0  0  0
 40 42  1  0  0  0
 42 43  1  0  0  0
 43 44  1  0  0  0
 43 48  1  0  0  0
 44 45  1  0  0  0
 45 46  2  0  0  0
 45 47  1  0  0  0
 47 58  1  0  0  0
 48 49  2  0  0  0
 48 50  1  0  0  0
 50 59  1  0  0  0
M  END
>  <AUTHOR>
    GENERATED BY OPEN BABEL 2.4.1

>  <CHROM.1>
63.77606176,-127.65418016,-164.76496527,-57.85734057,105.68317782,30.94722009
97.21626782,79.82006930,-170.09496829,-159.86298993,103.29642582,22.27659968
68.11586568,-38.03997977,-60.00557583,-91.89823675,24.25392001,-134.19775575
165.26340427,179.60232119,-52.65619121,67.37691928,15.32960489,4.68849187
-150.91000140,165.40058818,-100.34285706,-92.35320509,130.23464313,-2.95362411
-13.01494313,-142.04838416,-141.27427118,165.54686219,45.12119012,-99.79466332
-78.86259099,-30.72316720,-30.81860226,-0.09120320,-10.31312486,3.04086921
-1.57251037,0.17397048,-1.64307909

>  <COMPND>
    UNNAMED

>  <MASTER>
        0    0    0    0    0    0    0    0  109    0  109    0

>  <Name>
FB1.pdb

>  <RI>
0

>  <Rbt.Current_Directory>
/cluster/tossine/F10/p3/0_clust01/stat

>  <Rbt.Executable>
rbdock/0.1.0

>  <Rbt.Library>
librxdock.so/0.1.0

>  <Rbt.Parameter_File>
/cluster/rxdock/data/scripts/dock.prm

>  <Rbt.Receptor>
rx_3.prm

>  <SCORE>
49.0683

>  <SCORE.INTER>
21.032

>  <SCORE.INTER.CONST>
1

>  <SCORE.INTER.POLAR>
-1.36972

>  <SCORE.INTER.REPUL>
3.08695

>  <SCORE.INTER.ROT>
32

>  <SCORE.INTER.VDW>
-27.1457

>  <SCORE.INTER.norm>
0.42064

>  <SCORE.INTRA>
22.6232

>  <SCORE.INTRA.DIHEDRAL>
44.3259

>  <SCORE.INTRA.DIHEDRAL.0>
47.3121

>  <SCORE.INTRA.POLAR>
-1.09099

>  <SCORE.INTRA.POLAR.0>
-1.47808

>  <SCORE.INTRA.REPUL>
0

>  <SCORE.INTRA.REPUL.0>
0

>  <SCORE.INTRA.VDW>
4.16959

>  <SCORE.INTRA.VDW.0>
-2.78316

>  <SCORE.INTRA.norm>
0.452464

>  <SCORE.RESTR>
5.41317

>  <SCORE.RESTR.CAVITY>
5.41317

>  <SCORE.RESTR.norm>
0.108263

>  <SCORE.SYSTEM>
0

>  <SCORE.SYSTEM.CONST>
0

>  <SCORE.SYSTEM.DIHEDRAL>
0

>  <SCORE.SYSTEM.norm>
0

>  <SCORE.heavy>
50

>  <SCORE.norm>
0.981367

$$$$
