FB1.pdb
  RxDock  10072012053D
librxdock.so/0.1.0
 59 58  0  0  0  0  0  0  0  0999 V2000
    5.1927  -10.0886    2.8583 C   0  0  0  0  0  0
    5.4567  -10.7071    4.2291 C   0  0  0  0  0  0
    4.1524  -10.9409    5.0091 C   0  0  0  0  0  0
    3.3114  -12.1230    4.4659 C   0  0  0  0  0  0
    2.3249  -11.7541    3.3036 C   0  0  0  0  0  0
    1.4816  -13.0055    2.9669 C   0  0  0  0  0  0
    1.3923  -10.5136    3.6343 C   0  0  0  0  0  0
    0.6358   -9.8253    2.4014 C   0  0  0  0  0  0
    0.2145  -10.5647    1.0582 C   0  0  0  0  0  0
    1.4587  -11.2417    0.2126 C   0  0  0  0  0  0
    0.8829  -11.9559   -1.0091 C   0  0  0  0  0  0
    2.6196  -10.2485   -0.2462 C   0  0  0  0  0  0
    3.6598  -10.5607   -1.4458 C   0  0  0  0  0  0
    3.5009   -9.9435   -2.8775 C   0  0  0  0  0  0
    2.1236  -10.1718   -3.6521 C   0  0  0  0  0  0
    1.7693   -9.5193   -5.0462 C   0  0  0  0  0  0
    0.4089   -9.8433   -5.7183 C   0  0  0  0  0  0
   -0.8878   -9.4034   -4.9346 C   0  0  0  0  0  0
   -1.8397   -8.4550   -5.6741 C   0  0  0  0  0  0
   -3.3438   -8.4643   -5.2794 C   0  0  0  0  0  0
   -4.3313   -7.4324   -5.9001 C   0  0  0  0  0  0
   -4.3233   -6.0367   -5.2923 C   0  0  0  0  0  0
   -4.1739   -7.3702   -7.3656 N   0  0  0  0  0  0
   -3.8304   -9.7591   -5.7159 O   0  0  0  0  0  0
   -1.6109  -10.5864   -4.5778 O   0  0  0  0  0  0
    4.9284  -10.0811   -0.9691 O   0  0  0  0  0  0
   -0.6126   -9.3027    2.9312 O   0  0  0  0  0  0
   -1.5481  -10.2101    3.3143 C   0  0  0  0  0  0
   -1.4240  -11.4200    3.3022 O   0  0  0  0  0  0
   -2.7377   -9.4672    3.8569 C   0  0  0  0  0  0
   -3.9778  -10.3637    4.0015 C   0  0  0  0  0  0
   -4.2927  -10.7014    5.4645 C   0  0  0  0  0  0
   -5.1759  -11.9234    5.5639 C   0  0  0  0  0  0
   -6.3975  -11.8716    5.6577 O   0  0  0  0  0  0
   -4.4948  -13.0785    5.5381 O   0  0  0  0  0  0
   -5.1413   -9.5775    3.3817 C   0  0  0  0  0  0
   -5.0090   -8.4668    2.8906 O   0  0  0  0  0  0
   -6.3302  -10.1900    3.4671 O   0  0  0  0  0  0
    0.4657  -10.8228    4.7504 O   0  0  0  0  0  0
    0.0230   -9.7803    5.5475 C   0  0  0  0  0  0
    0.4294   -8.6279    5.4760 O   0  0  0  0  0  0
   -1.0507  -10.2263    6.5488 C   0  0  0  0  0  0
   -1.0920   -9.4370    7.8941 C   0  0  0  0  0  0
   -1.6388   -7.9979    7.8718 C   0  0  0  0  0  0
   -3.0180   -7.8854    8.4548 C   0  0  0  0  0  0
   -3.3423   -7.1606    9.3854 O   0  0  0  0  0  0
   -3.9065   -8.6699    7.8260 O   0  0  0  0  0  0
   -1.7951  -10.1709    9.0427 C   0  0  0  0  0  0
   -1.7341   -9.8003   10.1984 O   0  0  0  0  0  0
   -2.5818  -11.2038    8.6748 O   0  0  0  0  0  0
   -3.7595   -8.2412   -7.6943 H   0  0  0  0  0  0
   -3.4843   -6.6493   -7.5898 H   0  0  0  0  0  0
   -4.7774   -9.7651   -5.4621 H   0  0  0  0  0  0
   -2.1095  -10.8858   -5.3604 H   0  0  0  0  0  0
    5.1520  -10.5738   -0.1618 H   0  0  0  0  0  0
   -3.5319  -12.9976    5.6791 H   0  0  0  0  0  0
   -6.2808  -11.1511    3.6964 H   0  0  0  0  0  0
   -4.6894   -8.7345    8.4127 H   0  0  0  0  0  0
   -2.5665  -11.4225    7.7166 H   0  0  0  0  0  0
  1  2  1  0  0  0
  2  3  1  0  0  0
  3  4  1  0  0  0
  4  5  1  0  0  0
  5  6  1  0  0  0
  5  7  1  0  0  0
  7  8  1  0  0  0
  7 39  1  0  0  0
  8  9  1  0  0  0
  8 27  1  0  0  0
  9 10  1  0  0  0
 10 11  1  0  0  0
 10 12  1  0  0  0
 12 13  1  0  0  0
 13 14  1  0  0  0
 13 26  1  0  0  0
 14 15  1  0  0  0
 15 16  1  0  0  0
 16 17  1  0  0  0
 17 18  1  0  0  0
 18 19  1  0  0  0
 18 25  1  0  0  0
 19 20  1  0  0  0
 20 21  1  0  0  0
 20 24  1  0  0  0
 21 22  1  0  0  0
 21 23  1  0  0  0
 23 51  1  0  0  0
 23 52  1  0  0  0
 24 53  1  0  0  0
 25 54  1  0  0  0
 26 55  1  0  0  0
 27 28  1  0  0  0
 28 29  2  0  0  0
 28 30  1  0  0  0
 30 31  1  0  0  0
 31 32  1  0  0  0
 31 36  1  0  0  0
 32 33  1  0  0  0
 33 34  2  0  0  0
 33 35  1  0  0  0
 35 56  1  0  0  0
 36 37  2  0  0  0
 36 38  1  0  0  0
 38 57  1  0  0  0
 39 40  1  0  0  0
 40 41  2  0  0  0
 40 42  1  0  0  0
 42 43  1  0  0  0
 43 44  1  0  0  0
 43 48  1  0  0  0
 44 45  1  0  0  0
 45 46  2  0  0  0
 45 47  1  0  0  0
 47 58  1  0  0  0
 48 49  2  0  0  0
 48 50  1  0  0  0
 50 59  1  0  0  0
M  END
>  <AUTHOR>
    GENERATED BY OPEN BABEL 2.4.1

>  <CHROM.1>
73.13663035,-86.81106786,-175.07053024,164.47816336,27.85844151,152.03980439
-58.95302969,-69.04841357,177.68502394,-159.65502810,101.01728603,-55.43995934
60.70799449,174.89747421,178.55418301,62.50790836,122.07336619,153.97862325
-79.78494935,174.25854045,-79.88966455,179.71564724,23.02637882,2.84596108
166.10032863,107.07443404,-160.33785861,0.21848666,-95.06340243,14.30863220
-15.17491868,-6.70377896,149.84248571,72.69516296,105.23054034,168.06531540
123.16308523,164.05563875,4.62747565,-0.95482043,-9.98733002,2.10485214,-1.68614819
0.17382432,-1.48245913

>  <COMPND>
    UNNAMED

>  <MASTER>
        0    0    0    0    0    0    0    0  109    0  109    0

>  <Name>
FB1.pdb

>  <RI>
0

>  <Rbt.Current_Directory>
/cluster/tossine/F10/p3/0_clust01/stat

>  <Rbt.Executable>
rbdock/0.1.0

>  <Rbt.Library>
librxdock.so/0.1.0

>  <Rbt.Parameter_File>
/cluster/rxdock/data/scripts/dock.prm

>  <Rbt.Receptor>
rx_3.prm

>  <SCORE>
21.9638

>  <SCORE.INTER>
6.44063

>  <SCORE.INTER.CONST>
1

>  <SCORE.INTER.POLAR>
-0.966093

>  <SCORE.INTER.REPUL>
0.833788

>  <SCORE.INTER.ROT>
32

>  <SCORE.INTER.VDW>
-31.8436

>  <SCORE.INTER.norm>
0.128813

>  <SCORE.INTRA>
13.8478

>  <SCORE.INTRA.DIHEDRAL>
9.84695

>  <SCORE.INTRA.DIHEDRAL.0>
47.3121

>  <SCORE.INTRA.POLAR>
1.21568

>  <SCORE.INTRA.POLAR.0>
-1.47808

>  <SCORE.INTRA.REPUL>
0

>  <SCORE.INTRA.REPUL.0>
0

>  <SCORE.INTRA.VDW>
4.79095

>  <SCORE.INTRA.VDW.0>
-2.78316

>  <SCORE.INTRA.norm>
0.276955

>  <SCORE.RESTR>
1.67539

>  <SCORE.RESTR.CAVITY>
1.67539

>  <SCORE.RESTR.norm>
0.0335079

>  <SCORE.SYSTEM>
0

>  <SCORE.SYSTEM.CONST>
0

>  <SCORE.SYSTEM.DIHEDRAL>
0

>  <SCORE.SYSTEM.norm>
0

>  <SCORE.heavy>
50

>  <SCORE.norm>
0.439276

$$$$
