FB1.pdb
  RxDock  10072012063D
librxdock.so/0.1.0
 59 58  0  0  0  0  0  0  0  0999 V2000
    5.3737   -8.3439    6.9772 C   0  0  0  0  0  0
    5.9664   -9.4664    6.1287 C   0  0  0  0  0  0
    5.0220   -9.8763    4.9867 C   0  0  0  0  0  0
    3.7028  -10.5227    5.4782 C   0  0  0  0  0  0
    2.8083  -11.1420    4.3482 C   0  0  0  0  0  0
    2.6741  -12.6596    4.6122 C   0  0  0  0  0  0
    1.3814  -10.4592    4.2244 C   0  0  0  0  0  0
    0.5816  -10.6921    2.8561 C   0  0  0  0  0  0
    0.7363  -11.9610    1.9104 C   0  0  0  0  0  0
    0.7543  -11.6308    0.2943 C   0  0  0  0  0  0
   -0.5775  -10.9844   -0.0836 C   0  0  0  0  0  0
    1.9571  -10.7200   -0.2240 C   0  0  0  0  0  0
    3.5214  -11.0785   -0.0170 C   0  0  0  0  0  0
    4.4757  -11.3999   -1.2179 C   0  0  0  0  0  0
    4.2754  -10.5935   -2.5812 C   0  0  0  0  0  0
    3.0038   -9.7193   -2.9180 C   0  0  0  0  0  0
    2.9677   -8.8972   -4.2335 C   0  0  0  0  0  0
    2.5266   -9.6698   -5.5364 C   0  0  0  0  0  0
    1.1813   -9.2586   -6.1475 C   0  0  0  0  0  0
   -0.0447  -10.1891   -5.9255 C   0  0  0  0  0  0
   -0.8877  -10.0894   -4.6198 C   0  0  0  0  0  0
   -2.0240  -11.0912   -4.4688 C   0  0  0  0  0  0
   -0.0161  -10.0973   -3.4296 N   0  0  0  0  0  0
   -0.9645   -9.8465   -6.9934 O   0  0  0  0  0  0
    3.5482   -9.4906   -6.5233 O   0  0  0  0  0  0
    4.0871   -9.9155    0.6109 O   0  0  0  0  0  0
   -0.8299  -10.6709    3.2018 O   0  0  0  0  0  0
   -1.5520   -9.5999    2.7813 C   0  0  0  0  0  0
   -1.2649   -8.8537    1.8647 O   0  0  0  0  0  0
   -2.8279   -9.5447    3.5753 C   0  0  0  0  0  0
   -3.5358  -10.9069    3.6505 C   0  0  0  0  0  0
   -3.2882  -11.6262    4.9827 C   0  0  0  0  0  0
   -4.3482  -11.2708    5.9993 C   0  0  0  0  0  0
   -5.0635  -12.0998    6.5514 O   0  0  0  0  0  0
   -4.4333   -9.9550    6.2447 O   0  0  0  0  0  0
   -5.0331  -10.6142    3.4820 C   0  0  0  0  0  0
   -5.4849   -9.4832    3.3864 O   0  0  0  0  0  0
   -5.8146  -11.7027    3.4978 O   0  0  0  0  0  0
    0.5433  -10.7510    5.4129 O   0  0  0  0  0  0
   -0.1592   -9.7094    5.9958 C   0  0  0  0  0  0
    0.1443   -8.5272    5.9034 O   0  0  0  0  0  0
   -1.3811  -10.1986    6.7844 C   0  0  0  0  0  0
   -1.9701   -9.1878    7.8168 C   0  0  0  0  0  0
   -1.1519   -8.8920    9.0870 C   0  0  0  0  0  0
   -1.8116   -9.3926   10.3395 C   0  0  0  0  0  0
   -1.8695   -8.7928   11.4041 O   0  0  0  0  0  0
   -2.3729  -10.6003   10.1763 O   0  0  0  0  0  0
   -2.3856   -7.8370    7.2209 C   0  0  0  0  0  0
   -2.4384   -7.6314    6.0244 O   0  0  0  0  0  0
   -2.7962   -6.9117    8.1134 O   0  0  0  0  0  0
    0.2669  -11.0556   -3.2292 H   0  0  0  0  0  0
   -0.5685   -9.8106   -2.6183 H   0  0  0  0  0  0
   -1.6409  -10.5560   -6.9735 H   0  0  0  0  0  0
    3.2800   -9.9695   -7.3291 H   0  0  0  0  0  0
    3.7399   -9.1297    0.1567 H   0  0  0  0  0  0
   -3.7352   -9.4088    5.8352 H   0  0  0  0  0  0
   -6.7537  -11.5371    3.2342 H   0  0  0  0  0  0
   -2.2144  -10.8606    9.2444 H   0  0  0  0  0  0
   -2.9911   -7.2546    9.0138 H   0  0  0  0  0  0
  1  2  1  0  0  0
  2  3  1  0  0  0
  3  4  1  0  0  0
  4  5  1  0  0  0
  5  6  1  0  0  0
  5  7  1  0  0  0
  7  8  1  0  0  0
  7 39  1  0  0  0
  8  9  1  0  0  0
  8 27  1  0  0  0
  9 10  1  0  0  0
 10 11  1  0  0  0
 10 12  1  0  0  0
 12 13  1  0  0  0
 13 14  1  0  0  0
 13 26  1  0  0  0
 14 15  1  0  0  0
 15 16  1  0  0  0
 16 17  1  0  0  0
 17 18  1  0  0  0
 18 19  1  0  0  0
 18 25  1  0  0  0
 19 20  1  0  0  0
 20 21  1  0  0  0
 20 24  1  0  0  0
 21 22  1  0  0  0
 21 23  1  0  0  0
 23 51  1  0  0  0
 23 52  1  0  0  0
 24 53  1  0  0  0
 25 54  1  0  0  0
 26 55  1  0  0  0
 27 28  1  0  0  0
 28 29  2  0  0  0
 28 30  1  0  0  0
 30 31  1  0  0  0
 31 32  1  0  0  0
 31 36  1  0  0  0
 32 33  1  0  0  0
 33 34  2  0  0  0
 33 35  1  0  0  0
 35 56  1  0  0  0
 36 37  2  0  0  0
 36 38  1  0  0  0
 38 57  1  0  0  0
 39 40  1  0  0  0
 40 41  2  0  0  0
 40 42  1  0  0  0
 42 43  1  0  0  0
 43 44  1  0  0  0
 43 48  1  0  0  0
 44 45  1  0  0  0
 45 46  2  0  0  0
 45 47  1  0  0  0
 47 58  1  0  0  0
 48 49  2  0  0  0
 48 50  1  0  0  0
 50 59  1  0  0  0
M  END
>  <AUTHOR>
    GENERATED BY OPEN BABEL 2.4.1

>  <CHROM.1>
-65.90264146,-171.50801292,118.07891041,161.82070857,27.75583805,134.52303769
-138.91962366,109.68440572,-61.48658164,56.85648508,114.53979304,36.59288680
-43.75222682,-13.64608119,175.55792868,83.34382119,112.13795486,-103.59180026
179.80971231,83.71766606,-177.03145728,168.08211588,-79.39694215,21.56045425
-47.58626895,100.60850976,90.60612049,-3.48428562,122.21880400,-7.67924024
-169.88539642,-23.90042708,161.92655080,-70.57941885,-113.05595365,10.22901516
-138.40883457,-0.55857058,-13.93203255,-0.13904393,-10.07653937,2.61681793
-1.86913275,-0.03497346,-1.62202893

>  <COMPND>
    UNNAMED

>  <MASTER>
        0    0    0    0    0    0    0    0  109    0  109    0

>  <Name>
FB1.pdb

>  <RI>
0

>  <Rbt.Current_Directory>
/cluster/tossine/F10/p3/0_clust01/stat

>  <Rbt.Executable>
rbdock/0.1.0

>  <Rbt.Library>
librxdock.so/0.1.0

>  <Rbt.Parameter_File>
/cluster/rxdock/data/scripts/dock.prm

>  <Rbt.Receptor>
rx_3.prm

>  <SCORE>
47.0358

>  <SCORE.INTER>
16.2279

>  <SCORE.INTER.CONST>
1

>  <SCORE.INTER.POLAR>
-0.644906

>  <SCORE.INTER.REPUL>
1.33371

>  <SCORE.INTER.ROT>
32

>  <SCORE.INTER.VDW>
-25.648

>  <SCORE.INTER.norm>
0.324558

>  <SCORE.INTRA>
28.3343

>  <SCORE.INTRA.DIHEDRAL>
39.0237

>  <SCORE.INTRA.DIHEDRAL.0>
47.3121

>  <SCORE.INTRA.POLAR>
1.47808

>  <SCORE.INTRA.POLAR.0>
-1.47808

>  <SCORE.INTRA.REPUL>
0

>  <SCORE.INTRA.REPUL.0>
0

>  <SCORE.INTRA.VDW>
3.79704

>  <SCORE.INTRA.VDW.0>
-2.78316

>  <SCORE.INTRA.norm>
0.566687

>  <SCORE.RESTR>
2.47362

>  <SCORE.RESTR.CAVITY>
2.47362

>  <SCORE.RESTR.norm>
0.0494725

>  <SCORE.SYSTEM>
0

>  <SCORE.SYSTEM.CONST>
0

>  <SCORE.SYSTEM.DIHEDRAL>
0

>  <SCORE.SYSTEM.norm>
0

>  <SCORE.heavy>
50

>  <SCORE.norm>
0.940717

$$$$
