FB1.pdb
  RxDock  10072012053D
librxdock.so/0.1.0
 59 58  0  0  0  0  0  0  0  0999 V2000
    4.1979  -11.0631    5.5227 C   0  0  0  0  0  0
    3.4413  -10.2025    4.5137 C   0  0  0  0  0  0
    1.9393  -10.1351    4.8358 C   0  0  0  0  0  0
    1.2183  -11.5002    4.7074 C   0  0  0  0  0  0
    0.8013  -11.8933    3.2473 C   0  0  0  0  0  0
    0.3503  -13.3722    3.2527 C   0  0  0  0  0  0
   -0.3264  -10.9584    2.6374 C   0  0  0  0  0  0
   -0.5997  -11.0829    1.0638 C   0  0  0  0  0  0
   -1.2735   -9.9612    0.1606 C   0  0  0  0  0  0
   -1.1489  -10.2048   -1.4662 C   0  0  0  0  0  0
   -1.3822  -11.6870   -1.7540 C   0  0  0  0  0  0
   -2.1106   -9.3238   -2.3848 C   0  0  0  0  0  0
   -2.0820   -9.3360   -4.0027 C   0  0  0  0  0  0
   -2.6971   -8.1792   -4.8626 C   0  0  0  0  0  0
   -3.6839   -8.5656   -6.0569 C   0  0  0  0  0  0
   -4.1963   -7.5480   -7.1507 C   0  0  0  0  0  0
   -4.2547   -7.9887   -8.6373 C   0  0  0  0  0  0
   -2.9962   -7.6456   -9.5248 C   0  0  0  0  0  0
   -2.9093   -6.2085  -10.0537 C   0  0  0  0  0  0
   -1.9160   -5.9079  -11.2119 C   0  0  0  0  0  0
   -0.4035   -6.2491  -11.0658 C   0  0  0  0  0  0
    0.0395   -7.6053  -11.5968 C   0  0  0  0  0  0
    0.4348   -5.1676  -11.6171 N   0  0  0  0  0  0
   -2.3804   -6.7257  -12.3161 O   0  0  0  0  0  0
   -1.8227   -7.9171   -8.7510 O   0  0  0  0  0  0
   -0.6866   -9.3586   -4.3475 O   0  0  0  0  0  0
    0.6942  -11.3149    0.4438 O   0  0  0  0  0  0
    1.6534  -10.3748    0.6477 C   0  0  0  0  0  0
    1.6406   -9.5070    1.4999 O   0  0  0  0  0  0
    2.7932  -10.6455   -0.2951 C   0  0  0  0  0  0
    2.3953  -10.4675   -1.7690 C   0  0  0  0  0  0
    3.5298   -9.8802   -2.6183 C   0  0  0  0  0  0
    3.1406   -9.8137   -4.0769 C   0  0  0  0  0  0
    3.9516   -9.7185   -4.9917 O   0  0  0  0  0  0
    1.8160   -9.8705   -4.2795 O   0  0  0  0  0  0
    2.0281  -11.8679   -2.2790 C   0  0  0  0  0  0
    1.8757  -12.1278   -3.4629 O   0  0  0  0  0  0
    1.8387  -12.7764   -1.3122 O   0  0  0  0  0  0
   -1.5794  -11.0464    3.4262 O   0  0  0  0  0  0
   -1.6507  -10.3624    4.6284 C   0  0  0  0  0  0
   -2.1631  -10.8012    5.6498 O   0  0  0  0  0  0
   -1.0084   -8.9713    4.5476 C   0  0  0  0  0  0
   -1.8719   -7.7936    5.0970 C   0  0  0  0  0  0
   -2.8410   -7.0934    4.1269 C   0  0  0  0  0  0
   -3.5088   -8.0447    3.1764 C   0  0  0  0  0  0
   -3.2839   -8.1304    1.9770 O   0  0  0  0  0  0
   -4.3997   -8.8401    3.7879 O   0  0  0  0  0  0
   -2.6633   -8.1223    6.3689 C   0  0  0  0  0  0
   -3.7277   -8.7083    6.3514 O   0  0  0  0  0  0
   -2.0489   -7.8126    7.5299 O   0  0  0  0  0  0
    0.5042   -4.4164  -10.9319 H   0  0  0  0  0  0
   -0.0510   -4.7522  -12.4151 H   0  0  0  0  0  0
   -1.8260   -6.4510  -13.0767 H   0  0  0  0  0  0
   -1.0440   -7.7823   -9.3219 H   0  0  0  0  0  0
   -0.6153   -9.5279   -5.3018 H   0  0  0  0  0  0
    1.2660   -9.6599   -3.5007 H   0  0  0  0  0  0
    1.3232  -13.5727   -1.5931 H   0  0  0  0  0  0
   -4.7535   -9.4454    3.1024 H   0  0  0  0  0  0
   -1.0664   -7.8195    7.4996 H   0  0  0  0  0  0
  1  2  1  0  0  0
  2  3  1  0  0  0
  3  4  1  0  0  0
  4  5  1  0  0  0
  5  6  1  0  0  0
  5  7  1  0  0  0
  7  8  1  0  0  0
  7 39  1  0  0  0
  8  9  1  0  0  0
  8 27  1  0  0  0
  9 10  1  0  0  0
 10 11  1  0  0  0
 10 12  1  0  0  0
 12 13  1  0  0  0
 13 14  1  0  0  0
 13 26  1  0  0  0
 14 15  1  0  0  0
 15 16  1  0  0  0
 16 17  1  0  0  0
 17 18  1  0  0  0
 18 19  1  0  0  0
 18 25  1  0  0  0
 19 20  1  0  0  0
 20 21  1  0  0  0
 20 24  1  0  0  0
 21 22  1  0  0  0
 21 23  1  0  0  0
 23 51  1  0  0  0
 23 52  1  0  0  0
 24 53  1  0  0  0
 25 54  1  0  0  0
 26 55  1  0  0  0
 27 28  1  0  0  0
 28 29  2  0  0  0
 28 30  1  0  0  0
 30 31  1  0  0  0
 31 32  1  0  0  0
 31 36  1  0  0  0
 32 33  1  0  0  0
 33 34  2  0  0  0
 33 35  1  0  0  0
 35 56  1  0  0  0
 36 37  2  0  0  0
 36 38  1  0  0  0
 38 57  1  0  0  0
 39 40  1  0  0  0
 40 41  2  0  0  0
 40 42  1  0  0  0
 42 43  1  0  0  0
 43 44  1  0  0  0
 43 48  1  0  0  0
 44 45  1  0  0  0
 45 46  2  0  0  0
 45 47  1  0  0  0
 47 58  1  0  0  0
 48 49  2  0  0  0
 48 50  1  0  0  0
 50 59  1  0  0  0
M  END
>  <AUTHOR>
    GENERATED BY OPEN BABEL 2.4.1

>  <CHROM.1>
-65.08698963,-82.08650629,169.30660759,167.61209385,-157.68983406,77.47445441
167.55285777,-58.36970916,41.08165274,175.86182855,-160.68885107,-130.68518714
169.94946845,-169.69589742,137.61699921,-93.72212214,-80.24034202,-164.44867161
175.03253195,-56.04892855,93.51094176,173.02029532,80.27478163,15.95940882
65.14371004,144.18438502,175.82053852,-167.64367584,-160.47953595,18.80401786
160.68511623,-139.25125825,130.55581550,-88.41969352,38.21794616,-81.70446541
-108.90726720,-177.71575655,-27.70427617,-0.55911738,-9.39803447,-1.29772424
-1.51210663,0.46405444,-1.41839696

>  <COMPND>
    UNNAMED

>  <MASTER>
        0    0    0    0    0    0    0    0  109    0  109    0

>  <Name>
FB1.pdb

>  <RI>
0

>  <Rbt.Current_Directory>
/cluster/tossine/F10/p3/0_clust01/stat

>  <Rbt.Executable>
rbdock/0.1.0

>  <Rbt.Library>
librxdock.so/0.1.0

>  <Rbt.Parameter_File>
/cluster/rxdock/data/scripts/dock.prm

>  <Rbt.Receptor>
rx_3.prm

>  <SCORE>
46.2571

>  <SCORE.INTER>
12.9079

>  <SCORE.INTER.CONST>
1

>  <SCORE.INTER.POLAR>
-0.516088

>  <SCORE.INTER.REPUL>
0.00937996

>  <SCORE.INTER.ROT>
32

>  <SCORE.INTER.VDW>
-22.7843

>  <SCORE.INTER.norm>
0.258157

>  <SCORE.INTRA>
26.2653

>  <SCORE.INTRA.DIHEDRAL>
28.6684

>  <SCORE.INTRA.DIHEDRAL.0>
47.3121

>  <SCORE.INTRA.POLAR>
1.41484

>  <SCORE.INTRA.POLAR.0>
-1.47808

>  <SCORE.INTRA.REPUL>
0.162536

>  <SCORE.INTRA.REPUL.0>
0

>  <SCORE.INTRA.VDW>
6.30801

>  <SCORE.INTRA.VDW.0>
-2.78316

>  <SCORE.INTRA.norm>
0.525307

>  <SCORE.RESTR>
7.08388

>  <SCORE.RESTR.CAVITY>
7.08388

>  <SCORE.RESTR.norm>
0.141678

>  <SCORE.SYSTEM>
0

>  <SCORE.SYSTEM.CONST>
0

>  <SCORE.SYSTEM.DIHEDRAL>
0

>  <SCORE.SYSTEM.norm>
0

>  <SCORE.heavy>
50

>  <SCORE.norm>
0.925142

$$$$
