FB1.pdb
  RxDock  10072011423D
librxdock.so/0.1.0
 59 58  0  0  0  0  0  0  0  0999 V2000
   -3.6486  -11.0610    8.2393 C   0  0  0  0  0  0
   -2.8069  -11.9413    7.3184 C   0  0  0  0  0  0
   -1.3180  -11.5614    7.3721 C   0  0  0  0  0  0
   -0.3952  -12.5773    6.6536 C   0  0  0  0  0  0
   -0.1899  -12.3155    5.1207 C   0  0  0  0  0  0
   -1.5777  -12.3085    4.4392 C   0  0  0  0  0  0
    0.6029  -10.9770    4.8075 C   0  0  0  0  0  0
   -0.2268   -9.7824    4.1361 C   0  0  0  0  0  0
   -0.8765   -9.8219    2.6855 C   0  0  0  0  0  0
    0.2009   -9.8202    1.4362 C   0  0  0  0  0  0
    0.6980  -11.2490    1.2224 C   0  0  0  0  0  0
   -0.3268   -9.2249    0.0535 C   0  0  0  0  0  0
   -1.7037   -9.6805   -0.6643 C   0  0  0  0  0  0
   -1.7238  -10.4886   -2.0069 C   0  0  0  0  0  0
   -0.3648  -11.1616   -2.5062 C   0  0  0  0  0  0
    0.7837  -10.3875   -3.2654 C   0  0  0  0  0  0
    2.1705  -11.0599   -3.4437 C   0  0  0  0  0  0
    2.8725  -11.5878   -2.1331 C   0  0  0  0  0  0
    3.5239  -10.5270   -1.2370 C   0  0  0  0  0  0
    5.0709  -10.5440   -1.0796 C   0  0  0  0  0  0
    5.9936  -10.2380   -2.2963 C   0  0  0  0  0  0
    6.1655  -11.3566   -3.3144 C   0  0  0  0  0  0
    5.5930   -8.9810   -2.9566 N   0  0  0  0  0  0
    5.3543   -9.4938   -0.1201 O   0  0  0  0  0  0
    1.8950  -12.2956   -1.3629 O   0  0  0  0  0  0
   -2.3569  -10.5295    0.2944 O   0  0  0  0  0  0
   -1.3458   -9.5155    5.0244 O   0  0  0  0  0  0
   -1.3169   -8.3488    5.7196 C   0  0  0  0  0  0
   -0.3372   -7.6579    5.9252 O   0  0  0  0  0  0
   -2.7245   -7.9935    6.1120 C   0  0  0  0  0  0
   -3.6387   -7.7739    4.8961 C   0  0  0  0  0  0
   -2.9406   -7.0073    3.7655 C   0  0  0  0  0  0
   -3.7213   -7.1079    2.4756 C   0  0  0  0  0  0
   -4.8535   -6.6595    2.3313 O   0  0  0  0  0  0
   -3.0553   -7.7362    1.4956 O   0  0  0  0  0  0
   -4.0399   -9.1741    4.4117 C   0  0  0  0  0  0
   -4.4649   -9.3946    3.2877 O   0  0  0  0  0  0
   -3.9325  -10.1329    5.3417 O   0  0  0  0  0  0
    1.3722  -10.5210    5.9908 O   0  0  0  0  0  0
    2.5416  -11.1889    6.3139 C   0  0  0  0  0  0
    2.6080  -12.1533    7.0649 O   0  0  0  0  0  0
    3.7697  -10.5850    5.6201 C   0  0  0  0  0  0
    3.9039  -10.8885    4.0955 C   0  0  0  0  0  0
    5.2554  -10.6000    3.4168 C   0  0  0  0  0  0
    5.8180   -9.2555    3.7779 C   0  0  0  0  0  0
    6.1291   -8.8911    4.9036 O   0  0  0  0  0  0
    5.9738   -8.4603    2.7085 O   0  0  0  0  0  0
    3.4864  -12.3070    3.6885 C   0  0  0  0  0  0
    2.5361  -12.5339    2.9660 O   0  0  0  0  0  0
    4.3104  -13.2938    4.0992 O   0  0  0  0  0  0
    6.2122   -8.2313   -2.6514 H   0  0  0  0  0  0
    4.6671   -8.7134   -2.6153 H   0  0  0  0  0  0
    5.1850   -8.6608   -0.6088 H   0  0  0  0  0  0
    1.6660  -13.1142   -1.8404 H   0  0  0  0  0  0
   -1.8470  -11.3540    0.3627 H   0  0  0  0  0  0
   -2.1156   -7.9232    1.6839 H   0  0  0  0  0  0
   -4.2792  -11.0162    5.0619 H   0  0  0  0  0  0
    5.6074   -8.9471    1.9403 H   0  0  0  0  0  0
    5.0989  -12.9983    4.6063 H   0  0  0  0  0  0
  1  2  1  0  0  0
  2  3  1  0  0  0
  3  4  1  0  0  0
  4  5  1  0  0  0
  5  6  1  0  0  0
  5  7  1  0  0  0
  7  8  1  0  0  0
  7 39  1  0  0  0
  8  9  1  0  0  0
  8 27  1  0  0  0
  9 10  1  0  0  0
 10 11  1  0  0  0
 10 12  1  0  0  0
 12 13  1  0  0  0
 13 14  1  0  0  0
 13 26  1  0  0  0
 14 15  1  0  0  0
 15 16  1  0  0  0
 16 17  1  0  0  0
 17 18  1  0  0  0
 18 19  1  0  0  0
 18 25  1  0  0  0
 19 20  1  0  0  0
 20 21  1  0  0  0
 20 24  1  0  0  0
 21 22  1  0  0  0
 21 23  1  0  0  0
 23 51  1  0  0  0
 23 52  1  0  0  0
 24 53  1  0  0  0
 25 54  1  0  0  0
 26 55  1  0  0  0
 27 28  1  0  0  0
 28 29  2  0  0  0
 28 30  1  0  0  0
 30 31  1  0  0  0
 31 32  1  0  0  0
 31 36  1  0  0  0
 32 33  1  0  0  0
 33 34  2  0  0  0
 33 35  1  0  0  0
 35 56  1  0  0  0
 36 37  2  0  0  0
 36 38  1  0  0  0
 38 57  1  0  0  0
 39 40  1  0  0  0
 40 41  2  0  0  0
 40 42  1  0  0  0
 42 43  1  0  0  0
 43 44  1  0  0  0
 43 48  1  0  0  0
 44 45  1  0  0  0
 45 46  2  0  0  0
 45 47  1  0  0  0
 47 58  1  0  0  0
 48 49  2  0  0  0
 48 50  1  0  0  0
 50 59  1  0  0  0
M  END
>  <AUTHOR>
    GENERATED BY OPEN BABEL 2.4.1

>  <CHROM.1>
169.83918135,87.63821305,-57.25391331,-110.43974295,-65.20970376,75.68496963
-69.10823421,109.67815640,82.19157339,-51.03648978,-111.28881105,13.96988065
-69.73385351,-80.73558052,167.46247614,-53.75690631,-76.63955961,-113.94020571
68.80839450,65.87800985,-76.99908310,-71.61666770,100.02632117,-18.53725472
-61.61618952,-40.57910320,165.71351307,-160.39772562,63.21063270,-9.12365534
173.89959827,-90.36619404,-74.20534377,-166.02816150,-46.39402203,115.12177493
61.70550097,4.23704181,-0.78145485,0.70660445,-10.20726338,2.64143930,-2.42071154
0.21716304,-1.47403301

>  <COMPND>
    UNNAMED

>  <MASTER>
        0    0    0    0    0    0    0    0  109    0  109    0

>  <Name>
FB1.pdb

>  <RI>
0

>  <Rbt.Current_Directory>
/cluster/tossine/F10/p3/0_clust01/stat

>  <Rbt.Executable>
rbdock/0.1.0

>  <Rbt.Library>
librxdock.so/0.1.0

>  <Rbt.Parameter_File>
/cluster/rxdock/data/scripts/dock.prm

>  <Rbt.Receptor>
rx_3.prm

>  <SCORE>
41.2493

>  <SCORE.INTER>
11.2073

>  <SCORE.INTER.CONST>
1

>  <SCORE.INTER.POLAR>
-0.974035

>  <SCORE.INTER.REPUL>
0.0452488

>  <SCORE.INTER.ROT>
32

>  <SCORE.INTER.VDW>
-23.1072

>  <SCORE.INTER.norm>
0.224146

>  <SCORE.INTRA>
24.4759

>  <SCORE.INTRA.DIHEDRAL>
39.2301

>  <SCORE.INTRA.DIHEDRAL.0>
47.3121

>  <SCORE.INTRA.POLAR>
0.478077

>  <SCORE.INTRA.POLAR.0>
-1.47808

>  <SCORE.INTRA.REPUL>
0.128381

>  <SCORE.INTRA.REPUL.0>
0

>  <SCORE.INTRA.VDW>
2.59343

>  <SCORE.INTRA.VDW.0>
-2.78316

>  <SCORE.INTRA.norm>
0.489517

>  <SCORE.RESTR>
5.56612

>  <SCORE.RESTR.CAVITY>
5.56612

>  <SCORE.RESTR.norm>
0.111322

>  <SCORE.SYSTEM>
0

>  <SCORE.SYSTEM.CONST>
0

>  <SCORE.SYSTEM.DIHEDRAL>
0

>  <SCORE.SYSTEM.norm>
0

>  <SCORE.heavy>
50

>  <SCORE.norm>
0.824986

$$$$
