FB1.pdb
  RxDock  10072011533D
librxdock.so/0.1.0
 59 58  0  0  0  0  0  0  0  0999 V2000
   -4.8971   -7.6127    2.4859 C   0  0  0  0  0  0
   -3.6408   -6.8482    2.8963 C   0  0  0  0  0  0
   -3.5582   -6.6651    4.4208 C   0  0  0  0  0  0
   -3.3725   -7.9949    5.1933 C   0  0  0  0  0  0
   -2.0605   -8.7826    4.8487 C   0  0  0  0  0  0
   -0.8611   -8.0151    5.4512 C   0  0  0  0  0  0
   -2.0776  -10.2894    5.3457 C   0  0  0  0  0  0
   -1.1560  -11.3277    4.5463 C   0  0  0  0  0  0
   -0.5049  -11.0633    3.1200 C   0  0  0  0  0  0
   -1.5742  -10.9870    1.8662 C   0  0  0  0  0  0
   -2.1813   -9.5854    1.8311 C   0  0  0  0  0  0
   -0.9962  -11.3558    0.4258 C   0  0  0  0  0  0
   -0.3823  -10.2745   -0.6099 C   0  0  0  0  0  0
    0.3822  -10.6975   -1.9110 C   0  0  0  0  0  0
    1.9764  -10.6109   -1.9148 C   0  0  0  0  0  0
    2.8658  -10.6560   -3.2192 C   0  0  0  0  0  0
    2.3697   -9.9480   -4.5077 C   0  0  0  0  0  0
    1.2344  -10.6804   -5.3226 C   0  0  0  0  0  0
    0.3380   -9.7886   -6.1907 C   0  0  0  0  0  0
   -0.8122   -9.0033   -5.4989 C   0  0  0  0  0  0
   -2.2433   -8.9913   -6.1132 C   0  0  0  0  0  0
   -2.3684   -8.4456   -7.5288 C   0  0  0  0  0  0
   -2.8737  -10.3205   -6.0028 N   0  0  0  0  0  0
   -0.9647   -9.6391   -4.2042 O   0  0  0  0  0  0
    1.8554  -11.6578   -6.1645 O   0  0  0  0  0  0
   -1.5152   -9.5183   -1.0695 O   0  0  0  0  0  0
   -0.0238  -11.6154    5.4110 O   0  0  0  0  0  0
    0.8459  -10.5990    5.6473 C   0  0  0  0  0  0
    0.7705   -9.7818    6.5450 O   0  0  0  0  0  0
    1.9838  -10.7094    4.6703 C   0  0  0  0  0  0
    3.1475  -11.5546    5.2125 C   0  0  0  0  0  0
    3.9965  -12.1731    4.0945 C   0  0  0  0  0  0
    3.2272  -12.2328    2.7953 C   0  0  0  0  0  0
    3.4454  -11.4915    1.8432 O   0  0  0  0  0  0
    2.2779  -13.1801    2.7795 O   0  0  0  0  0  0
    4.0043  -10.6007    6.0562 C   0  0  0  0  0  0
    4.9080   -9.9250    5.5880 O   0  0  0  0  0  0
    3.7123  -10.6054    7.3642 O   0  0  0  0  0  0
   -1.8635  -10.3724    6.8110 O   0  0  0  0  0  0
   -2.9353  -10.1143    7.6493 C   0  0  0  0  0  0
   -4.0804   -9.9046    7.2710 O   0  0  0  0  0  0
   -2.5327  -10.1187    9.1299 C   0  0  0  0  0  0
   -2.3991   -8.7159    9.7998 C   0  0  0  0  0  0
   -1.9961   -8.6588   11.2846 C   0  0  0  0  0  0
   -1.4879   -7.3092   11.7030 C   0  0  0  0  0  0
   -1.9559   -6.2325   11.3590 O   0  0  0  0  0  0
   -0.4413   -7.3914   12.5385 O   0  0  0  0  0  0
   -1.4938   -7.7333    9.0466 C   0  0  0  0  0  0
   -0.2904   -7.6869    9.2091 O   0  0  0  0  0  0
   -2.1066   -6.9870    8.1038 O   0  0  0  0  0  0
   -3.8570  -10.2463   -6.2601 H   0  0  0  0  0  0
   -2.8792  -10.5987   -5.0189 H   0  0  0  0  0  0
   -1.6444   -9.1026   -3.7444 H   0  0  0  0  0  0
    2.5036  -11.2022   -6.7326 H   0  0  0  0  0  0
   -2.1276  -10.1315   -1.5094 H   0  0  0  0  0  0
    1.7788  -13.2558    1.9437 H   0  0  0  0  0  0
    2.8505  -11.0355    7.5903 H   0  0  0  0  0  0
   -0.1188   -6.4758   12.6763 H   0  0  0  0  0  0
   -3.0792   -7.1125    8.0358 H   0  0  0  0  0  0
  1  2  1  0  0  0
  2  3  1  0  0  0
  3  4  1  0  0  0
  4  5  1  0  0  0
  5  6  1  0  0  0
  5  7  1  0  0  0
  7  8  1  0  0  0
  7 39  1  0  0  0
  8  9  1  0  0  0
  8 27  1  0  0  0
  9 10  1  0  0  0
 10 11  1  0  0  0
 10 12  1  0  0  0
 12 13  1  0  0  0
 13 14  1  0  0  0
 13 26  1  0  0  0
 14 15  1  0  0  0
 15 16  1  0  0  0
 16 17  1  0  0  0
 17 18  1  0  0  0
 18 19  1  0  0  0
 18 25  1  0  0  0
 19 20  1  0  0  0
 20 21  1  0  0  0
 20 24  1  0  0  0
 21 22  1  0  0  0
 21 23  1  0  0  0
 23 51  1  0  0  0
 23 52  1  0  0  0
 24 53  1  0  0  0
 25 54  1  0  0  0
 26 55  1  0  0  0
 27 28  1  0  0  0
 28 29  2  0  0  0
 28 30  1  0  0  0
 30 31  1  0  0  0
 31 32  1  0  0  0
 31 36  1  0  0  0
 32 33  1  0  0  0
 33 34  2  0  0  0
 33 35  1  0  0  0
 35 56  1  0  0  0
 36 37  2  0  0  0
 36 38  1  0  0  0
 38 57  1  0  0  0
 39 40  1  0  0  0
 40 41  2  0  0  0
 40 42  1  0  0  0
 42 43  1  0  0  0
 43 44  1  0  0  0
 43 48  1  0  0  0
 44 45  1  0  0  0
 45 46  2  0  0  0
 45 47  1  0  0  0
 47 58  1  0  0  0
 48 49  2  0  0  0
 48 50  1  0  0  0
 50 59  1  0  0  0
M  END
>  <AUTHOR>
    GENERATED BY OPEN BABEL 2.4.1

>  <CHROM.1>
66.12196773,61.18558597,71.63606522,154.11920811,-15.10675280,79.39862705
-68.81805912,-67.27857887,81.68094440,-91.86843884,169.90108853,-102.61601013
-60.65141717,-164.45235991,37.61584009,-76.19595433,154.54922509,-79.64011417
-57.12482560,-133.69034622,-58.93373741,176.01986851,170.23756153,89.14014828
-90.85533888,155.27436729,-20.74986519,-87.91396600,106.52389292,-178.58930994
-14.70819303,5.00438842,103.60545934,-179.94069840,162.07275542,-86.29279481
40.74446118,173.87458678,3.53394410,-0.36343615,-9.71884172,3.06834740,1.65501725
-0.45244639,1.49579467

>  <COMPND>
    UNNAMED

>  <MASTER>
        0    0    0    0    0    0    0    0  109    0  109    0

>  <Name>
FB1.pdb

>  <RI>
0

>  <Rbt.Current_Directory>
/cluster/tossine/F10/p3/0_clust01/stat

>  <Rbt.Executable>
rbdock/0.1.0

>  <Rbt.Library>
librxdock.so/0.1.0

>  <Rbt.Parameter_File>
/cluster/rxdock/data/scripts/dock.prm

>  <Rbt.Receptor>
rx_3.prm

>  <SCORE>
28.5041

>  <SCORE.INTER>
1.76685

>  <SCORE.INTER.CONST>
1

>  <SCORE.INTER.POLAR>
-1.90107

>  <SCORE.INTER.REPUL>
0.348182

>  <SCORE.INTER.ROT>
32

>  <SCORE.INTER.VDW>
-30.9104

>  <SCORE.INTER.norm>
0.0353371

>  <SCORE.INTRA>
24.4173

>  <SCORE.INTRA.DIHEDRAL>
32.9057

>  <SCORE.INTRA.DIHEDRAL.0>
47.3121

>  <SCORE.INTRA.POLAR>
1.47742

>  <SCORE.INTRA.POLAR.0>
-1.47808

>  <SCORE.INTRA.REPUL>
0

>  <SCORE.INTRA.REPUL.0>
0

>  <SCORE.INTRA.VDW>
2.94118

>  <SCORE.INTRA.VDW.0>
-2.78316

>  <SCORE.INTRA.norm>
0.488346

>  <SCORE.RESTR>
2.31992

>  <SCORE.RESTR.CAVITY>
2.31992

>  <SCORE.RESTR.norm>
0.0463984

>  <SCORE.SYSTEM>
0

>  <SCORE.SYSTEM.CONST>
0

>  <SCORE.SYSTEM.DIHEDRAL>
0

>  <SCORE.SYSTEM.norm>
0

>  <SCORE.heavy>
50

>  <SCORE.norm>
0.570081

$$$$
