FB1.pdb
  RxDock  10072011523D
librxdock.so/0.1.0
 59 58  0  0  0  0  0  0  0  0999 V2000
   -4.8954   -7.6570    2.6055 C   0  0  0  0  0  0
   -4.0909   -6.5195    1.9807 C   0  0  0  0  0  0
   -3.8236   -6.7649    0.4866 C   0  0  0  0  0  0
   -2.4480   -7.4191    0.2046 C   0  0  0  0  0  0
   -2.1236   -8.6803    1.0790 C   0  0  0  0  0  0
   -3.1599   -9.7794    0.7491 C   0  0  0  0  0  0
   -0.6437   -9.2200    0.8875 C   0  0  0  0  0  0
   -0.1238  -10.3037    1.9465 C   0  0  0  0  0  0
   -1.0563  -11.2008    2.8704 C   0  0  0  0  0  0
   -1.5239  -10.4959    4.2867 C   0  0  0  0  0  0
   -0.5466  -10.9156    5.3833 C   0  0  0  0  0  0
   -1.6587   -8.9064    4.2700 C   0  0  0  0  0  0
   -2.0788   -8.0177    5.5554 C   0  0  0  0  0  0
   -3.1640   -8.4880    6.5836 C   0  0  0  0  0  0
   -3.1628  -10.0182    7.0393 C   0  0  0  0  0  0
   -3.4048  -10.5038    8.5226 C   0  0  0  0  0  0
   -2.3276  -10.2247    9.6039 C   0  0  0  0  0  0
   -2.0773   -8.7121    9.9765 C   0  0  0  0  0  0
   -1.2061   -8.4519   11.2117 C   0  0  0  0  0  0
   -0.7297   -6.9970   11.4847 C   0  0  0  0  0  0
    0.2364   -6.6893   12.6668 C   0  0  0  0  0  0
    0.4554   -5.2197   12.9979 C   0  0  0  0  0  0
   -0.1481   -7.4496   13.8712 N   0  0  0  0  0  0
    0.0048   -6.6207   10.2919 O   0  0  0  0  0  0
   -1.4691   -8.0741    8.8484 O   0  0  0  0  0  0
   -0.8700   -7.8816    6.3215 O   0  0  0  0  0  0
    0.6652  -11.2632    1.1919 O   0  0  0  0  0  0
    1.2365  -12.2779    1.8913 C   0  0  0  0  0  0
    1.3976  -13.4188    1.5017 O   0  0  0  0  0  0
    1.7341  -11.7320    3.2012 C   0  0  0  0  0  0
    3.2260  -11.3643    3.1589 C   0  0  0  0  0  0
    3.5358  -10.2805    2.1184 C   0  0  0  0  0  0
    4.9243   -9.7176    2.3145 C   0  0  0  0  0  0
    5.7715  -10.2369    3.0331 O   0  0  0  0  0  0
    5.1464   -8.5900    1.6231 O   0  0  0  0  0  0
    3.5756  -10.8578    4.5650 C   0  0  0  0  0  0
    3.7481   -9.6766    4.8247 O   0  0  0  0  0  0
    3.7259  -11.8255    5.4799 O   0  0  0  0  0  0
   -0.4090   -9.6546   -0.5110 O   0  0  0  0  0  0
   -0.8836  -10.8949   -0.9042 C   0  0  0  0  0  0
   -1.4458  -11.6918   -0.1645 O   0  0  0  0  0  0
   -0.6283  -11.1730   -2.3914 C   0  0  0  0  0  0
   -0.4634   -9.9136   -3.2975 C   0  0  0  0  0  0
    0.7855   -9.8256   -4.1936 C   0  0  0  0  0  0
    0.5922  -10.4731   -5.5344 C   0  0  0  0  0  0
    0.1345   -9.9294   -6.5301 O   0  0  0  0  0  0
    1.0006  -11.7511   -5.5507 O   0  0  0  0  0  0
   -1.6775   -9.6002   -4.1807 C   0  0  0  0  0  0
   -2.1883   -8.4988   -4.2344 O   0  0  0  0  0  0
   -2.0840  -10.6050   -4.9847 O   0  0  0  0  0  0
   -0.9838   -7.0313   14.2777 H   0  0  0  0  0  0
    0.5787   -7.3280   14.5801 H   0  0  0  0  0  0
   -0.6460   -6.7079    9.5637 H   0  0  0  0  0  0
   -0.7907   -8.6747    8.4884 H   0  0  0  0  0  0
   -0.5847   -8.7699    6.5934 H   0  0  0  0  0  0
    4.4021   -8.2886    1.0675 H   0  0  0  0  0  0
    3.6826  -12.7444    5.1158 H   0  0  0  0  0  0
    1.1709  -12.0040   -4.6188 H   0  0  0  0  0  0
   -2.4459  -11.3928   -4.5215 H   0  0  0  0  0  0
  1  2  1  0  0  0
  2  3  1  0  0  0
  3  4  1  0  0  0
  4  5  1  0  0  0
  5  6  1  0  0  0
  5  7  1  0  0  0
  7  8  1  0  0  0
  7 39  1  0  0  0
  8  9  1  0  0  0
  8 27  1  0  0  0
  9 10  1  0  0  0
 10 11  1  0  0  0
 10 12  1  0  0  0
 12 13  1  0  0  0
 13 14  1  0  0  0
 13 26  1  0  0  0
 14 15  1  0  0  0
 15 16  1  0  0  0
 16 17  1  0  0  0
 17 18  1  0  0  0
 18 19  1  0  0  0
 18 25  1  0  0  0
 19 20  1  0  0  0
 20 21  1  0  0  0
 20 24  1  0  0  0
 21 22  1  0  0  0
 21 23  1  0  0  0
 23 51  1  0  0  0
 23 52  1  0  0  0
 24 53  1  0  0  0
 25 54  1  0  0  0
 26 55  1  0  0  0
 27 28  1  0  0  0
 28 29  2  0  0  0
 28 30  1  0  0  0
 30 31  1  0  0  0
 31 32  1  0  0  0
 31 36  1  0  0  0
 32 33  1  0  0  0
 33 34  2  0  0  0
 33 35  1  0  0  0
 35 56  1  0  0  0
 36 37  2  0  0  0
 36 38  1  0  0  0
 38 57  1  0  0  0
 39 40  1  0  0  0
 40 41  2  0  0  0
 40 42  1  0  0  0
 42 43  1  0  0  0
 43 44  1  0  0  0
 43 48  1  0  0  0
 44 45  1  0  0  0
 45 46  2  0  0  0
 45 47  1  0  0  0
 47 58  1  0  0  0
 48 49  2  0  0  0
 48 50  1  0  0  0
 50 59  1  0  0  0
M  END
>  <AUTHOR>
    GENERATED BY OPEN BABEL 2.4.1

>  <CHROM.1>
-95.39584376,49.00269671,63.16510846,167.73349373,19.81798251,-79.27809132
-85.54149321,178.92150011,-94.15941264,-178.92503995,-38.36021167,41.78207689
-61.70583464,138.80510809,-69.63910107,65.91179488,169.32223574,169.82923134
-42.74536833,-175.76999379,-169.89993446,59.10826923,-74.11251146,145.05605572
-96.14553270,60.88612218,166.93893748,-105.28878127,13.13218901,-1.53308324
5.84525369,-2.88041766,-24.28304506,127.55823901,88.11995186,129.62249646
87.52685704,10.74238952,66.39950513,-0.26627734,-9.52584088,3.09229867,1.53840195
0.32293573,-1.72914610

>  <COMPND>
    UNNAMED

>  <MASTER>
        0    0    0    0    0    0    0    0  109    0  109    0

>  <Name>
FB1.pdb

>  <RI>
0

>  <Rbt.Current_Directory>
/cluster/tossine/F10/p3/0_clust01/stat

>  <Rbt.Executable>
rbdock/0.1.0

>  <Rbt.Library>
librxdock.so/0.1.0

>  <Rbt.Parameter_File>
/cluster/rxdock/data/scripts/dock.prm

>  <Rbt.Receptor>
rx_3.prm

>  <SCORE>
45.7905

>  <SCORE.INTER>
8.04696

>  <SCORE.INTER.CONST>
1

>  <SCORE.INTER.POLAR>
-0.802231

>  <SCORE.INTER.REPUL>
0.442885

>  <SCORE.INTER.ROT>
32

>  <SCORE.INTER.VDW>
-28.8399

>  <SCORE.INTER.norm>
0.160939

>  <SCORE.INTRA>
31.6148

>  <SCORE.INTRA.DIHEDRAL>
28.3517

>  <SCORE.INTRA.DIHEDRAL.0>
47.3121

>  <SCORE.INTRA.POLAR>
0.892277

>  <SCORE.INTRA.POLAR.0>
-1.47808

>  <SCORE.INTRA.REPUL>
0

>  <SCORE.INTRA.REPUL.0>
0

>  <SCORE.INTRA.VDW>
14.4053

>  <SCORE.INTRA.VDW.0>
-2.78316

>  <SCORE.INTRA.norm>
0.632297

>  <SCORE.RESTR>
6.12866

>  <SCORE.RESTR.CAVITY>
6.12866

>  <SCORE.RESTR.norm>
0.122573

>  <SCORE.SYSTEM>
0

>  <SCORE.SYSTEM.CONST>
0

>  <SCORE.SYSTEM.DIHEDRAL>
0

>  <SCORE.SYSTEM.norm>
0

>  <SCORE.heavy>
50

>  <SCORE.norm>
0.915809

$$$$
