FB1.pdb
  RxDock  10072011563D
librxdock.so/0.1.0
 59 58  0  0  0  0  0  0  0  0999 V2000
   -5.6452  -11.5425    5.8007 C   0  0  0  0  0  0
   -5.7045  -11.4490    4.2778 C   0  0  0  0  0  0
   -4.4713  -10.7329    3.7029 C   0  0  0  0  0  0
   -3.1316  -11.4173    4.0724 C   0  0  0  0  0  0
   -1.8993  -10.4514    4.1670 C   0  0  0  0  0  0
   -0.9903  -10.9355    5.3202 C   0  0  0  0  0  0
   -1.0822  -10.3329    2.8119 C   0  0  0  0  0  0
   -1.9077   -9.9300    1.4995 C   0  0  0  0  0  0
   -2.2383   -8.4418    1.0474 C   0  0  0  0  0  0
   -3.5764   -7.7788    1.7483 C   0  0  0  0  0  0
   -3.3427   -7.6937    3.2557 C   0  0  0  0  0  0
   -4.0256   -6.3515    1.1952 C   0  0  0  0  0  0
   -4.1846   -5.9958   -0.3754 C   0  0  0  0  0  0
   -5.5446   -6.1509   -1.1385 C   0  0  0  0  0  0
   -5.6116   -5.6949   -2.6672 C   0  0  0  0  0  0
   -4.5670   -6.1271   -3.7700 C   0  0  0  0  0  0
   -4.8426   -5.7883   -5.2589 C   0  0  0  0  0  0
   -3.9166   -6.4911   -6.3255 C   0  0  0  0  0  0
   -4.0570   -8.0134   -6.4492 C   0  0  0  0  0  0
   -2.9049   -8.9066   -5.9076 C   0  0  0  0  0  0
   -1.7520   -9.3674   -6.8478 C   0  0  0  0  0  0
   -2.1666   -9.9775   -8.1794 C   0  0  0  0  0  0
   -0.7712   -8.2835   -7.0469 N   0  0  0  0  0  0
   -2.2598   -8.0979   -4.8909 O   0  0  0  0  0  0
   -4.1894   -5.9040   -7.6025 O   0  0  0  0  0  0
   -3.8567   -4.5995   -0.4731 O   0  0  0  0  0  0
   -1.1827  -10.4953    0.3739 O   0  0  0  0  0  0
   -1.8220  -10.5150   -0.8245 C   0  0  0  0  0  0
   -3.0059  -10.7279   -1.0049 O   0  0  0  0  0  0
   -0.8393  -10.1272   -1.8947 C   0  0  0  0  0  0
    0.4029  -11.0322   -1.9115 C   0  0  0  0  0  0
    0.9888  -11.2017   -3.3191 C   0  0  0  0  0  0
    0.3147  -10.2761   -4.3052 C   0  0  0  0  0  0
    0.8482   -9.2738   -4.7684 O   0  0  0  0  0  0
   -0.9296  -10.6564   -4.6304 O   0  0  0  0  0  0
    1.4300  -10.3559   -0.9930 C   0  0  0  0  0  0
    2.6110  -10.6676   -0.9696 O   0  0  0  0  0  0
    0.9150   -9.4244   -0.1788 O   0  0  0  0  0  0
    0.1260   -9.4906    2.9871 O   0  0  0  0  0  0
    1.3684  -10.0732    2.8001 C   0  0  0  0  0  0
    2.1251   -9.8170    1.8726 O   0  0  0  0  0  0
    1.7064  -11.0923    3.8962 C   0  0  0  0  0  0
    3.2067  -11.1594    4.3195 C   0  0  0  0  0  0
    3.6343  -12.2720    5.2939 C   0  0  0  0  0  0
    2.9126  -12.2092    6.6091 C   0  0  0  0  0  0
    2.0536  -12.9926    6.9898 O   0  0  0  0  0  0
    3.3235  -11.1844    7.3715 O   0  0  0  0  0  0
    4.1990  -11.1754    3.1501 C   0  0  0  0  0  0
    3.9324  -11.6520    2.0645 O   0  0  0  0  0  0
    5.3618  -10.5263    3.3681 O   0  0  0  0  0  0
   -0.0323   -8.6114   -7.6674 H   0  0  0  0  0  0
   -0.3044   -8.0977   -6.1564 H   0  0  0  0  0  0
   -1.7058   -8.7309   -4.3871 H   0  0  0  0  0  0
   -3.7161   -6.4193   -8.2815 H   0  0  0  0  0  0
   -3.8783   -4.3505   -1.4122 H   0  0  0  0  0  0
   -1.2529  -11.4574   -4.1750 H   0  0  0  0  0  0
    1.5567   -9.0515    0.4754 H   0  0  0  0  0  0
    4.0680  -10.7601    6.8951 H   0  0  0  0  0  0
    5.9971  -10.5400    2.6181 H   0  0  0  0  0  0
  1  2  1  0  0  0
  2  3  1  0  0  0
  3  4  1  0  0  0
  4  5  1  0  0  0
  5  6  1  0  0  0
  5  7  1  0  0  0
  7  8  1  0  0  0
  7 39  1  0  0  0
  8  9  1  0  0  0
  8 27  1  0  0  0
  9 10  1  0  0  0
 10 11  1  0  0  0
 10 12  1  0  0  0
 12 13  1  0  0  0
 13 14  1  0  0  0
 13 26  1  0  0  0
 14 15  1  0  0  0
 15 16  1  0  0  0
 16 17  1  0  0  0
 17 18  1  0  0  0
 18 19  1  0  0  0
 18 25  1  0  0  0
 19 20  1  0  0  0
 20 21  1  0  0  0
 20 24  1  0  0  0
 21 22  1  0  0  0
 21 23  1  0  0  0
 23 51  1  0  0  0
 23 52  1  0  0  0
 24 53  1  0  0  0
 25 54  1  0  0  0
 26 55  1  0  0  0
 27 28  1  0  0  0
 28 29  2  0  0  0
 28 30  1  0  0  0
 30 31  1  0  0  0
 31 32  1  0  0  0
 31 36  1  0  0  0
 32 33  1  0  0  0
 33 34  2  0  0  0
 33 35  1  0  0  0
 35 56  1  0  0  0
 36 37  2  0  0  0
 36 38  1  0  0  0
 38 57  1  0  0  0
 39 40  1  0  0  0
 40 41  2  0  0  0
 40 42  1  0  0  0
 42 43  1  0  0  0
 43 44  1  0  0  0
 43 48  1  0  0  0
 44 45  1  0  0  0
 45 46  2  0  0  0
 45 47  1  0  0  0
 47 58  1  0  0  0
 48 49  2  0  0  0
 48 50  1  0  0  0
 50 59  1  0  0  0
M  END
>  <AUTHOR>
    GENERATED BY OPEN BABEL 2.4.1

>  <CHROM.1>
58.41650340,-150.84698079,143.52652556,54.02804827,85.67026492,117.13517981
-84.34864464,167.35902389,62.63124853,48.59464752,91.96863298,176.64909419
176.15659368,49.38071227,171.40468310,-168.20030943,66.38705239,-108.09518058
-171.99812333,-92.54556714,-49.35569744,165.04942524,-179.77939971,-37.33912140
56.47004126,148.46181468,8.19673125,-165.89579580,106.66989934,1.82797420
174.22163010,111.25396934,-144.57652167,-173.02573564,-59.70523711,-29.84735320
108.47043934,-4.60682842,179.84299185,-1.06669112,-9.48168534,-0.06282092
1.13281870,-0.39922704,1.73538017

>  <COMPND>
    UNNAMED

>  <MASTER>
        0    0    0    0    0    0    0    0  109    0  109    0

>  <Name>
FB1.pdb

>  <RI>
0

>  <Rbt.Current_Directory>
/cluster/tossine/F10/p3/0_clust01/stat

>  <Rbt.Executable>
rbdock/0.1.0

>  <Rbt.Library>
librxdock.so/0.1.0

>  <Rbt.Parameter_File>
/cluster/rxdock/data/scripts/dock.prm

>  <Rbt.Receptor>
rx_3.prm

>  <SCORE>
42.8435

>  <SCORE.INTER>
11.4097

>  <SCORE.INTER.CONST>
1

>  <SCORE.INTER.POLAR>
-1.66044

>  <SCORE.INTER.REPUL>
0.485701

>  <SCORE.INTER.ROT>
32

>  <SCORE.INTER.VDW>
-22.7733

>  <SCORE.INTER.norm>
0.228194

>  <SCORE.INTRA>
25.0279

>  <SCORE.INTRA.DIHEDRAL>
37.8639

>  <SCORE.INTRA.DIHEDRAL.0>
47.3121

>  <SCORE.INTRA.POLAR>
-0.374471

>  <SCORE.INTRA.POLAR.0>
-1.47808

>  <SCORE.INTRA.REPUL>
0.0768994

>  <SCORE.INTRA.REPUL.0>
0

>  <SCORE.INTRA.VDW>
6.98468

>  <SCORE.INTRA.VDW.0>
-2.78316

>  <SCORE.INTRA.norm>
0.500558

>  <SCORE.RESTR>
6.40591

>  <SCORE.RESTR.CAVITY>
6.40591

>  <SCORE.RESTR.norm>
0.128118

>  <SCORE.SYSTEM>
0

>  <SCORE.SYSTEM.CONST>
0

>  <SCORE.SYSTEM.DIHEDRAL>
0

>  <SCORE.SYSTEM.norm>
0

>  <SCORE.heavy>
50

>  <SCORE.norm>
0.856871

$$$$
