FB1.pdb
  RxDock  10072012053D
librxdock.so/0.1.0
 59 58  0  0  0  0  0  0  0  0999 V2000
   -5.4540   -5.2977    0.2629 C   0  0  0  0  0  0
   -4.1886   -6.1522    0.2666 C   0  0  0  0  0  0
   -4.1317   -7.0802    1.4913 C   0  0  0  0  0  0
   -2.9239   -8.0501    1.4756 C   0  0  0  0  0  0
   -2.8592   -9.0457    2.6860 C   0  0  0  0  0  0
   -4.0917   -9.9766    2.6153 C   0  0  0  0  0  0
   -1.5151   -9.8871    2.7427 C   0  0  0  0  0  0
   -0.9963  -10.5197    1.3655 C   0  0  0  0  0  0
   -1.0197   -9.7857   -0.0448 C   0  0  0  0  0  0
   -0.7868  -10.7688   -1.3489 C   0  0  0  0  0  0
   -1.8971  -10.5000   -2.3634 C   0  0  0  0  0  0
    0.6329  -10.6584   -2.0680 C   0  0  0  0  0  0
    0.8732  -10.9182   -3.6470 C   0  0  0  0  0  0
    0.4881   -9.8632   -4.7401 C   0  0  0  0  0  0
    0.1229  -10.3874   -6.2033 C   0  0  0  0  0  0
   -0.2384   -9.4471   -7.4197 C   0  0  0  0  0  0
    0.8862   -8.9648   -8.3737 C   0  0  0  0  0  0
    0.5917   -7.6585   -9.2081 C   0  0  0  0  0  0
    1.8147   -6.9100   -9.7525 C   0  0  0  0  0  0
    1.6076   -5.4811  -10.3303 C   0  0  0  0  0  0
    2.8189   -4.5205  -10.5185 C   0  0  0  0  0  0
    4.0033   -5.0689  -11.3019 C   0  0  0  0  0  0
    2.3801   -3.2226  -11.0657 N   0  0  0  0  0  0
    1.0883   -5.6969  -11.6672 O   0  0  0  0  0  0
   -0.2489   -8.0183  -10.3097 O   0  0  0  0  0  0
    2.2935  -11.0954   -3.7805 O   0  0  0  0  0  0
    0.4026  -10.8546    1.5736 O   0  0  0  0  0  0
    0.7238  -11.4615    2.7457 C   0  0  0  0  0  0
    0.1346  -12.3940    3.2582 O   0  0  0  0  0  0
    1.9985  -10.8537    3.2626 C   0  0  0  0  0  0
    3.2391  -11.6844    2.8973 C   0  0  0  0  0  0
    3.4044  -11.8606    1.3824 C   0  0  0  0  0  0
    3.4136  -10.5248    0.6760 C   0  0  0  0  0  0
    2.4004   -9.8762    0.4384 O   0  0  0  0  0  0
    4.6421  -10.1107    0.3322 O   0  0  0  0  0  0
    4.4413  -10.9221    3.4717 C   0  0  0  0  0  0
    5.1296  -10.1633    2.8063 O   0  0  0  0  0  0
    4.7066  -11.1951    4.7566 O   0  0  0  0  0  0
   -0.4450   -9.1398    3.4472 O   0  0  0  0  0  0
   -0.4041   -9.1944    4.8305 C   0  0  0  0  0  0
    0.5391   -8.8191    5.5146 O   0  0  0  0  0  0
   -1.6875   -9.7845    5.4297 C   0  0  0  0  0  0
   -1.5036  -10.6220    6.7333 C   0  0  0  0  0  0
   -2.6631  -10.6480    7.7458 C   0  0  0  0  0  0
   -3.1513   -9.2767    8.1140 C   0  0  0  0  0  0
   -2.9154   -8.6931    9.1630 O   0  0  0  0  0  0
   -3.8858   -8.7152    7.1415 O   0  0  0  0  0  0
   -1.0716  -12.0753    6.5019 C   0  0  0  0  0  0
   -0.0625  -12.5491    6.9855 O   0  0  0  0  0  0
   -1.9444  -12.8357    5.8080 O   0  0  0  0  0  0
    3.1373   -2.5471  -10.9713 H   0  0  0  0  0  0
    1.6271   -2.8580  -10.4780 H   0  0  0  0  0  0
    0.3965   -6.3827  -11.5555 H   0  0  0  0  0  0
   -1.1146   -8.2924   -9.9550 H   0  0  0  0  0  0
    2.7292  -10.2927   -3.4481 H   0  0  0  0  0  0
    4.6768   -9.2572   -0.1409 H   0  0  0  0  0  0
    5.4781  -10.7010    5.1299 H   0  0  0  0  0  0
   -4.0547   -7.7891    7.4157 H   0  0  0  0  0  0
   -1.8333  -13.8063    5.9159 H   0  0  0  0  0  0
  1  2  1  0  0  0
  2  3  1  0  0  0
  3  4  1  0  0  0
  4  5  1  0  0  0
  5  6  1  0  0  0
  5  7  1  0  0  0
  7  8  1  0  0  0
  7 39  1  0  0  0
  8  9  1  0  0  0
  8 27  1  0  0  0
  9 10  1  0  0  0
 10 11  1  0  0  0
 10 12  1  0  0  0
 12 13  1  0  0  0
 13 14  1  0  0  0
 13 26  1  0  0  0
 14 15  1  0  0  0
 15 16  1  0  0  0
 16 17  1  0  0  0
 17 18  1  0  0  0
 18 19  1  0  0  0
 18 25  1  0  0  0
 19 20  1  0  0  0
 20 21  1  0  0  0
 20 24  1  0  0  0
 21 22  1  0  0  0
 21 23  1  0  0  0
 23 51  1  0  0  0
 23 52  1  0  0  0
 24 53  1  0  0  0
 25 54  1  0  0  0
 26 55  1  0  0  0
 27 28  1  0  0  0
 28 29  2  0  0  0
 28 30  1  0  0  0
 30 31  1  0  0  0
 31 32  1  0  0  0
 31 36  1  0  0  0
 32 33  1  0  0  0
 33 34  2  0  0  0
 33 35  1  0  0  0
 35 56  1  0  0  0
 36 37  2  0  0  0
 36 38  1  0  0  0
 38 57  1  0  0  0
 39 40  1  0  0  0
 40 41  2  0  0  0
 40 42  1  0  0  0
 42 43  1  0  0  0
 43 44  1  0  0  0
 43 48  1  0  0  0
 44 45  1  0  0  0
 45 46  2  0  0  0
 45 47  1  0  0  0
 47 58  1  0  0  0
 48 49  2  0  0  0
 48 50  1  0  0  0
 50 59  1  0  0  0
M  END
>  <AUTHOR>
    GENERATED BY OPEN BABEL 2.4.1

>  <CHROM.1>
175.16904542,-178.04753174,64.06709178,-44.78737074,41.07487561,83.68926905
-165.39153176,43.95818930,129.49860977,-149.57530966,76.89993260,-152.41832566
-58.57068512,-177.92880804,91.45507830,-158.19202496,159.23920649,-167.97079287
66.82226093,162.48937005,52.49414622,45.61648588,166.61131166,46.12770196
-96.92751538,58.77816082,54.50365321,-97.02440351,-78.27566474,178.92326590
-179.67993351,167.11564913,146.40236973,150.08890910,-51.37797701,122.81018247
-104.14808169,-172.47794592,-160.05891623,0.11538990,-9.36741757,-0.15281392
1.74200609,-0.41063168,1.87116996

>  <COMPND>
    UNNAMED

>  <MASTER>
        0    0    0    0    0    0    0    0  109    0  109    0

>  <Name>
FB1.pdb

>  <RI>
0

>  <Rbt.Current_Directory>
/cluster/tossine/F10/p3/0_clust01/stat

>  <Rbt.Executable>
rbdock/0.1.0

>  <Rbt.Library>
librxdock.so/0.1.0

>  <Rbt.Parameter_File>
/cluster/rxdock/data/scripts/dock.prm

>  <Rbt.Receptor>
rx_3.prm

>  <SCORE>
11.9404

>  <SCORE.INTER>
-1.06906

>  <SCORE.INTER.CONST>
1

>  <SCORE.INTER.POLAR>
-2.78727

>  <SCORE.INTER.REPUL>
0.326153

>  <SCORE.INTER.ROT>
32

>  <SCORE.INTER.VDW>
-30.6231

>  <SCORE.INTER.norm>
-0.0213812

>  <SCORE.INTRA>
10.793

>  <SCORE.INTRA.DIHEDRAL>
12.8833

>  <SCORE.INTRA.DIHEDRAL.0>
47.3121

>  <SCORE.INTRA.POLAR>
0.612205

>  <SCORE.INTRA.POLAR.0>
-1.47808

>  <SCORE.INTRA.REPUL>
0.00327477

>  <SCORE.INTRA.REPUL.0>
0

>  <SCORE.INTRA.VDW>
2.2535

>  <SCORE.INTRA.VDW.0>
-2.78316

>  <SCORE.INTRA.norm>
0.21586

>  <SCORE.RESTR>
2.21644

>  <SCORE.RESTR.CAVITY>
2.21644

>  <SCORE.RESTR.norm>
0.0443288

>  <SCORE.SYSTEM>
0

>  <SCORE.SYSTEM.CONST>
0

>  <SCORE.SYSTEM.DIHEDRAL>
0

>  <SCORE.SYSTEM.norm>
0

>  <SCORE.heavy>
50

>  <SCORE.norm>
0.238808

$$$$
