FB1.pdb
  RxDock  10072012083D
librxdock.so/0.1.0
 59 58  0  0  0  0  0  0  0  0999 V2000
   -0.9980  -14.3791    4.9815 C   0  0  0  0  0  0
    0.5081  -14.1902    5.1465 C   0  0  0  0  0  0
    0.8362  -12.9749    6.0294 C   0  0  0  0  0  0
    0.1860  -11.6587    5.5349 C   0  0  0  0  0  0
    1.0813  -10.3799    5.6888 C   0  0  0  0  0  0
    2.4449  -10.6581    5.0152 C   0  0  0  0  0  0
    0.4150   -9.0658    5.0998 C   0  0  0  0  0  0
   -0.8111   -9.2646    4.0881 C   0  0  0  0  0  0
   -1.9365   -8.1816    3.7903 C   0  0  0  0  0  0
   -3.2952   -8.7672    3.0607 C   0  0  0  0  0  0
   -4.0102   -9.6958    4.0407 C   0  0  0  0  0  0
   -4.3222   -7.6781    2.5094 C   0  0  0  0  0  0
   -4.4127   -7.2179    0.9607 C   0  0  0  0  0  0
   -5.3667   -6.0715    0.4793 C   0  0  0  0  0  0
   -5.1082   -5.4243   -0.9572 C   0  0  0  0  0  0
   -6.0104   -4.2984   -1.6000 C   0  0  0  0  0  0
   -5.8020   -3.9079   -3.0871 C   0  0  0  0  0  0
   -6.6743   -2.7112   -3.6312 C   0  0  0  0  0  0
   -6.3857   -2.2583   -5.0679 C   0  0  0  0  0  0
   -7.1391   -1.0121   -5.6136 C   0  0  0  0  0  0
   -6.6365   -0.2813   -6.8937 C   0  0  0  0  0  0
   -5.9231    1.0463   -6.6799 C   0  0  0  0  0  0
   -5.8268   -1.1861   -7.7317 N   0  0  0  0  0  0
   -8.4608   -1.5021   -5.9555 O   0  0  0  0  0  0
   -8.0515   -3.0924   -3.5425 O   0  0  0  0  0  0
   -3.0881   -6.7669    0.6312 O   0  0  0  0  0  0
   -0.2240   -9.5404    2.7875 O   0  0  0  0  0  0
    0.2802  -10.7862    2.5899 C   0  0  0  0  0  0
   -0.2730  -11.8366    2.8547 O   0  0  0  0  0  0
    1.6053  -10.6581    1.8905 C   0  0  0  0  0  0
    1.5008  -10.9085    0.3776 C   0  0  0  0  0  0
    0.4746   -9.9923   -0.3013 C   0  0  0  0  0  0
    0.0301  -10.5611   -1.6288 C   0  0  0  0  0  0
   -1.0965  -10.9989   -1.8361 O   0  0  0  0  0  0
    0.9887  -10.5410   -2.5666 O   0  0  0  0  0  0
    2.9010  -10.6415   -0.1918 C   0  0  0  0  0  0
    3.6152   -9.7287    0.1945 O   0  0  0  0  0  0
    3.2596  -11.4645   -1.1869 O   0  0  0  0  0  0
    0.0929   -8.0994    6.1779 O   0  0  0  0  0  0
   -0.9864   -8.3682    7.0031 C   0  0  0  0  0  0
   -1.9985   -8.9620    6.6546 O   0  0  0  0  0  0
   -0.7795   -7.8356    8.4271 C   0  0  0  0  0  0
   -1.3277   -8.7395    9.5747 C   0  0  0  0  0  0
   -1.1059   -8.2789   11.0269 C   0  0  0  0  0  0
   -0.8473   -6.8043   11.1416 C   0  0  0  0  0  0
    0.2459   -6.2626   11.0531 O   0  0  0  0  0  0
   -1.9721   -6.1000   11.3398 O   0  0  0  0  0  0
   -2.8090   -9.1135    9.4395 C   0  0  0  0  0  0
   -3.2273  -10.2368    9.6390 O   0  0  0  0  0  0
   -3.6454   -8.0851    9.1863 O   0  0  0  0  0  0
   -5.4608   -0.6658   -8.5278 H   0  0  0  0  0  0
   -6.4432   -1.8926   -8.1395 H   0  0  0  0  0  0
   -8.7547   -1.9945   -5.1601 H   0  0  0  0  0  0
   -8.2237   -3.4013   -2.6340 H   0  0  0  0  0  0
   -2.8870   -5.9942    1.1854 H   0  0  0  0  0  0
    0.6984  -10.7919   -3.4645 H   0  0  0  0  0  0
    2.5676  -12.1233   -1.4436 H   0  0  0  0  0  0
   -1.7141   -5.1541   11.3467 H   0  0  0  0  0  0
   -3.2564   -7.3454    8.6688 H   0  0  0  0  0  0
  1  2  1  0  0  0
  2  3  1  0  0  0
  3  4  1  0  0  0
  4  5  1  0  0  0
  5  6  1  0  0  0
  5  7  1  0  0  0
  7  8  1  0  0  0
  7 39  1  0  0  0
  8  9  1  0  0  0
  8 27  1  0  0  0
  9 10  1  0  0  0
 10 11  1  0  0  0
 10 12  1  0  0  0
 12 13  1  0  0  0
 13 14  1  0  0  0
 13 26  1  0  0  0
 14 15  1  0  0  0
 15 16  1  0  0  0
 16 17  1  0  0  0
 17 18  1  0  0  0
 18 19  1  0  0  0
 18 25  1  0  0  0
 19 20  1  0  0  0
 20 21  1  0  0  0
 20 24  1  0  0  0
 21 22  1  0  0  0
 21 23  1  0  0  0
 23 51  1  0  0  0
 23 52  1  0  0  0
 24 53  1  0  0  0
 25 54  1  0  0  0
 26 55  1  0  0  0
 27 28  1  0  0  0
 28 29  2  0  0  0
 28 30  1  0  0  0
 30 31  1  0  0  0
 31 32  1  0  0  0
 31 36  1  0  0  0
 32 33  1  0  0  0
 33 34  2  0  0  0
 33 35  1  0  0  0
 35 56  1  0  0  0
 36 37  2  0  0  0
 36 38  1  0  0  0
 38 57  1  0  0  0
 39 40  1  0  0  0
 40 41  2  0  0  0
 40 42  1  0  0  0
 42 43  1  0  0  0
 43 44  1  0  0  0
 43 48  1  0  0  0
 44 45  1  0  0  0
 45 46  2  0  0  0
 45 47  1  0  0  0
 47 58  1  0  0  0
 48 49  2  0  0  0
 48 50  1  0  0  0
 50 59  1  0  0  0
M  END
>  <AUTHOR>
    GENERATED BY OPEN BABEL 2.4.1

>  <CHROM.1>
-54.80407821,-141.89577730,53.14195698,-17.23159618,156.80274879,-73.97690779
-163.38269349,76.10918245,66.85866392,99.38570987,-175.55553090,163.63063230
-63.45218487,177.82902761,-170.18456929,-176.09406973,175.36269853,-175.29279245
51.68796704,163.82732936,-104.75353232,49.69526812,-176.25292038,47.72397134
-99.58107461,55.72989089,-159.66836064,-39.36741002,110.86058361,-172.28652545
1.53624811,-31.88818510,-142.31358659,177.95472219,21.35987708,136.22944413
-87.33213829,-176.61055604,30.65597412,-2.02632407,-7.89752888,2.35704344
-0.96688219,0.84308557,-1.50759776

>  <COMPND>
    UNNAMED

>  <MASTER>
        0    0    0    0    0    0    0    0  109    0  109    0

>  <Name>
FB1.pdb

>  <RI>
0

>  <Rbt.Current_Directory>
/cluster/tossine/F10/p3/0_clust01/stat

>  <Rbt.Executable>
rbdock/0.1.0

>  <Rbt.Library>
librxdock.so/0.1.0

>  <Rbt.Parameter_File>
/cluster/rxdock/data/scripts/dock.prm

>  <Rbt.Receptor>
rx_3.prm

>  <SCORE>
13.4769

>  <SCORE.INTER>
-5.31366

>  <SCORE.INTER.CONST>
1

>  <SCORE.INTER.POLAR>
-2.77209

>  <SCORE.INTER.REPUL>
0.97404

>  <SCORE.INTER.ROT>
32

>  <SCORE.INTER.VDW>
-38.1588

>  <SCORE.INTER.norm>
-0.106273

>  <SCORE.INTRA>
14.0232

>  <SCORE.INTRA.DIHEDRAL>
22.7339

>  <SCORE.INTRA.DIHEDRAL.0>
47.3121

>  <SCORE.INTRA.POLAR>
0.624071

>  <SCORE.INTRA.POLAR.0>
-1.47808

>  <SCORE.INTRA.REPUL>
0

>  <SCORE.INTRA.REPUL.0>
0

>  <SCORE.INTRA.VDW>
0.534458

>  <SCORE.INTRA.VDW.0>
-2.78316

>  <SCORE.INTRA.norm>
0.280465

>  <SCORE.RESTR>
4.76735

>  <SCORE.RESTR.CAVITY>
4.76735

>  <SCORE.RESTR.norm>
0.095347

>  <SCORE.SYSTEM>
0

>  <SCORE.SYSTEM.CONST>
0

>  <SCORE.SYSTEM.DIHEDRAL>
0

>  <SCORE.SYSTEM.norm>
0

>  <SCORE.heavy>
50

>  <SCORE.norm>
0.269539

$$$$
