FB1.pdb
  RxDock  10072012013D
librxdock.so/0.1.0
 59 58  0  0  0  0  0  0  0  0999 V2000
   -5.8823  -11.7168    4.2694 C   0  0  0  0  0  0
   -5.2190  -11.8311    5.6399 C   0  0  0  0  0  0
   -4.2754  -13.0427    5.7164 C   0  0  0  0  0  0
   -3.0020  -12.8896    4.8477 C   0  0  0  0  0  0
   -1.8068  -12.1551    5.5494 C   0  0  0  0  0  0
   -1.3249  -13.0299    6.7297 C   0  0  0  0  0  0
   -0.6073  -11.8164    4.5674 C   0  0  0  0  0  0
   -0.9033  -10.7644    3.3961 C   0  0  0  0  0  0
   -1.2941  -11.1441    1.9023 C   0  0  0  0  0  0
   -0.0242  -11.5365    0.9252 C   0  0  0  0  0  0
   -0.5171  -11.5707   -0.5205 C   0  0  0  0  0  0
    1.2604  -10.5966    1.0304 C   0  0  0  0  0  0
    2.6290  -10.8339    0.2001 C   0  0  0  0  0  0
    2.6566  -10.9323   -1.3638 C   0  0  0  0  0  0
    3.9664  -10.4372   -2.1308 C   0  0  0  0  0  0
    4.1043  -10.3717   -3.7028 C   0  0  0  0  0  0
    2.9981  -10.9958   -4.5940 C   0  0  0  0  0  0
    1.6037  -10.2577   -4.6085 C   0  0  0  0  0  0
    0.6267  -10.6729   -5.7155 C   0  0  0  0  0  0
   -0.7714   -9.9934   -5.7579 C   0  0  0  0  0  0
   -0.9734   -8.6448   -6.5102 C   0  0  0  0  0  0
   -0.5107   -8.6017   -7.9598 C   0  0  0  0  0  0
   -2.3675   -8.1783   -6.3876 N   0  0  0  0  0  0
   -1.6202  -10.9420   -6.4534 O   0  0  0  0  0  0
    0.9748  -10.4768   -3.3411 O   0  0  0  0  0  0
    3.4559   -9.7022    0.5195 O   0  0  0  0  0  0
   -2.0081   -9.9412    3.8589 O   0  0  0  0  0  0
   -2.4578   -8.9794    3.0116 C   0  0  0  0  0  0
   -1.9102   -8.6055    1.9919 O   0  0  0  0  0  0
   -3.8068   -8.5172    3.4892 C   0  0  0  0  0  0
   -3.7099   -7.4045    4.5451 C   0  0  0  0  0  0
   -2.6504   -7.6988    5.6148 C   0  0  0  0  0  0
   -3.2073   -8.5857    6.7041 C   0  0  0  0  0  0
   -3.3332   -8.2295    7.8707 O   0  0  0  0  0  0
   -3.5553   -9.8071    6.2728 O   0  0  0  0  0  0
   -3.3417   -6.1266    3.7786 C   0  0  0  0  0  0
   -2.5450   -5.3021    4.2004 O   0  0  0  0  0  0
   -4.0049   -5.9626    2.6258 O   0  0  0  0  0  0
    0.6225  -11.4738    5.3224 O   0  0  0  0  0  0
    1.5158  -12.4886    5.6227 C   0  0  0  0  0  0
    1.4108  -13.6455    5.2366 O   0  0  0  0  0  0
    2.6737  -12.0049    6.5056 C   0  0  0  0  0  0
    3.8855  -11.3769    5.7495 C   0  0  0  0  0  0
    4.5961  -12.2327    4.6850 C   0  0  0  0  0  0
    3.6596  -12.7641    3.6386 C   0  0  0  0  0  0
    3.2238  -13.9059    3.5846 O   0  0  0  0  0  0
    3.3127  -11.8310    2.7389 O   0  0  0  0  0  0
    3.6024  -10.0092    5.1160 C   0  0  0  0  0  0
    2.4780   -9.5876    4.9302 O   0  0  0  0  0  0
    4.6895   -9.2477    4.8717 O   0  0  0  0  0  0
   -2.4512   -7.5894   -5.5601 H   0  0  0  0  0  0
   -2.9665   -8.9851   -6.1984 H   0  0  0  0  0  0
   -1.1841  -11.0728   -7.3217 H   0  0  0  0  0  0
    0.1955   -9.8939   -3.2834 H   0  0  0  0  0  0
    4.3848   -9.9804    0.4540 H   0  0  0  0  0  0
   -3.2869  -10.0181    5.3580 H   0  0  0  0  0  0
   -4.7445   -6.6042    2.4834 H   0  0  0  0  0  0
    3.9542  -11.0957    2.8346 H   0  0  0  0  0  0
    5.5537   -9.6794    5.0532 H   0  0  0  0  0  0
  1  2  1  0  0  0
  2  3  1  0  0  0
  3  4  1  0  0  0
  4  5  1  0  0  0
  5  6  1  0  0  0
  5  7  1  0  0  0
  7  8  1  0  0  0
  7 39  1  0  0  0
  8  9  1  0  0  0
  8 27  1  0  0  0
  9 10  1  0  0  0
 10 11  1  0  0  0
 10 12  1  0  0  0
 12 13  1  0  0  0
 13 14  1  0  0  0
 13 26  1  0  0  0
 14 15  1  0  0  0
 15 16  1  0  0  0
 16 17  1  0  0  0
 17 18  1  0  0  0
 18 19  1  0  0  0
 18 25  1  0  0  0
 19 20  1  0  0  0
 20 21  1  0  0  0
 20 24  1  0  0  0
 21 22  1  0  0  0
 21 23  1  0  0  0
 23 51  1  0  0  0
 23 52  1  0  0  0
 24 53  1  0  0  0
 25 54  1  0  0  0
 26 55  1  0  0  0
 27 28  1  0  0  0
 28 29  2  0  0  0
 28 30  1  0  0  0
 30 31  1  0  0  0
 31 32  1  0  0  0
 31 36  1  0  0  0
 32 33  1  0  0  0
 33 34  2  0  0  0
 33 35  1  0  0  0
 35 56  1  0  0  0
 36 37  2  0  0  0
 36 38  1  0  0  0
 38 57  1  0  0  0
 39 40  1  0  0  0
 40 41  2  0  0  0
 40 42  1  0  0  0
 42 43  1  0  0  0
 43 44  1  0  0  0
 43 48  1  0  0  0
 44 45  1  0  0  0
 45 46  2  0  0  0
 45 47  1  0  0  0
 47 58  1  0  0  0
 48 49  2  0  0  0
 48 50  1  0  0  0
 50 59  1  0  0  0
M  END
>  <AUTHOR>
    GENERATED BY OPEN BABEL 2.4.1

>  <CHROM.1>
69.29137644,86.73936216,65.25865072,65.33566157,-96.60958232,91.76262118
-81.50932283,-178.84317398,-167.66786470,177.81926627,56.15354695,149.53352005
151.20496071,-175.22026461,-8.76747808,69.77769604,166.43359304,178.91499604
169.77554259,86.66255607,53.28946216,-57.88052658,90.13611371,-11.62467408
86.17945144,-44.85752194,-83.90895321,-139.97792727,-115.72201653,8.77316213
9.17147090,4.90936630,-85.57961401,-57.37884572,54.43449600,-16.82557780
-102.12171803,15.91077187,5.05298871,-0.15666940,-10.35894063,1.93533251
1.78331396,-0.38374797,1.70158404

>  <COMPND>
    UNNAMED

>  <MASTER>
        0    0    0    0    0    0    0    0  109    0  109    0

>  <Name>
FB1.pdb

>  <RI>
0

>  <Rbt.Current_Directory>
/cluster/tossine/F10/p3/0_clust01/stat

>  <Rbt.Executable>
rbdock/0.1.0

>  <Rbt.Library>
librxdock.so/0.1.0

>  <Rbt.Parameter_File>
/cluster/rxdock/data/scripts/dock.prm

>  <Rbt.Receptor>
rx_3.prm

>  <SCORE>
51.4002

>  <SCORE.INTER>
38.0987

>  <SCORE.INTER.CONST>
1

>  <SCORE.INTER.POLAR>
0

>  <SCORE.INTER.REPUL>
0.998943

>  <SCORE.INTER.ROT>
32

>  <SCORE.INTER.VDW>
-4.29598

>  <SCORE.INTER.norm>
0.761975

>  <SCORE.INTRA>
10.3143

>  <SCORE.INTRA.DIHEDRAL>
0.560406

>  <SCORE.INTRA.DIHEDRAL.0>
47.3121

>  <SCORE.INTRA.POLAR>
0.463456

>  <SCORE.INTRA.POLAR.0>
-1.47808

>  <SCORE.INTRA.REPUL>
0

>  <SCORE.INTRA.REPUL.0>
0

>  <SCORE.INTRA.VDW>
8.45837

>  <SCORE.INTRA.VDW.0>
-2.78316

>  <SCORE.INTRA.norm>
0.206286

>  <SCORE.RESTR>
2.98718

>  <SCORE.RESTR.CAVITY>
2.98718

>  <SCORE.RESTR.norm>
0.0597435

>  <SCORE.SYSTEM>
0

>  <SCORE.SYSTEM.CONST>
0

>  <SCORE.SYSTEM.DIHEDRAL>
0

>  <SCORE.SYSTEM.norm>
0

>  <SCORE.heavy>
50

>  <SCORE.norm>
1.028

$$$$
