FB1.pdb
  RxDock  10072012093D
librxdock.so/0.1.0
 59 58  0  0  0  0  0  0  0  0999 V2000
    5.3199   -8.4124    6.7204 C   0  0  0  0  0  0
    5.3650   -9.8925    6.3478 C   0  0  0  0  0  0
    4.8306  -10.1384    4.9271 C   0  0  0  0  0  0
    3.2922  -10.3095    4.8670 C   0  0  0  0  0  0
    2.7104  -10.5631    3.4325 C   0  0  0  0  0  0
    3.0488  -12.0146    3.0210 C   0  0  0  0  0  0
    1.1507  -10.2918    3.3247 C   0  0  0  0  0  0
    0.5689   -9.9712    1.8670 C   0  0  0  0  0  0
    0.7290  -10.9072    0.5917 C   0  0  0  0  0  0
    2.2668  -11.0386    0.0091 C   0  0  0  0  0  0
    2.5433  -12.5084   -0.3028 C   0  0  0  0  0  0
    2.6138  -10.1465   -1.2670 C   0  0  0  0  0  0
    2.8018  -10.7357   -2.7624 C   0  0  0  0  0  0
    1.5940  -11.2388   -3.6251 C   0  0  0  0  0  0
    0.3923  -10.2266   -3.9089 C   0  0  0  0  0  0
   -0.8714  -10.0635   -2.9757 C   0  0  0  0  0  0
   -2.2930  -10.1709   -3.5880 C   0  0  0  0  0  0
   -2.7923   -8.9359   -4.4334 C   0  0  0  0  0  0
   -2.1195   -8.7288   -5.7960 C   0  0  0  0  0  0
   -2.9755   -8.1573   -6.9618 C   0  0  0  0  0  0
   -3.6734   -6.7718   -6.8257 C   0  0  0  0  0  0
   -4.4453   -6.2796   -8.0420 C   0  0  0  0  0  0
   -4.5126   -6.7229   -5.6134 N   0  0  0  0  0  0
   -2.0421   -8.0012   -8.0610 O   0  0  0  0  0  0
   -4.2015   -9.0825   -4.6396 O   0  0  0  0  0  0
    3.3766   -9.6548   -3.5159 O   0  0  0  0  0  0
   -0.8681   -9.8231    2.0265 O   0  0  0  0  0  0
   -1.5169   -9.0687    1.1017 C   0  0  0  0  0  0
   -1.1274   -8.8166   -0.0226 O   0  0  0  0  0  0
   -2.8554   -8.6750    1.6628 C   0  0  0  0  0  0
   -3.3802   -7.3580    1.0690 C   0  0  0  0  0  0
   -3.6819   -7.4675   -0.4311 C   0  0  0  0  0  0
   -4.1600   -6.1471   -0.9888 C   0  0  0  0  0  0
   -4.9334   -6.0508   -1.9355 O   0  0  0  0  0  0
   -3.6575   -5.0823   -0.3464 O   0  0  0  0  0  0
   -4.6658   -7.0299    1.8408 C   0  0  0  0  0  0
   -5.2248   -7.8296    2.5759 O   0  0  0  0  0  0
   -5.1559   -5.8053    1.6038 O   0  0  0  0  0  0
    0.3739  -11.3530    4.0105 O   0  0  0  0  0  0
    0.4631  -11.4485    5.3892 C   0  0  0  0  0  0
    0.8725  -12.4308    5.9941 O   0  0  0  0  0  0
   -0.0125  -10.1717    6.0949 C   0  0  0  0  0  0
   -1.5348   -9.8543    5.9675 C   0  0  0  0  0  0
   -2.5262  -10.7435    6.7401 C   0  0  0  0  0  0
   -2.4422  -10.5600    8.2280 C   0  0  0  0  0  0
   -1.5457   -9.9811    8.8260 O   0  0  0  0  0  0
   -3.4920  -11.0937    8.8710 O   0  0  0  0  0  0
   -1.9091   -8.3965    6.2624 C   0  0  0  0  0  0
   -1.8251   -7.9045    7.3704 O   0  0  0  0  0  0
   -2.2402   -7.6540    5.1852 O   0  0  0  0  0  0
   -3.9651   -6.3412   -4.8433 H   0  0  0  0  0  0
   -4.7337   -7.6802   -5.3303 H   0  0  0  0  0  0
   -1.9692   -8.8975   -8.4519 H   0  0  0  0  0  0
   -4.6281   -9.1774   -3.7681 H   0  0  0  0  0  0
    2.7015   -8.9623   -3.6113 H   0  0  0  0  0  0
   -3.9042   -4.2150   -0.7211 H   0  0  0  0  0  0
   -4.5781   -5.2348    1.0386 H   0  0  0  0  0  0
   -3.4183  -10.8164    9.8085 H   0  0  0  0  0  0
   -2.2979   -6.6858    5.3446 H   0  0  0  0  0  0
  1  2  1  0  0  0
  2  3  1  0  0  0
  3  4  1  0  0  0
  4  5  1  0  0  0
  5  6  1  0  0  0
  5  7  1  0  0  0
  7  8  1  0  0  0
  7 39  1  0  0  0
  8  9  1  0  0  0
  8 27  1  0  0  0
  9 10  1  0  0  0
 10 11  1  0  0  0
 10 12  1  0  0  0
 12 13  1  0  0  0
 13 14  1  0  0  0
 13 26  1  0  0  0
 14 15  1  0  0  0
 15 16  1  0  0  0
 16 17  1  0  0  0
 17 18  1  0  0  0
 18 19  1  0  0  0
 18 25  1  0  0  0
 19 20  1  0  0  0
 20 21  1  0  0  0
 20 24  1  0  0  0
 21 22  1  0  0  0
 21 23  1  0  0  0
 23 51  1  0  0  0
 23 52  1  0  0  0
 24 53  1  0  0  0
 25 54  1  0  0  0
 26 55  1  0  0  0
 27 28  1  0  0  0
 28 29  2  0  0  0
 28 30  1  0  0  0
 30 31  1  0  0  0
 31 32  1  0  0  0
 31 36  1  0  0  0
 32 33  1  0  0  0
 33 34  2  0  0  0
 33 35  1  0  0  0
 35 56  1  0  0  0
 36 37  2  0  0  0
 36 38  1  0  0  0
 38 57  1  0  0  0
 39 40  1  0  0  0
 40 41  2  0  0  0
 40 42  1  0  0  0
 42 43  1  0  0  0
 43 44  1  0  0  0
 43 48  1  0  0  0
 44 45  1  0  0  0
 45 46  2  0  0  0
 45 47  1  0  0  0
 47 58  1  0  0  0
 48 49  2  0  0  0
 48 50  1  0  0  0
 50 59  1  0  0  0
M  END
>  <AUTHOR>
    GENERATED BY OPEN BABEL 2.4.1

>  <CHROM.1>
-85.93326217,-179.96639735,74.09973044,157.22467086,56.17524246,67.44980998
-68.02959538,155.29835495,135.61296249,-106.93233324,72.72964862,56.67480211
-69.02428823,-89.31579362,-127.56751176,-74.88449542,71.17469251,145.88252921
55.42151786,58.60711812,177.81342476,81.29061316,92.70655160,22.11284056
152.99519389,65.32876715,-178.49085250,-12.26247077,-150.13689938,176.26661462
-6.17885175,-119.55113064,67.16162904,71.36188187,68.77723545,-68.04961650
-13.28388825,-172.03406962,-167.87977170,-0.93050450,-9.20047479,0.97958033
-1.27325037,0.43922278,-1.50954545

>  <COMPND>
    UNNAMED

>  <MASTER>
        0    0    0    0    0    0    0    0  109    0  109    0

>  <Name>
FB1.pdb

>  <RI>
0

>  <Rbt.Current_Directory>
/cluster/tossine/F10/p3/0_clust01/stat

>  <Rbt.Executable>
rbdock/0.1.0

>  <Rbt.Library>
librxdock.so/0.1.0

>  <Rbt.Parameter_File>
/cluster/rxdock/data/scripts/dock.prm

>  <Rbt.Receptor>
rx_3.prm

>  <SCORE>
22.8626

>  <SCORE.INTER>
5.64807

>  <SCORE.INTER.CONST>
1

>  <SCORE.INTER.POLAR>
-1.87231

>  <SCORE.INTER.REPUL>
0.370571

>  <SCORE.INTER.ROT>
32

>  <SCORE.INTER.VDW>
-27.2389

>  <SCORE.INTER.norm>
0.112961

>  <SCORE.INTRA>
12.9227

>  <SCORE.INTRA.DIHEDRAL>
25.935

>  <SCORE.INTRA.DIHEDRAL.0>
47.3121

>  <SCORE.INTRA.POLAR>
-0.152966

>  <SCORE.INTRA.POLAR.0>
-1.47808

>  <SCORE.INTRA.REPUL>
0.0191972

>  <SCORE.INTRA.REPUL.0>
0

>  <SCORE.INTRA.VDW>
0.379307

>  <SCORE.INTRA.VDW.0>
-2.78316

>  <SCORE.INTRA.norm>
0.258455

>  <SCORE.RESTR>
4.29179

>  <SCORE.RESTR.CAVITY>
4.29179

>  <SCORE.RESTR.norm>
0.0858358

>  <SCORE.SYSTEM>
0

>  <SCORE.SYSTEM.CONST>
0

>  <SCORE.SYSTEM.DIHEDRAL>
0

>  <SCORE.SYSTEM.norm>
0

>  <SCORE.heavy>
50

>  <SCORE.norm>
0.457252

$$$$
