FB1.pdb
  RxDock  10072011423D
librxdock.so/0.1.0
 59 58  0  0  0  0  0  0  0  0999 V2000
    1.8137  -13.1136    6.9123 C   0  0  0  0  0  0
    2.5605  -13.3657    5.6046 C   0  0  0  0  0  0
    3.7942  -12.4581    5.4693 C   0  0  0  0  0  0
    3.4585  -10.9469    5.5275 C   0  0  0  0  0  0
    2.5924  -10.4152    4.3326 C   0  0  0  0  0  0
    3.2145  -10.9315    3.0146 C   0  0  0  0  0  0
    1.0606  -10.8171    4.4327 C   0  0  0  0  0  0
   -0.0047   -9.7627    3.8674 C   0  0  0  0  0  0
   -0.8654   -9.9518    2.5438 C   0  0  0  0  0  0
   -0.1532   -9.4005    1.1617 C   0  0  0  0  0  0
    1.1469  -10.1730    0.9445 C   0  0  0  0  0  0
   -1.0418   -9.4663   -0.1615 C   0  0  0  0  0  0
   -1.1995  -10.7862   -1.0843 C   0  0  0  0  0  0
   -0.4723  -10.9384   -2.4642 C   0  0  0  0  0  0
   -1.1262  -10.2455   -3.7454 C   0  0  0  0  0  0
   -0.3743  -10.0236   -5.1165 C   0  0  0  0  0  0
   -0.8339   -8.8849   -6.0649 C   0  0  0  0  0  0
   -2.3337   -8.9346   -6.5522 C   0  0  0  0  0  0
   -3.3964   -8.5322   -5.5220 C   0  0  0  0  0  0
   -4.5356   -7.5748   -5.9734 C   0  0  0  0  0  0
   -4.2615   -6.0537   -6.1652 C   0  0  0  0  0  0
   -5.2501   -5.2918   -7.0366 C   0  0  0  0  0  0
   -4.0811   -5.3840   -4.8631 N   0  0  0  0  0  0
   -4.9209   -8.0553   -7.2866 O   0  0  0  0  0  0
   -2.4567   -8.0763   -7.6914 O   0  0  0  0  0  0
   -0.6992  -11.8644   -0.2756 O   0  0  0  0  0  0
   -0.9937   -9.5819    4.9169 O   0  0  0  0  0  0
   -1.3984   -8.3103    5.1707 C   0  0  0  0  0  0
   -0.6778   -7.3609    5.4134 O   0  0  0  0  0  0
   -2.8912   -8.2432    5.0019 C   0  0  0  0  0  0
   -3.3265   -8.3874    3.5349 C   0  0  0  0  0  0
   -4.7471   -8.9493    3.3949 C   0  0  0  0  0  0
   -4.8904  -10.2592    4.1345 C   0  0  0  0  0  0
   -5.0545  -10.3391    5.3471 O   0  0  0  0  0  0
   -4.8228  -11.3342    3.3353 O   0  0  0  0  0  0
   -3.2581   -6.9766    2.9340 C   0  0  0  0  0  0
   -3.0496   -5.9760    3.6032 O   0  0  0  0  0  0
   -3.4957   -6.9247    1.6161 O   0  0  0  0  0  0
    0.8288  -12.1807    3.8972 O   0  0  0  0  0  0
   -0.1986  -12.9354    4.4384 C   0  0  0  0  0  0
   -0.1105  -14.1193    4.7368 O   0  0  0  0  0  0
   -1.4839  -12.1195    4.6303 C   0  0  0  0  0  0
   -2.2025  -12.3005    6.0034 C   0  0  0  0  0  0
   -2.4986  -11.0401    6.8364 C   0  0  0  0  0  0
   -3.0785  -11.3518    8.1859 C   0  0  0  0  0  0
   -2.4440  -11.4705    9.2251 O   0  0  0  0  0  0
   -4.4142  -11.4758    8.1543 O   0  0  0  0  0  0
   -3.4989  -13.1177    5.9418 C   0  0  0  0  0  0
   -4.6020  -12.6082    5.9610 O   0  0  0  0  0  0
   -3.3391  -14.4447    5.7556 O   0  0  0  0  0  0
   -4.9788   -5.0189   -4.5481 H   0  0  0  0  0  0
   -3.4939   -4.5581   -4.9992 H   0  0  0  0  0  0
   -4.2166   -7.7285   -7.8853 H   0  0  0  0  0  0
   -3.3141   -8.2583   -8.1183 H   0  0  0  0  0  0
   -1.2763  -11.9500    0.5017 H   0  0  0  0  0  0
   -4.6377  -11.1438    2.3956 H   0  0  0  0  0  0
   -3.3908   -6.0262    1.2156 H   0  0  0  0  0  0
   -4.6979  -11.2326    7.2479 H   0  0  0  0  0  0
   -2.4068  -14.7543    5.7206 H   0  0  0  0  0  0
  1  2  1  0  0  0
  2  3  1  0  0  0
  3  4  1  0  0  0
  4  5  1  0  0  0
  5  6  1  0  0  0
  5  7  1  0  0  0
  7  8  1  0  0  0
  7 39  1  0  0  0
  8  9  1  0  0  0
  8 27  1  0  0  0
  9 10  1  0  0  0
 10 11  1  0  0  0
 10 12  1  0  0  0
 12 13  1  0  0  0
 13 14  1  0  0  0
 13 26  1  0  0  0
 14 15  1  0  0  0
 15 16  1  0  0  0
 16 17  1  0  0  0
 17 18  1  0  0  0
 18 19  1  0  0  0
 18 25  1  0  0  0
 19 20  1  0  0  0
 20 21  1  0  0  0
 20 24  1  0  0  0
 21 22  1  0  0  0
 21 23  1  0  0  0
 23 51  1  0  0  0
 23 52  1  0  0  0
 24 53  1  0  0  0
 25 54  1  0  0  0
 26 55  1  0  0  0
 27 28  1  0  0  0
 28 29  2  0  0  0
 28 30  1  0  0  0
 30 31  1  0  0  0
 31 32  1  0  0  0
 31 36  1  0  0  0
 32 33  1  0  0  0
 33 34  2  0  0  0
 33 35  1  0  0  0
 35 56  1  0  0  0
 36 37  2  0  0  0
 36 38  1  0  0  0
 38 57  1  0  0  0
 39 40  1  0  0  0
 40 41  2  0  0  0
 40 42  1  0  0  0
 42 43  1  0  0  0
 43 44  1  0  0  0
 43 48  1  0  0  0
 44 45  1  0  0  0
 45 46  2  0  0  0
 45 47  1  0  0  0
 47 58  1  0  0  0
 48 49  2  0  0  0
 48 50  1  0  0  0
 50 59  1  0  0  0
M  END
>  <AUTHOR>
    GENERATED BY OPEN BABEL 2.4.1

>  <CHROM.1>
-58.36445142,-65.56177526,-47.88221774,146.07806199,109.17185370,149.54020947
-88.80189582,136.58507947,60.96118869,-83.50379387,-104.51889308,-81.42499325
63.79326180,165.54182744,-155.20885967,-58.27898781,74.75467135,134.83870640
167.07981541,-75.54097918,159.82572277,-77.19032245,-92.60423724,-53.17937890
-69.73691248,153.91212696,-54.72746041,-7.84554409,79.46871920,3.51310239
-175.98135813,-135.87098424,-134.46742248,125.35264621,-174.84459607,-101.90428957
94.02901672,-5.94009057,2.71242827,-1.72076019,-10.06508887,1.89534331,-1.39319907
0.43210394,-1.33206092

>  <COMPND>
    UNNAMED

>  <MASTER>
        0    0    0    0    0    0    0    0  109    0  109    0

>  <Name>
FB1.pdb

>  <RI>
0

>  <Rbt.Current_Directory>
/cluster/tossine/F10/p3/0_clust01/stat

>  <Rbt.Executable>
rbdock/0.1.0

>  <Rbt.Library>
librxdock.so/0.1.0

>  <Rbt.Parameter_File>
/cluster/rxdock/data/scripts/dock.prm

>  <Rbt.Receptor>
rx_3.prm

>  <SCORE>
54.412

>  <SCORE.INTER>
7.55828

>  <SCORE.INTER.CONST>
1

>  <SCORE.INTER.POLAR>
-1.46936

>  <SCORE.INTER.REPUL>
0.201197

>  <SCORE.INTER.ROT>
32

>  <SCORE.INTER.VDW>
-25.8519

>  <SCORE.INTER.norm>
0.151166

>  <SCORE.INTRA>
41.9837

>  <SCORE.INTRA.DIHEDRAL>
42.9349

>  <SCORE.INTRA.DIHEDRAL.0>
47.3121

>  <SCORE.INTRA.POLAR>
0.337706

>  <SCORE.INTRA.POLAR.0>
-1.47808

>  <SCORE.INTRA.REPUL>
0.0195869

>  <SCORE.INTRA.REPUL.0>
0

>  <SCORE.INTRA.VDW>
19.2702

>  <SCORE.INTRA.VDW.0>
-2.78316

>  <SCORE.INTRA.norm>
0.839674

>  <SCORE.RESTR>
4.87

>  <SCORE.RESTR.CAVITY>
4.87

>  <SCORE.RESTR.norm>
0.0973999

>  <SCORE.SYSTEM>
0

>  <SCORE.SYSTEM.CONST>
0

>  <SCORE.SYSTEM.DIHEDRAL>
0

>  <SCORE.SYSTEM.norm>
0

>  <SCORE.heavy>
50

>  <SCORE.norm>
1.08824

$$$$
