FB1.pdb
  RxDock  10072011583D
librxdock.so/0.1.0
 59 58  0  0  0  0  0  0  0  0999 V2000
    3.9085  -13.2760    1.7203 C   0  0  0  0  0  0
    3.7224  -14.5041    2.6082 C   0  0  0  0  0  0
    2.3346  -14.5232    3.2700 C   0  0  0  0  0  0
    2.2862  -13.7741    4.6251 C   0  0  0  0  0  0
    0.8488  -13.3739    5.1088 C   0  0  0  0  0  0
    0.9212  -13.0314    6.6149 C   0  0  0  0  0  0
    0.2138  -12.1761    4.2843 C   0  0  0  0  0  0
    0.0778  -12.3768    2.7009 C   0  0  0  0  0  0
   -1.1624  -11.9092    1.8224 C   0  0  0  0  0  0
   -0.8680  -10.6321    0.8205 C   0  0  0  0  0  0
   -0.9224  -11.1263   -0.6241 C   0  0  0  0  0  0
   -1.8280   -9.3694    0.9904 C   0  0  0  0  0  0
   -2.0328   -8.5654    2.3797 C   0  0  0  0  0  0
   -2.8223   -7.2139    2.4598 C   0  0  0  0  0  0
   -4.3607   -7.2091    2.0328 C   0  0  0  0  0  0
   -5.0914   -5.9831    1.3565 C   0  0  0  0  0  0
   -4.8453   -5.6799   -0.1452 C   0  0  0  0  0  0
   -6.0923   -5.1931   -0.9803 C   0  0  0  0  0  0
   -5.9511   -5.2480   -2.5066 C   0  0  0  0  0  0
   -5.2755   -4.0476   -3.2283 C   0  0  0  0  0  0
   -4.9605   -4.1158   -4.7519 C   0  0  0  0  0  0
   -4.5907   -5.4843   -5.3067 C   0  0  0  0  0  0
   -6.0458   -3.5025   -5.5409 N   0  0  0  0  0  0
   -6.2202   -2.9558   -3.0886 O   0  0  0  0  0  0
   -7.2181   -5.9909   -0.5987 O   0  0  0  0  0  0
   -2.7554   -9.4729    3.2288 O   0  0  0  0  0  0
    1.2167  -11.6975    2.1059 O   0  0  0  0  0  0
    1.4354  -10.4117    2.4856 C   0  0  0  0  0  0
    0.5964   -9.6270    2.8853 O   0  0  0  0  0  0
    2.9138  -10.1431    2.4272 C   0  0  0  0  0  0
    3.6745  -10.7682    3.6075 C   0  0  0  0  0  0
    5.1953  -10.6181    3.4735 C   0  0  0  0  0  0
    5.9116  -11.8453    3.9874 C   0  0  0  0  0  0
    7.1078  -12.0539    3.8163 O   0  0  0  0  0  0
    5.1120  -12.6906    4.6544 O   0  0  0  0  0  0
    3.1827  -10.0341    4.8625 C   0  0  0  0  0  0
    3.9346   -9.4700    5.6429 O   0  0  0  0  0  0
    1.8592  -10.1039    5.0611 O   0  0  0  0  0  0
   -1.0578  -11.7196    4.8964 O   0  0  0  0  0  0
   -1.0552  -10.5366    5.6167 C   0  0  0  0  0  0
   -0.6515   -9.4626    5.1902 O   0  0  0  0  0  0
   -1.6219  -10.7134    7.0316 C   0  0  0  0  0  0
   -1.8042   -9.4018    7.8569 C   0  0  0  0  0  0
   -3.0113   -8.5037    7.5304 C   0  0  0  0  0  0
   -3.3854   -8.5295    6.0764 C   0  0  0  0  0  0
   -4.1066   -9.3592    5.5398 O   0  0  0  0  0  0
   -2.8509   -7.5074    5.3909 O   0  0  0  0  0  0
   -1.7837   -9.5976    9.3779 C   0  0  0  0  0  0
   -1.2374   -8.8209   10.1363 O   0  0  0  0  0  0
   -2.5077  -10.6394    9.8379 O   0  0  0  0  0  0
   -6.2404   -2.5718   -5.1744 H   0  0  0  0  0  0
   -6.9052   -4.0333   -5.3820 H   0  0  0  0  0  0
   -7.0626   -3.3119   -3.4419 H   0  0  0  0  0  0
   -8.0269   -5.5448   -0.9108 H   0  0  0  0  0  0
   -2.1640  -10.2111    3.4522 H   0  0  0  0  0  0
    5.5282  -13.5312    4.9257 H   0  0  0  0  0  0
    1.5402   -9.6296    5.8687 H   0  0  0  0  0  0
   -2.4273   -6.9177    6.0497 H   0  0  0  0  0  0
   -2.9048  -11.2128    9.1453 H   0  0  0  0  0  0
  1  2  1  0  0  0
  2  3  1  0  0  0
  3  4  1  0  0  0
  4  5  1  0  0  0
  5  6  1  0  0  0
  5  7  1  0  0  0
  7  8  1  0  0  0
  7 39  1  0  0  0
  8  9  1  0  0  0
  8 27  1  0  0  0
  9 10  1  0  0  0
 10 11  1  0  0  0
 10 12  1  0  0  0
 12 13  1  0  0  0
 13 14  1  0  0  0
 13 26  1  0  0  0
 14 15  1  0  0  0
 15 16  1  0  0  0
 16 17  1  0  0  0
 17 18  1  0  0  0
 18 19  1  0  0  0
 18 25  1  0  0  0
 19 20  1  0  0  0
 20 21  1  0  0  0
 20 24  1  0  0  0
 21 22  1  0  0  0
 21 23  1  0  0  0
 23 51  1  0  0  0
 23 52  1  0  0  0
 24 53  1  0  0  0
 25 54  1  0  0  0
 26 55  1  0  0  0
 27 28  1  0  0  0
 28 29  2  0  0  0
 28 30  1  0  0  0
 30 31  1  0  0  0
 31 32  1  0  0  0
 31 36  1  0  0  0
 32 33  1  0  0  0
 33 34  2  0  0  0
 33 35  1  0  0  0
 35 56  1  0  0  0
 36 37  2  0  0  0
 36 38  1  0  0  0
 38 57  1  0  0  0
 39 40  1  0  0  0
 40 41  2  0  0  0
 40 42  1  0  0  0
 42 43  1  0  0  0
 43 44  1  0  0  0
 43 48  1  0  0  0
 44 45  1  0  0  0
 45 46  2  0  0  0
 45 47  1  0  0  0
 47 58  1  0  0  0
 48 49  2  0  0  0
 48 50  1  0  0  0
 50 59  1  0  0  0
M  END
>  <AUTHOR>
    GENERATED BY OPEN BABEL 2.4.1

>  <CHROM.1>
-88.37799579,161.49514638,163.46592891,57.44904189,140.24194375,104.25684879
109.24815219,-51.24285636,111.90676459,56.83245616,171.10707219,60.99004465
68.51410224,-147.48261135,76.27219876,141.77773304,-164.45992866,-84.94266473
164.29223675,173.10033976,-33.19180081,-54.00959162,51.69032268,-26.64342108
-75.97725217,174.13073444,-142.97906578,-124.58613411,169.13436193,174.52085249
-179.88007494,53.80353666,-173.43680588,77.12892862,-33.05932398,140.46697840
84.75919201,-7.06770875,5.40250062,-0.86378157,-9.47344139,2.97565390,-0.74173358
0.55775764,-1.34526167

>  <COMPND>
    UNNAMED

>  <MASTER>
        0    0    0    0    0    0    0    0  109    0  109    0

>  <Name>
FB1.pdb

>  <RI>
0

>  <Rbt.Current_Directory>
/cluster/tossine/F10/p3/0_clust01/stat

>  <Rbt.Executable>
rbdock/0.1.0

>  <Rbt.Library>
librxdock.so/0.1.0

>  <Rbt.Parameter_File>
/cluster/rxdock/data/scripts/dock.prm

>  <Rbt.Receptor>
rx_3.prm

>  <SCORE>
34.8293

>  <SCORE.INTER>
5.11744

>  <SCORE.INTER.CONST>
1

>  <SCORE.INTER.POLAR>
-1.7949

>  <SCORE.INTER.REPUL>
0.210471

>  <SCORE.INTER.ROT>
32

>  <SCORE.INTER.VDW>
-27.2323

>  <SCORE.INTER.norm>
0.102349

>  <SCORE.INTRA>
20.2396

>  <SCORE.INTRA.DIHEDRAL>
34.8306

>  <SCORE.INTRA.DIHEDRAL.0>
47.3121

>  <SCORE.INTRA.POLAR>
1.3039

>  <SCORE.INTRA.POLAR.0>
-1.47808

>  <SCORE.INTRA.REPUL>
0

>  <SCORE.INTRA.REPUL.0>
0

>  <SCORE.INTRA.VDW>
-1.60898

>  <SCORE.INTRA.VDW.0>
-2.78316

>  <SCORE.INTRA.norm>
0.404792

>  <SCORE.RESTR>
9.47233

>  <SCORE.RESTR.CAVITY>
9.47233

>  <SCORE.RESTR.norm>
0.189447

>  <SCORE.SYSTEM>
0

>  <SCORE.SYSTEM.CONST>
0

>  <SCORE.SYSTEM.DIHEDRAL>
0

>  <SCORE.SYSTEM.norm>
0

>  <SCORE.heavy>
50

>  <SCORE.norm>
0.696587

$$$$
