FB1.pdb
  RxDock  10072012053D
librxdock.so/0.1.0
 59 58  0  0  0  0  0  0  0  0999 V2000
   -4.9033   -6.2696    0.9820 C   0  0  0  0  0  0
   -4.1538   -6.9804    2.1064 C   0  0  0  0  0  0
   -4.0646   -8.4959    1.8622 C   0  0  0  0  0  0
   -3.3274   -9.2608    2.9897 C   0  0  0  0  0  0
   -2.1368   -8.4811    3.6491 C   0  0  0  0  0  0
   -2.7162   -7.5154    4.7085 C   0  0  0  0  0  0
   -1.0353   -9.4286    4.2870 C   0  0  0  0  0  0
   -0.1511  -10.2985    3.2733 C   0  0  0  0  0  0
    0.2758   -9.8449    1.8104 C   0  0  0  0  0  0
   -0.1412  -10.8901    0.6042 C   0  0  0  0  0  0
   -1.6583  -10.8476    0.4285 C   0  0  0  0  0  0
    0.5673  -10.6556   -0.8057 C   0  0  0  0  0  0
   -0.1282  -10.9649   -2.2336 C   0  0  0  0  0  0
   -1.2813  -10.0777   -2.8162 C   0  0  0  0  0  0
   -1.9902  -10.5483   -4.1672 C   0  0  0  0  0  0
   -1.8687   -9.7876   -5.5461 C   0  0  0  0  0  0
   -0.4701   -9.5846   -6.1867 C   0  0  0  0  0  0
   -0.4354   -8.8724   -7.5940 C   0  0  0  0  0  0
    0.9071   -8.8979   -8.3354 C   0  0  0  0  0  0
    0.9223   -8.5284   -9.8459 C   0  0  0  0  0  0
    0.5668   -7.0853  -10.3113 C   0  0  0  0  0  0
    1.6030   -6.0071  -10.0265 C   0  0  0  0  0  0
    0.1710   -7.0740  -11.7324 N   0  0  0  0  0  0
    2.2982   -8.7280  -10.2593 O   0  0  0  0  0  0
   -1.4256   -9.4877   -8.4250 O   0  0  0  0  0  0
    0.9387  -10.8706   -3.1925 O   0  0  0  0  0  0
    1.1080  -10.5574    3.9516 O   0  0  0  0  0  0
    1.8153  -11.6438    3.5457 C   0  0  0  0  0  0
    1.4077  -12.5436    2.8359 O   0  0  0  0  0  0
    3.2292  -11.5022    4.0378 C   0  0  0  0  0  0
    4.1953  -11.0433    2.9339 C   0  0  0  0  0  0
    3.5501  -10.0443    1.9649 C   0  0  0  0  0  0
    4.1740  -10.1361    0.5917 C   0  0  0  0  0  0
    5.1657   -9.4993    0.2533 O   0  0  0  0  0  0
    3.5386  -10.9865   -0.2281 O   0  0  0  0  0  0
    5.3790  -10.3850    3.6561 C   0  0  0  0  0  0
    5.7504   -9.2444    3.4250 O   0  0  0  0  0  0
    6.0068  -11.1834    4.5303 O   0  0  0  0  0  0
   -0.1959   -8.6923    5.2632 O   0  0  0  0  0  0
   -0.6345   -8.6023    6.5738 C   0  0  0  0  0  0
   -0.2316   -7.7819    7.3881 O   0  0  0  0  0  0
   -1.6984   -9.6564    6.9071 C   0  0  0  0  0  0
   -1.8481  -10.0134    8.4186 C   0  0  0  0  0  0
   -2.5165   -8.9796    9.3432 C   0  0  0  0  0  0
   -1.5279   -8.0879   10.0375 C   0  0  0  0  0  0
   -1.0253   -7.0769    9.5665 O   0  0  0  0  0  0
   -1.2457   -8.5050   11.2812 O   0  0  0  0  0  0
   -2.5191  -11.3654    8.6910 C   0  0  0  0  0  0
   -1.8916  -12.3939    8.8497 O   0  0  0  0  0  0
   -3.8585  -11.3256    8.8514 O   0  0  0  0  0  0
   -0.7225   -7.5535  -11.8341 H   0  0  0  0  0  0
    0.8365   -7.6421  -12.2614 H   0  0  0  0  0  0
    2.2928   -8.5578  -11.2249 H   0  0  0  0  0  0
   -2.3038   -9.2819   -8.0551 H   0  0  0  0  0  0
    1.1890   -9.9350   -3.2729 H   0  0  0  0  0  0
    3.9092  -11.0519   -1.1291 H   0  0  0  0  0  0
    5.7491  -12.1369    4.4732 H   0  0  0  0  0  0
   -0.5413   -7.9147   11.6228 H   0  0  0  0  0  0
   -4.1762  -10.7582    9.5885 H   0  0  0  0  0  0
  1  2  1  0  0  0
  2  3  1  0  0  0
  3  4  1  0  0  0
  4  5  1  0  0  0
  5  6  1  0  0  0
  5  7  1  0  0  0
  7  8  1  0  0  0
  7 39  1  0  0  0
  8  9  1  0  0  0
  8 27  1  0  0  0
  9 10  1  0  0  0
 10 11  1  0  0  0
 10 12  1  0  0  0
 12 13  1  0  0  0
 13 14  1  0  0  0
 13 26  1  0  0  0
 14 15  1  0  0  0
 15 16  1  0  0  0
 16 17  1  0  0  0
 17 18  1  0  0  0
 18 19  1  0  0  0
 18 25  1  0  0  0
 19 20  1  0  0  0
 20 21  1  0  0  0
 20 24  1  0  0  0
 21 22  1  0  0  0
 21 23  1  0  0  0
 23 51  1  0  0  0
 23 52  1  0  0  0
 24 53  1  0  0  0
 25 54  1  0  0  0
 26 55  1  0  0  0
 27 28  1  0  0  0
 28 29  2  0  0  0
 28 30  1  0  0  0
 30 31  1  0  0  0
 31 32  1  0  0  0
 31 36  1  0  0  0
 32 33  1  0  0  0
 33 34  2  0  0  0
 33 35  1  0  0  0
 35 56  1  0  0  0
 36 37  2  0  0  0
 36 38  1  0  0  0
 38 57  1  0  0  0
 39 40  1  0  0  0
 40 41  2  0  0  0
 40 42  1  0  0  0
 42 43  1  0  0  0
 43 44  1  0  0  0
 43 48  1  0  0  0
 44 45  1  0  0  0
 45 46  2  0  0  0
 45 47  1  0  0  0
 47 58  1  0  0  0
 48 49  2  0  0  0
 48 50  1  0  0  0
 50 59  1  0  0  0
M  END
>  <AUTHOR>
    GENERATED BY OPEN BABEL 2.4.1

>  <CHROM.1>
-179.22725150,-35.04176754,81.95464289,68.63788225,32.55241732,86.50816189
-124.84815145,156.39052816,70.44169078,-147.64680586,72.01817391,-174.38809760
-70.86175734,-112.08657871,59.36141268,177.38491376,-169.39989097,165.40574603
66.57511294,65.73151378,72.42202230,176.02281482,68.55364524,-13.19147564
-101.96056097,36.17959746,-151.31871267,-124.44800783,-87.99641668,178.77022846
11.45870970,-161.54037303,157.03295810,72.90323090,-94.61363703,93.35967610
83.66292410,175.14117781,-59.25135741,0.07261119,-9.53011911,1.12658977,1.66257296
-0.26370523,1.65208116

>  <COMPND>
    UNNAMED

>  <MASTER>
        0    0    0    0    0    0    0    0  109    0  109    0

>  <Name>
FB1.pdb

>  <RI>
0

>  <Rbt.Current_Directory>
/cluster/tossine/F10/p3/0_clust01/stat

>  <Rbt.Executable>
rbdock/0.1.0

>  <Rbt.Library>
librxdock.so/0.1.0

>  <Rbt.Parameter_File>
/cluster/rxdock/data/scripts/dock.prm

>  <Rbt.Receptor>
rx_3.prm

>  <SCORE>
18.5325

>  <SCORE.INTER>
-8.26067

>  <SCORE.INTER.CONST>
1

>  <SCORE.INTER.POLAR>
-2.99192

>  <SCORE.INTER.REPUL>
0.248917

>  <SCORE.INTER.ROT>
32

>  <SCORE.INTER.VDW>
-36.7327

>  <SCORE.INTER.norm>
-0.165213

>  <SCORE.INTRA>
24.6419

>  <SCORE.INTRA.DIHEDRAL>
26.5338

>  <SCORE.INTRA.DIHEDRAL.0>
47.3121

>  <SCORE.INTRA.POLAR>
1.47808

>  <SCORE.INTRA.POLAR.0>
-1.47808

>  <SCORE.INTRA.REPUL>
0

>  <SCORE.INTRA.REPUL.0>
0

>  <SCORE.INTRA.VDW>
6.34956

>  <SCORE.INTRA.VDW.0>
-2.78316

>  <SCORE.INTRA.norm>
0.492838

>  <SCORE.RESTR>
2.15129

>  <SCORE.RESTR.CAVITY>
2.15129

>  <SCORE.RESTR.norm>
0.0430259

>  <SCORE.SYSTEM>
0

>  <SCORE.SYSTEM.CONST>
0

>  <SCORE.SYSTEM.DIHEDRAL>
0

>  <SCORE.SYSTEM.norm>
0

>  <SCORE.heavy>
50

>  <SCORE.norm>
0.370651

$$$$
