FB1.pdb
  RxDock  10072012003D
librxdock.so/0.1.0
 59 58  0  0  0  0  0  0  0  0999 V2000
   -4.9301  -14.5973    5.0110 C   0  0  0  0  0  0
   -5.7186  -13.3227    4.7191 C   0  0  0  0  0  0
   -4.7984  -12.1724    4.2781 C   0  0  0  0  0  0
   -4.2593  -11.3258    5.4580 C   0  0  0  0  0  0
   -2.7033  -11.1281    5.4738 C   0  0  0  0  0  0
   -2.0367  -12.5052    5.2503 C   0  0  0  0  0  0
   -2.1887  -10.0692    4.4100 C   0  0  0  0  0  0
   -2.8381   -8.6060    4.4698 C   0  0  0  0  0  0
   -3.5901   -7.8887    3.2664 C   0  0  0  0  0  0
   -2.7123   -7.7496    1.8766 C   0  0  0  0  0  0
   -1.8907   -9.0244    1.6922 C   0  0  0  0  0  0
   -3.5425   -7.4513    0.5475 C   0  0  0  0  0  0
   -4.5098   -6.1691    0.3502 C   0  0  0  0  0  0
   -5.8834   -6.2604   -0.3987 C   0  0  0  0  0  0
   -6.4460   -4.9473   -1.1119 C   0  0  0  0  0  0
   -5.5947   -4.0204   -2.0662 C   0  0  0  0  0  0
   -4.8081   -4.6531   -3.2445 C   0  0  0  0  0  0
   -5.1430   -4.1115   -4.6880 C   0  0  0  0  0  0
   -4.6513   -4.9639   -5.8645 C   0  0  0  0  0  0
   -5.6430   -5.2611   -7.0249 C   0  0  0  0  0  0
   -5.7677   -4.2820   -8.2296 C   0  0  0  0  0  0
   -5.7677   -2.7963   -7.8979 C   0  0  0  0  0  0
   -4.7626   -4.5913   -9.2643 N   0  0  0  0  0  0
   -5.1727   -6.5066   -7.6004 O   0  0  0  0  0  0
   -6.5645   -3.9735   -4.7891 O   0  0  0  0  0  0
   -4.8372   -5.7444    1.6840 O   0  0  0  0  0  0
   -3.8221   -8.6416    5.5389 O   0  0  0  0  0  0
   -3.3671   -8.9259    6.7869 C   0  0  0  0  0  0
   -3.7760   -9.8077    7.5181 O   0  0  0  0  0  0
   -2.1960   -8.0299    7.0820 C   0  0  0  0  0  0
   -1.5837   -8.2956    8.4666 C   0  0  0  0  0  0
   -0.5675   -7.2221    8.8767 C   0  0  0  0  0  0
   -0.3852   -7.1885   10.3763 C   0  0  0  0  0  0
   -0.6938   -8.1150   11.1180 O   0  0  0  0  0  0
    0.1509   -6.0435   10.8240 O   0  0  0  0  0  0
   -2.7600   -8.3093    9.4525 C   0  0  0  0  0  0
   -3.5489   -7.3830    9.5625 O   0  0  0  0  0  0
   -2.8238   -9.4045   10.2222 O   0  0  0  0  0  0
   -0.7067  -10.0171    4.3801 O   0  0  0  0  0  0
   -0.0401  -10.7651    3.4239 C   0  0  0  0  0  0
   -0.5286  -11.7045    2.8096 O   0  0  0  0  0  0
    1.4016  -10.2862    3.2087 C   0  0  0  0  0  0
    2.5132  -11.3549    3.4471 C   0  0  0  0  0  0
    3.0883  -11.4957    4.8683 C   0  0  0  0  0  0
    2.0292  -11.4939    5.9326 C   0  0  0  0  0  0
    1.3693  -10.5245    6.2809 O   0  0  0  0  0  0
    1.8489  -12.7059    6.4792 O   0  0  0  0  0  0
    2.1565  -12.7651    2.9611 C   0  0  0  0  0  0
    2.2688  -13.1121    1.8019 O   0  0  0  0  0  0
    1.8073  -13.6400    3.9275 O   0  0  0  0  0  0
   -4.3208   -5.4830   -9.0449 H   0  0  0  0  0  0
   -4.0095   -3.9024   -9.2044 H   0  0  0  0  0  0
   -5.5524   -7.2034   -7.0245 H   0  0  0  0  0  0
   -6.9651   -4.8536   -4.6650 H   0  0  0  0  0  0
   -4.0062   -5.5657    2.1552 H   0  0  0  0  0  0
    0.4237   -5.4122   10.1307 H   0  0  0  0  0  0
   -1.9477   -9.8218   10.4150 H   0  0  0  0  0  0
    2.0781  -13.3630    5.7885 H   0  0  0  0  0  0
    1.6333  -14.5573    3.6202 H   0  0  0  0  0  0
  1  2  1  0  0  0
  2  3  1  0  0  0
  3  4  1  0  0  0
  4  5  1  0  0  0
  5  6  1  0  0  0
  5  7  1  0  0  0
  7  8  1  0  0  0
  7 39  1  0  0  0
  8  9  1  0  0  0
  8 27  1  0  0  0
  9 10  1  0  0  0
 10 11  1  0  0  0
 10 12  1  0  0  0
 12 13  1  0  0  0
 13 14  1  0  0  0
 13 26  1  0  0  0
 14 15  1  0  0  0
 15 16  1  0  0  0
 16 17  1  0  0  0
 17 18  1  0  0  0
 18 19  1  0  0  0
 18 25  1  0  0  0
 19 20  1  0  0  0
 20 21  1  0  0  0
 20 24  1  0  0  0
 21 22  1  0  0  0
 21 23  1  0  0  0
 23 51  1  0  0  0
 23 52  1  0  0  0
 24 53  1  0  0  0
 25 54  1  0  0  0
 26 55  1  0  0  0
 27 28  1  0  0  0
 28 29  2  0  0  0
 28 30  1  0  0  0
 30 31  1  0  0  0
 31 32  1  0  0  0
 31 36  1  0  0  0
 32 33  1  0  0  0
 33 34  2  0  0  0
 33 35  1  0  0  0
 35 56  1  0  0  0
 36 37  2  0  0  0
 36 38  1  0  0  0
 38 57  1  0  0  0
 39 40  1  0  0  0
 40 41  2  0  0  0
 40 42  1  0  0  0
 42 43  1  0  0  0
 43 44  1  0  0  0
 43 48  1  0  0  0
 44 45  1  0  0  0
 45 46  2  0  0  0
 45 47  1  0  0  0
 47 58  1  0  0  0
 48 49  2  0  0  0
 48 50  1  0  0  0
 50 59  1  0  0  0
M  END
>  <AUTHOR>
    GENERATED BY OPEN BABEL 2.4.1

>  <CHROM.1>
-88.87733720,128.43104556,-47.71167838,55.12290817,-122.74826809,96.06926481
-56.00127235,60.63068872,38.29917470,57.82450426,-140.95085078,-153.04426338
56.73468609,48.23956975,51.06665571,122.61412621,-164.72375377,133.41361392
-61.19764606,88.28894776,-41.77375831,82.67280934,10.45276391,-125.67390423
-178.67980364,-169.34381113,158.21593921,-55.41695317,19.30955906,-4.91109803
29.60461500,-18.41739691,122.05768823,-89.20997330,44.60390587,81.69713415
-71.36205629,-28.91430804,-176.36299105,-2.49860163,-8.63598476,2.83152535
-1.06310943,0.87769106,-1.58563676

>  <COMPND>
    UNNAMED

>  <MASTER>
        0    0    0    0    0    0    0    0  109    0  109    0

>  <Name>
FB1.pdb

>  <RI>
0

>  <Rbt.Current_Directory>
/cluster/tossine/F10/p3/0_clust01/stat

>  <Rbt.Executable>
rbdock/0.1.0

>  <Rbt.Library>
librxdock.so/0.1.0

>  <Rbt.Parameter_File>
/cluster/rxdock/data/scripts/dock.prm

>  <Rbt.Receptor>
rx_3.prm

>  <SCORE>
57.7538

>  <SCORE.INTER>
7.29201

>  <SCORE.INTER.CONST>
1

>  <SCORE.INTER.POLAR>
-2.4217

>  <SCORE.INTER.REPUL>
0.576196

>  <SCORE.INTER.ROT>
32

>  <SCORE.INTER.VDW>
-24.7552

>  <SCORE.INTER.norm>
0.14584

>  <SCORE.INTRA>
41.3285

>  <SCORE.INTRA.DIHEDRAL>
51.0997

>  <SCORE.INTRA.DIHEDRAL.0>
47.3121

>  <SCORE.INTRA.POLAR>
0.338374

>  <SCORE.INTRA.POLAR.0>
-1.47808

>  <SCORE.INTRA.REPUL>
0

>  <SCORE.INTRA.REPUL.0>
0

>  <SCORE.INTRA.VDW>
14.6282

>  <SCORE.INTRA.VDW.0>
-2.78316

>  <SCORE.INTRA.norm>
0.826571

>  <SCORE.RESTR>
9.13324

>  <SCORE.RESTR.CAVITY>
9.13324

>  <SCORE.RESTR.norm>
0.182665

>  <SCORE.SYSTEM>
0

>  <SCORE.SYSTEM.CONST>
0

>  <SCORE.SYSTEM.DIHEDRAL>
0

>  <SCORE.SYSTEM.norm>
0

>  <SCORE.heavy>
50

>  <SCORE.norm>
1.15508

$$$$
