FB1.pdb
  RxDock  10072011513D
librxdock.so/0.1.0
 59 58  0  0  0  0  0  0  0  0999 V2000
   -6.7049  -11.8245    5.3230 C   0  0  0  0  0  0
   -5.2119  -11.9952    5.5936 C   0  0  0  0  0  0
   -4.3630  -11.5948    4.3757 C   0  0  0  0  0  0
   -2.8527  -11.8911    4.5514 C   0  0  0  0  0  0
   -2.1647  -11.1367    5.7422 C   0  0  0  0  0  0
   -1.8232  -12.1709    6.8396 C   0  0  0  0  0  0
   -0.8750  -10.3182    5.3126 C   0  0  0  0  0  0
   -0.9926   -8.7207    5.3226 C   0  0  0  0  0  0
   -1.9658   -7.8690    4.3974 C   0  0  0  0  0  0
   -2.3210   -8.5533    2.9391 C   0  0  0  0  0  0
   -2.9664   -7.4920    2.0496 C   0  0  0  0  0  0
   -1.1019   -9.2309    2.1647 C   0  0  0  0  0  0
   -1.2705  -10.2219    0.8966 C   0  0  0  0  0  0
   -2.6452  -10.4369    0.1753 C   0  0  0  0  0  0
   -2.6361  -10.9889   -1.3228 C   0  0  0  0  0  0
   -1.9308  -10.2608   -2.5340 C   0  0  0  0  0  0
   -0.9980  -11.0694   -3.4739 C   0  0  0  0  0  0
   -0.4897  -10.3290   -4.7711 C   0  0  0  0  0  0
    0.7114  -10.9596   -5.4867 C   0  0  0  0  0  0
    1.5451  -10.0698   -6.4518 C   0  0  0  0  0  0
    0.9283   -9.5564   -7.7865 C   0  0  0  0  0  0
   -0.3011   -8.6666   -7.6666 C   0  0  0  0  0  0
    1.9579   -8.9222   -8.6315 N   0  0  0  0  0  0
    1.8368   -8.8719   -5.6877 O   0  0  0  0  0  0
   -1.5817  -10.2554   -5.6941 O   0  0  0  0  0  0
   -0.3980   -9.6840   -0.1113 O   0  0  0  0  0  0
   -1.3672   -8.3492    6.6769 O   0  0  0  0  0  0
   -2.6777   -8.4764    7.0113 C   0  0  0  0  0  0
   -3.5721   -8.8614    6.2824 O   0  0  0  0  0  0
   -2.8291   -8.1572    8.4730 C   0  0  0  0  0  0
   -2.0580   -9.1353    9.3738 C   0  0  0  0  0  0
   -2.1040   -8.7338   10.8536 C   0  0  0  0  0  0
   -1.3675   -7.4356   11.0895 C   0  0  0  0  0  0
   -0.6314   -6.9130   10.2595 O   0  0  0  0  0  0
   -1.5966   -6.9034   12.2990 O   0  0  0  0  0  0
   -2.7259  -10.5035    9.1797 C   0  0  0  0  0  0
   -3.7982  -10.6478    8.6124 O   0  0  0  0  0  0
   -2.0584  -11.5277    9.7289 O   0  0  0  0  0  0
    0.3265  -10.7901    6.0431 O   0  0  0  0  0  0
    1.5690  -10.3403    5.6284 C   0  0  0  0  0  0
    1.7586   -9.3231    4.9744 O   0  0  0  0  0  0
    2.7061  -11.2652    6.0821 C   0  0  0  0  0  0
    4.1194  -10.9311    5.5117 C   0  0  0  0  0  0
    4.2636  -10.7646    3.9879 C   0  0  0  0  0  0
    3.4663  -11.7712    3.2098 C   0  0  0  0  0  0
    2.8320  -12.7021    3.6871 O   0  0  0  0  0  0
    3.4965  -11.5393    1.8886 O   0  0  0  0  0  0
    4.8019   -9.7234    6.1659 C   0  0  0  0  0  0
    5.7405   -9.8295    6.9304 O   0  0  0  0  0  0
    4.3614   -8.5159    5.7547 O   0  0  0  0  0  0
    2.8240   -9.4541   -8.5587 H   0  0  0  0  0  0
    2.1796   -8.0032   -8.2419 H   0  0  0  0  0  0
    0.9568   -8.5053   -5.4584 H   0  0  0  0  0  0
   -2.2128   -9.5885   -5.3661 H   0  0  0  0  0  0
    0.5135   -9.7338    0.2223 H   0  0  0  0  0  0
   -2.5365   -6.7534   12.5170 H   0  0  0  0  0  0
   -2.3951  -12.4216    9.4716 H   0  0  0  0  0  0
    3.8211  -10.6216    1.7714 H   0  0  0  0  0  0
    4.7124   -7.7476    6.2574 H   0  0  0  0  0  0
  1  2  1  0  0  0
  2  3  1  0  0  0
  3  4  1  0  0  0
  4  5  1  0  0  0
  5  6  1  0  0  0
  5  7  1  0  0  0
  7  8  1  0  0  0
  7 39  1  0  0  0
  8  9  1  0  0  0
  8 27  1  0  0  0
  9 10  1  0  0  0
 10 11  1  0  0  0
 10 12  1  0  0  0
 12 13  1  0  0  0
 13 14  1  0  0  0
 13 26  1  0  0  0
 14 15  1  0  0  0
 15 16  1  0  0  0
 16 17  1  0  0  0
 17 18  1  0  0  0
 18 19  1  0  0  0
 18 25  1  0  0  0
 19 20  1  0  0  0
 20 21  1  0  0  0
 20 24  1  0  0  0
 21 22  1  0  0  0
 21 23  1  0  0  0
 23 51  1  0  0  0
 23 52  1  0  0  0
 24 53  1  0  0  0
 25 54  1  0  0  0
 26 55  1  0  0  0
 27 28  1  0  0  0
 28 29  2  0  0  0
 28 30  1  0  0  0
 30 31  1  0  0  0
 31 32  1  0  0  0
 31 36  1  0  0  0
 32 33  1  0  0  0
 33 34  2  0  0  0
 33 35  1  0  0  0
 35 56  1  0  0  0
 36 37  2  0  0  0
 36 38  1  0  0  0
 38 57  1  0  0  0
 39 40  1  0  0  0
 40 41  2  0  0  0
 40 42  1  0  0  0
 42 43  1  0  0  0
 43 44  1  0  0  0
 43 48  1  0  0  0
 44 45  1  0  0  0
 45 46  2  0  0  0
 45 47  1  0  0  0
 47 58  1  0  0  0
 48 49  2  0  0  0
 48 50  1  0  0  0
 50 59  1  0  0  0
M  END
>  <AUTHOR>
    GENERATED BY OPEN BABEL 2.4.1

>  <CHROM.1>
-173.96383757,-61.08490831,109.78018025,109.38757782,-63.58096072,169.32400865
-29.06832718,-80.04300797,-166.40902571,166.31616391,9.50969761,158.65568727
63.15979323,-59.54719911,131.29447743,171.79026439,163.69240486,-159.93590170
73.25092153,-67.77852870,61.03226528,-59.43558657,38.92584182,-0.64901673
-62.69794402,174.62821035,-66.09104879,-12.20353251,-12.38995419,-55.27882390
-169.64098167,21.54536212,172.76809808,-51.74138994,-40.42400041,107.14100600
-5.05100382,-15.93425333,172.23447786,-0.49892538,-9.90884938,3.28951727
1.68988579,-0.00130178,1.53464316

>  <COMPND>
    UNNAMED

>  <MASTER>
        0    0    0    0    0    0    0    0  109    0  109    0

>  <Name>
FB1.pdb

>  <RI>
0

>  <Rbt.Current_Directory>
/cluster/tossine/F10/p3/0_clust01/stat

>  <Rbt.Executable>
rbdock/0.1.0

>  <Rbt.Library>
librxdock.so/0.1.0

>  <Rbt.Parameter_File>
/cluster/rxdock/data/scripts/dock.prm

>  <Rbt.Receptor>
rx_3.prm

>  <SCORE>
20.8909

>  <SCORE.INTER>
-3.92868

>  <SCORE.INTER.CONST>
1

>  <SCORE.INTER.POLAR>
-3.12424

>  <SCORE.INTER.REPUL>
0.777334

>  <SCORE.INTER.ROT>
32

>  <SCORE.INTER.VDW>
-34.5929

>  <SCORE.INTER.norm>
-0.0785736

>  <SCORE.INTRA>
20.882

>  <SCORE.INTRA.DIHEDRAL>
21.0216

>  <SCORE.INTRA.DIHEDRAL.0>
47.3121

>  <SCORE.INTRA.POLAR>
1.47808

>  <SCORE.INTRA.POLAR.0>
-1.47808

>  <SCORE.INTRA.REPUL>
0

>  <SCORE.INTRA.REPUL.0>
0

>  <SCORE.INTRA.VDW>
5.34576

>  <SCORE.INTRA.VDW.0>
-2.78316

>  <SCORE.INTRA.norm>
0.41764

>  <SCORE.RESTR>
3.93759

>  <SCORE.RESTR.CAVITY>
3.93759

>  <SCORE.RESTR.norm>
0.0787517

>  <SCORE.SYSTEM>
0

>  <SCORE.SYSTEM.CONST>
0

>  <SCORE.SYSTEM.DIHEDRAL>
0

>  <SCORE.SYSTEM.norm>
0

>  <SCORE.heavy>
50

>  <SCORE.norm>
0.417818

$$$$
