FB1.pdb
  RxDock  10072011333D
librxdock.so/0.1.0
 59 58  0  0  0  0  0  0  0  0999 V2000
    6.2527   -4.0022  -10.2261 C   0  0  0  0  0  0
    5.7609   -4.2822  -11.6442 C   0  0  0  0  0  0
    4.2281   -4.2072  -11.7405 C   0  0  0  0  0  0
    3.6496   -2.8323  -11.3224 C   0  0  0  0  0  0
    3.5738   -2.5895   -9.7746 C   0  0  0  0  0  0
    3.8743   -1.0975   -9.5020 C   0  0  0  0  0  0
    2.1858   -3.0150   -9.1341 C   0  0  0  0  0  0
    1.7541   -4.5497   -9.2914 C   0  0  0  0  0  0
    1.7236   -5.3559  -10.6615 C   0  0  0  0  0  0
    0.2625   -5.3791  -11.4271 C   0  0  0  0  0  0
    0.4279   -6.0959  -12.7661 C   0  0  0  0  0  0
   -0.9458   -6.0327  -10.6161 C   0  0  0  0  0  0
   -1.1670   -7.6266  -10.4448 C   0  0  0  0  0  0
   -0.9922   -8.3559   -9.0687 C   0  0  0  0  0  0
   -0.6369   -9.9125   -9.0763 C   0  0  0  0  0  0
   -0.0476  -10.6955   -7.8377 C   0  0  0  0  0  0
   -0.3551  -10.1967   -6.4010 C   0  0  0  0  0  0
    0.7949  -10.3659   -5.3342 C   0  0  0  0  0  0
    0.5398   -9.7435   -3.9558 C   0  0  0  0  0  0
   -0.2677  -10.5671   -2.9128 C   0  0  0  0  0  0
    0.4128  -11.0755   -1.6075 C   0  0  0  0  0  0
   -0.5078  -11.6698   -0.5507 C   0  0  0  0  0  0
    1.5229  -11.9962   -1.9178 N   0  0  0  0  0  0
   -1.3142   -9.6682   -2.4651 O   0  0  0  0  0  0
    1.0359  -11.7668   -5.1630 O   0  0  0  0  0  0
   -2.5371   -7.8517  -10.8174 O   0  0  0  0  0  0
    2.6544   -5.3139   -8.4442 O   0  0  0  0  0  0
    3.9803   -5.0359   -8.5442 C   0  0  0  0  0  0
    4.5625   -4.1074   -8.0166 O   0  0  0  0  0  0
    4.6375   -6.1305   -9.3388 C   0  0  0  0  0  0
    3.7117   -7.3375   -9.5590 C   0  0  0  0  0  0
    4.2243   -8.2802  -10.6554 C   0  0  0  0  0  0
    3.1817   -9.3121  -11.0183 C   0  0  0  0  0  0
    3.4529  -10.4506  -11.3842 O   0  0  0  0  0  0
    1.9230   -8.8642  -10.9004 O   0  0  0  0  0  0
    3.6552   -8.0766   -8.2150 C   0  0  0  0  0  0
    4.4639   -7.8924   -7.3181 O   0  0  0  0  0  0
    2.6708   -8.9812   -8.1222 O   0  0  0  0  0  0
    2.0793   -2.5504   -7.7296 O   0  0  0  0  0  0
    1.4160   -1.3611   -7.4773 C   0  0  0  0  0  0
    0.3345   -1.0511   -7.9596 O   0  0  0  0  0  0
    2.1905   -0.4541   -6.5119 C   0  0  0  0  0  0
    2.9392    0.7486   -7.1657 C   0  0  0  0  0  0
    2.0979    1.8236   -7.8777 C   0  0  0  0  0  0
    1.8707    1.5233   -9.3312 C   0  0  0  0  0  0
    2.7450    1.3586  -10.1709 O   0  0  0  0  0  0
    0.5680    1.4287   -9.6382 O   0  0  0  0  0  0
    3.9106    1.4794   -6.2306 C   0  0  0  0  0  0
    5.0913    1.6178   -6.4824 O   0  0  0  0  0  0
    3.3484    2.0590   -5.1493 O   0  0  0  0  0  0
    2.4032  -11.5631   -1.6421 H   0  0  0  0  0  0
    1.5870  -12.1001   -2.9330 H   0  0  0  0  0  0
   -2.0050  -10.2581   -2.0962 H   0  0  0  0  0  0
    0.1911  -12.1947   -4.9311 H   0  0  0  0  0  0
   -2.7380   -7.2851  -11.5810 H   0  0  0  0  0  0
    1.4708   -8.6659  -11.7428 H   0  0  0  0  0  0
    1.8214   -8.6271   -7.7589 H   0  0  0  0  0  0
    0.1291    2.2132   -9.2467 H   0  0  0  0  0  0
    2.3661    2.0321   -5.1218 H   0  0  0  0  0  0
  1  2  1  0  0  0
  2  3  1  0  0  0
  3  4  1  0  0  0
  4  5  1  0  0  0
  5  6  1  0  0  0
  5  7  1  0  0  0
  7  8  1  0  0  0
  7 39  1  0  0  0
  8  9  1  0  0  0
  8 27  1  0  0  0
  9 10  1  0  0  0
 10 11  1  0  0  0
 10 12  1  0  0  0
 12 13  1  0  0  0
 13 14  1  0  0  0
 13 26  1  0  0  0
 14 15  1  0  0  0
 15 16  1  0  0  0
 16 17  1  0  0  0
 17 18  1  0  0  0
 18 19  1  0  0  0
 18 25  1  0  0  0
 19 20  1  0  0  0
 20 21  1  0  0  0
 20 24  1  0  0  0
 21 22  1  0  0  0
 21 23  1  0  0  0
 23 51  1  0  0  0
 23 52  1  0  0  0
 24 53  1  0  0  0
 25 54  1  0  0  0
 26 55  1  0  0  0
 27 28  1  0  0  0
 28 29  2  0  0  0
 28 30  1  0  0  0
 30 31  1  0  0  0
 31 32  1  0  0  0
 31 36  1  0  0  0
 32 33  1  0  0  0
 33 34  2  0  0  0
 33 35  1  0  0  0
 35 56  1  0  0  0
 36 37  2  0  0  0
 36 38  1  0  0  0
 38 57  1  0  0  0
 39 40  1  0  0  0
 40 41  2  0  0  0
 40 42  1  0  0  0
 42 43  1  0  0  0
 43 44  1  0  0  0
 43 48  1  0  0  0
 44 45  1  0  0  0
 45 46  2  0  0  0
 45 47  1  0  0  0
 47 58  1  0  0  0
 48 49  2  0  0  0
 48 50  1  0  0  0
 50 59  1  0  0  0
M  END
>  <AUTHOR>
    GENERATED BY OPEN BABEL 2.4.1

>  <CHROM.1>
58.84772763,-77.90809093,144.28761084,59.65919199,-51.30637278,96.32551492
-94.16094006,-47.41831146,175.75316434,-77.45932331,111.12263401,-155.27767393
39.54818239,162.48415435,27.30646966,-144.68338874,173.97913654,84.31724970
-54.88223878,113.89593884,170.29189547,158.84448786,113.26510840,80.33508884
-11.03681360,164.99672053,-169.85400106,-16.51101548,-147.89486088,105.23903163
-90.68004331,46.15669062,103.22622328,63.24588880,-89.67223190,122.91614495
-58.12000295,48.31696886,-6.04158160,1.99750449,-5.50311718,-8.14985580,-0.49235156
-1.31512810,-2.37178065

>  <COMPND>
    UNNAMED

>  <MASTER>
        0    0    0    0    0    0    0    0  109    0  109    0

>  <Name>
FB1.pdb

>  <RI>
0

>  <Rbt.Current_Directory>
/cluster/tossine/F10/p3/0_clust01/stat

>  <Rbt.Executable>
rbdock/0.1.0

>  <Rbt.Library>
librxdock.so/0.1.0

>  <Rbt.Parameter_File>
/cluster/rxdock/data/scripts/dock.prm

>  <Rbt.Receptor>
rx_3.prm

>  <SCORE>
115.636

>  <SCORE.INTER>
40.1069

>  <SCORE.INTER.CONST>
1

>  <SCORE.INTER.POLAR>
-2.92619

>  <SCORE.INTER.REPUL>
1.35973

>  <SCORE.INTER.ROT>
32

>  <SCORE.INTER.VDW>
5.85726

>  <SCORE.INTER.norm>
0.802138

>  <SCORE.INTRA>
66.3216

>  <SCORE.INTRA.DIHEDRAL>
108.344

>  <SCORE.INTRA.DIHEDRAL.0>
47.3121

>  <SCORE.INTRA.POLAR>
1.17869

>  <SCORE.INTRA.POLAR.0>
-1.47808

>  <SCORE.INTRA.REPUL>
0

>  <SCORE.INTRA.REPUL.0>
0

>  <SCORE.INTRA.VDW>
8.14225

>  <SCORE.INTRA.VDW.0>
-2.78316

>  <SCORE.INTRA.norm>
1.32643

>  <SCORE.RESTR>
9.20778

>  <SCORE.RESTR.CAVITY>
9.20778

>  <SCORE.RESTR.norm>
0.184156

>  <SCORE.SYSTEM>
0

>  <SCORE.SYSTEM.CONST>
0

>  <SCORE.SYSTEM.DIHEDRAL>
0

>  <SCORE.SYSTEM.norm>
0

>  <SCORE.heavy>
50

>  <SCORE.norm>
2.31273

$$$$
