FB1.pdb
  RxDock  10072012023D
librxdock.so/0.1.0
 59 58  0  0  0  0  0  0  0  0999 V2000
    5.6207   -6.0001   -9.0002 C   0  0  0  0  0  0
    5.3345   -7.4825   -9.2280 C   0  0  0  0  0  0
    4.7305   -7.7386  -10.6187 C   0  0  0  0  0  0
    3.8178   -8.9891  -10.6748 C   0  0  0  0  0  0
    2.4679   -8.8587   -9.8866 C   0  0  0  0  0  0
    2.7703   -9.0089   -8.3777 C   0  0  0  0  0  0
    1.6926   -7.5053  -10.1780 C   0  0  0  0  0  0
    0.2076   -7.3787   -9.5907 C   0  0  0  0  0  0
   -1.1204   -7.3279  -10.4636 C   0  0  0  0  0  0
   -1.0778   -6.2859  -11.7418 C   0  0  0  0  0  0
    0.0195   -6.7412  -12.7024 C   0  0  0  0  0  0
   -2.4451   -6.0983  -12.5418 C   0  0  0  0  0  0
   -3.8855   -5.8778  -11.8381 C   0  0  0  0  0  0
   -4.4837   -4.4530  -11.5769 C   0  0  0  0  0  0
   -6.0585   -4.3230  -11.3482 C   0  0  0  0  0  0
   -6.7281   -3.3282  -10.3203 C   0  0  0  0  0  0
   -6.5906   -1.7980  -10.5369 C   0  0  0  0  0  0
   -6.9611   -0.8758   -9.3115 C   0  0  0  0  0  0
   -6.3015   -1.2281   -7.9724 C   0  0  0  0  0  0
   -6.1371   -0.1020   -6.9126 C   0  0  0  0  0  0
   -7.3869    0.5938   -6.2968 C   0  0  0  0  0  0
   -7.9935    1.7339   -7.1027 C   0  0  0  0  0  0
   -8.4149   -0.3994   -5.9320 N   0  0  0  0  0  0
   -5.4753   -0.7444   -5.7932 O   0  0  0  0  0  0
   -6.6115    0.4706   -9.6504 O   0  0  0  0  0  0
   -4.8263   -6.5254  -12.7111 O   0  0  0  0  0  0
    0.0185   -8.5225   -8.7141 O   0  0  0  0  0  0
   -0.9378   -8.4136   -7.7555 C   0  0  0  0  0  0
   -2.0913   -8.0673   -7.9261 O   0  0  0  0  0  0
   -0.3615   -8.8923   -6.4516 C   0  0  0  0  0  0
   -1.2183   -9.9854   -5.7933 C   0  0  0  0  0  0
   -0.6308  -10.4722   -4.4625 C   0  0  0  0  0  0
    0.8155  -10.8800   -4.6218 C   0  0  0  0  0  0
    1.3327  -11.1364   -5.7037 O   0  0  0  0  0  0
    1.4863  -10.9343   -3.4617 O   0  0  0  0  0  0
   -2.5984   -9.3557   -5.5592 C   0  0  0  0  0  0
   -3.6026   -9.7076   -6.1593 O   0  0  0  0  0  0
   -2.6042   -8.3495   -4.6740 O   0  0  0  0  0  0
    2.5260   -6.3267   -9.8369 O   0  0  0  0  0  0
    2.1067   -5.0775  -10.2632 C   0  0  0  0  0  0
    0.9518   -4.7910  -10.5503 O   0  0  0  0  0  0
    3.2607   -4.0691  -10.3398 C   0  0  0  0  0  0
    3.3656   -3.0679   -9.1477 C   0  0  0  0  0  0
    4.5777   -2.1196   -9.1041 C   0  0  0  0  0  0
    4.4519   -1.0549   -8.0529 C   0  0  0  0  0  0
    5.0039   -1.0613   -6.9611 O   0  0  0  0  0  0
    3.6612   -0.0424   -8.4400 O   0  0  0  0  0  0
    2.1129   -2.2124   -8.9214 C   0  0  0  0  0  0
    1.7760   -1.3222   -9.6768 O   0  0  0  0  0  0
    1.3400   -2.5814   -7.8784 O   0  0  0  0  0  0
   -8.9097   -0.6925   -6.7734 H   0  0  0  0  0  0
   -9.1238    0.0605   -5.3563 H   0  0  0  0  0  0
   -5.1205   -0.0034   -5.2580 H   0  0  0  0  0  0
   -7.1536    0.7427  -10.4136 H   0  0  0  0  0  0
   -4.8461   -6.0341  -13.5494 H   0  0  0  0  0  0
    2.4212  -11.2068   -3.5334 H   0  0  0  0  0  0
   -1.7618   -8.2457   -4.1657 H   0  0  0  0  0  0
    3.6407    0.5982   -7.6980 H   0  0  0  0  0  0
    1.4227   -3.5225   -7.6070 H   0  0  0  0  0  0
  1  2  1  0  0  0
  2  3  1  0  0  0
  3  4  1  0  0  0
  4  5  1  0  0  0
  5  6  1  0  0  0
  5  7  1  0  0  0
  7  8  1  0  0  0
  7 39  1  0  0  0
  8  9  1  0  0  0
  8 27  1  0  0  0
  9 10  1  0  0  0
 10 11  1  0  0  0
 10 12  1  0  0  0
 12 13  1  0  0  0
 13 14  1  0  0  0
 13 26  1  0  0  0
 14 15  1  0  0  0
 15 16  1  0  0  0
 16 17  1  0  0  0
 17 18  1  0  0  0
 18 19  1  0  0  0
 18 25  1  0  0  0
 19 20  1  0  0  0
 20 21  1  0  0  0
 20 24  1  0  0  0
 21 22  1  0  0  0
 21 23  1  0  0  0
 23 51  1  0  0  0
 23 52  1  0  0  0
 24 53  1  0  0  0
 25 54  1  0  0  0
 26 55  1  0  0  0
 27 28  1  0  0  0
 28 29  2  0  0  0
 28 30  1  0  0  0
 30 31  1  0  0  0
 31 32  1  0  0  0
 31 36  1  0  0  0
 32 33  1  0  0  0
 33 34  2  0  0  0
 33 35  1  0  0  0
 35 56  1  0  0  0
 36 37  2  0  0  0
 36 38  1  0  0  0
 38 57  1  0  0  0
 39 40  1  0  0  0
 40 41  2  0  0  0
 40 42  1  0  0  0
 42 43  1  0  0  0
 43 44  1  0  0  0
 43 48  1  0  0  0
 44 45  1  0  0  0
 45 46  2  0  0  0
 45 47  1  0  0  0
 47 58  1  0  0  0
 48 49  2  0  0  0
 48 50  1  0  0  0
 50 59  1  0  0  0
M  END
>  <AUTHOR>
    GENERATED BY OPEN BABEL 2.4.1

>  <CHROM.1>
-151.96362661,68.96990865,-76.24982845,171.18212538,-112.20238248,167.91152055
-47.31792249,157.56990601,62.32815276,45.47782916,94.08482303,159.71415774
-66.41622789,142.32610224,64.97329171,-165.28943201,50.65113101,155.39905433
62.97816507,63.07449637,-83.54373214,162.67051442,-78.09807451,50.82732496
-126.10512210,-179.93352180,-52.42455761,112.07227472,-18.45123201,179.23280353
-10.46606247,22.38487641,-100.93800008,174.44622020,170.19464528,-70.93679380
101.52807987,-179.89210811,-24.13342228,-0.84845017,-5.25685307,-8.62112904
-0.62447530,0.15109510,-0.24796484

>  <COMPND>
    UNNAMED

>  <MASTER>
        0    0    0    0    0    0    0    0  109    0  109    0

>  <Name>
FB1.pdb

>  <RI>
0

>  <Rbt.Current_Directory>
/cluster/tossine/F10/p3/0_clust01/stat

>  <Rbt.Executable>
rbdock/0.1.0

>  <Rbt.Library>
librxdock.so/0.1.0

>  <Rbt.Parameter_File>
/cluster/rxdock/data/scripts/dock.prm

>  <Rbt.Receptor>
rx_3.prm

>  <SCORE>
30.4981

>  <SCORE.INTER>
4.8974

>  <SCORE.INTER.CONST>
1

>  <SCORE.INTER.POLAR>
-1.46621

>  <SCORE.INTER.REPUL>
0.214342

>  <SCORE.INTER.ROT>
32

>  <SCORE.INTER.VDW>
-28.5892

>  <SCORE.INTER.norm>
0.0979481

>  <SCORE.INTRA>
17.8163

>  <SCORE.INTRA.DIHEDRAL>
19.9839

>  <SCORE.INTRA.DIHEDRAL.0>
47.3121

>  <SCORE.INTRA.POLAR>
1.47808

>  <SCORE.INTRA.POLAR.0>
-1.47808

>  <SCORE.INTRA.REPUL>
0

>  <SCORE.INTRA.REPUL.0>
0

>  <SCORE.INTRA.VDW>
2.79888

>  <SCORE.INTRA.VDW.0>
-2.78316

>  <SCORE.INTRA.norm>
0.356326

>  <SCORE.RESTR>
7.78442

>  <SCORE.RESTR.CAVITY>
7.78442

>  <SCORE.RESTR.norm>
0.155688

>  <SCORE.SYSTEM>
0

>  <SCORE.SYSTEM.CONST>
0

>  <SCORE.SYSTEM.DIHEDRAL>
0

>  <SCORE.SYSTEM.norm>
0

>  <SCORE.heavy>
50

>  <SCORE.norm>
0.609963

$$$$
