FB1.pdb
  RxDock  10072012023D
librxdock.so/0.1.0
 59 58  0  0  0  0  0  0  0  0999 V2000
    5.9675   -9.7869   -2.0859 C   0  0  0  0  0  0
    4.5352  -10.2276   -2.3785 C   0  0  0  0  0  0
    4.1250  -11.4363   -1.5211 C   0  0  0  0  0  0
    3.6009  -11.0475   -0.1162 C   0  0  0  0  0  0
    2.8901  -12.2049    0.6684 C   0  0  0  0  0  0
    3.9458  -13.2832    1.0050 C   0  0  0  0  0  0
    2.1415  -11.7150    1.9789 C   0  0  0  0  0  0
    0.6672  -12.2891    2.2301 C   0  0  0  0  0  0
   -0.0711  -12.3306    3.6377 C   0  0  0  0  0  0
   -1.2115  -11.1604    3.8642 C   0  0  0  0  0  0
   -2.1404  -11.6006    4.9944 C   0  0  0  0  0  0
   -0.6630   -9.6926    4.1636 C   0  0  0  0  0  0
   -1.5901   -8.3667    4.1975 C   0  0  0  0  0  0
   -3.0640   -8.3854    4.7298 C   0  0  0  0  0  0
   -4.1822   -9.0953    3.8382 C   0  0  0  0  0  0
   -5.0202   -8.3648    2.7163 C   0  0  0  0  0  0
   -4.6015   -6.9449    2.2516 C   0  0  0  0  0  0
   -4.6751   -6.6594    0.7017 C   0  0  0  0  0  0
   -4.9568   -5.2089    0.2907 C   0  0  0  0  0  0
   -4.6681   -4.7895   -1.1787 C   0  0  0  0  0  0
   -5.5024   -5.3863   -2.3505 C   0  0  0  0  0  0
   -7.0016   -5.1241   -2.3170 C   0  0  0  0  0  0
   -4.9287   -5.0009   -3.6538 N   0  0  0  0  0  0
   -4.9369   -3.3646   -1.2140 O   0  0  0  0  0  0
   -3.4318   -7.0641    0.1185 O   0  0  0  0  0  0
   -0.8923   -7.4498    5.0572 O   0  0  0  0  0  0
   -0.2211  -11.5134    1.3806 O   0  0  0  0  0  0
   -1.1967  -12.1936    0.7243 C   0  0  0  0  0  0
   -1.6969  -13.2469    1.0703 O   0  0  0  0  0  0
   -1.6342  -11.3749   -0.4589 C   0  0  0  0  0  0
   -0.4697  -10.6154   -1.1143 C   0  0  0  0  0  0
   -0.8899   -9.8871   -2.3974 C   0  0  0  0  0  0
   -1.1570  -10.8658   -3.5172 C   0  0  0  0  0  0
   -0.2896  -11.5678   -4.0258 O   0  0  0  0  0  0
   -2.4406  -10.8969   -3.9049 O   0  0  0  0  0  0
    0.0139   -9.6010   -0.0688 C   0  0  0  0  0  0
   -0.7286   -8.7963    0.4730 O   0  0  0  0  0  0
    1.3326   -9.6360    0.1671 O   0  0  0  0  0  0
    3.0051  -11.8626    3.1757 O   0  0  0  0  0  0
    2.9343  -13.0420    3.8982 C   0  0  0  0  0  0
    2.8214  -14.1559    3.4035 O   0  0  0  0  0  0
    3.0140  -12.8049    5.4121 C   0  0  0  0  0  0
    3.3870  -11.3551    5.8519 C   0  0  0  0  0  0
    4.7203  -10.7684    5.3536 C   0  0  0  0  0  0
    5.1052   -9.5019    6.0622 C   0  0  0  0  0  0
    5.6706   -8.5434    5.5540 O   0  0  0  0  0  0
    4.7423   -9.5060    7.3540 O   0  0  0  0  0  0
    2.3010  -10.3069    5.5795 C   0  0  0  0  0  0
    2.4657   -9.3651    4.8294 O   0  0  0  0  0  0
    1.1017  -10.5542    6.1467 O   0  0  0  0  0  0
   -4.4433   -5.8020   -4.0552 H   0  0  0  0  0  0
   -4.1985   -4.3027   -3.4957 H   0  0  0  0  0  0
   -4.3256   -2.9818   -0.5499 H   0  0  0  0  0  0
   -2.7107   -6.6172    0.5989 H   0  0  0  0  0  0
   -0.7808   -7.8756    5.9237 H   0  0  0  0  0  0
   -2.6701  -11.6120   -4.5290 H   0  0  0  0  0  0
    1.6519   -8.9576    0.8126 H   0  0  0  0  0  0
    5.0351   -8.6497    7.7312 H   0  0  0  0  0  0
    1.0886  -11.2925    6.7956 H   0  0  0  0  0  0
  1  2  1  0  0  0
  2  3  1  0  0  0
  3  4  1  0  0  0
  4  5  1  0  0  0
  5  6  1  0  0  0
  5  7  1  0  0  0
  7  8  1  0  0  0
  7 39  1  0  0  0
  8  9  1  0  0  0
  8 27  1  0  0  0
  9 10  1  0  0  0
 10 11  1  0  0  0
 10 12  1  0  0  0
 12 13  1  0  0  0
 13 14  1  0  0  0
 13 26  1  0  0  0
 14 15  1  0  0  0
 15 16  1  0  0  0
 16 17  1  0  0  0
 17 18  1  0  0  0
 18 19  1  0  0  0
 18 25  1  0  0  0
 19 20  1  0  0  0
 20 21  1  0  0  0
 20 24  1  0  0  0
 21 22  1  0  0  0
 21 23  1  0  0  0
 23 51  1  0  0  0
 23 52  1  0  0  0
 24 53  1  0  0  0
 25 54  1  0  0  0
 26 55  1  0  0  0
 27 28  1  0  0  0
 28 29  2  0  0  0
 28 30  1  0  0  0
 30 31  1  0  0  0
 31 32  1  0  0  0
 31 36  1  0  0  0
 32 33  1  0  0  0
 33 34  2  0  0  0
 33 35  1  0  0  0
 35 56  1  0  0  0
 36 37  2  0  0  0
 36 38  1  0  0  0
 38 57  1  0  0  0
 39 40  1  0  0  0
 40 41  2  0  0  0
 40 42  1  0  0  0
 42 43  1  0  0  0
 43 44  1  0  0  0
 43 48  1  0  0  0
 44 45  1  0  0  0
 45 46  2  0  0  0
 45 47  1  0  0  0
 47 58  1  0  0  0
 48 49  2  0  0  0
 48 50  1  0  0  0
 50 59  1  0  0  0
M  END
>  <AUTHOR>
    GENERATED BY OPEN BABEL 2.4.1

>  <CHROM.1>
84.84811039,167.45103396,66.66506698,135.11293213,159.17372430,-91.41852062
102.43999911,138.19888255,160.61931173,170.50003999,35.17312454,-72.04719269
-58.10188692,-88.84539004,11.09574540,138.83269429,150.52571028,163.88695330
-53.94542040,66.41949980,60.19806143,58.96496428,104.81508391,25.98918299
36.16753286,174.58972599,-71.28438202,-53.94010258,-65.82646112,-171.09255919
177.57206250,39.27358606,-9.51482233,-58.16976296,-167.90648982,-117.50340591
-144.06124499,179.77871258,9.94794187,-0.07993373,-9.75924672,1.60570945
-0.45628676,0.58685213,-1.68406075

>  <COMPND>
    UNNAMED

>  <MASTER>
        0    0    0    0    0    0    0    0  109    0  109    0

>  <Name>
FB1.pdb

>  <RI>
0

>  <Rbt.Current_Directory>
/cluster/tossine/F10/p3/0_clust01/stat

>  <Rbt.Executable>
rbdock/0.1.0

>  <Rbt.Library>
librxdock.so/0.1.0

>  <Rbt.Parameter_File>
/cluster/rxdock/data/scripts/dock.prm

>  <Rbt.Receptor>
rx_3.prm

>  <SCORE>
48.9657

>  <SCORE.INTER>
16.2239

>  <SCORE.INTER.CONST>
1

>  <SCORE.INTER.POLAR>
-1.96438

>  <SCORE.INTER.REPUL>
0.322705

>  <SCORE.INTER.ROT>
32

>  <SCORE.INTER.VDW>
-16.1108

>  <SCORE.INTER.norm>
0.324477

>  <SCORE.INTRA>
21.7431

>  <SCORE.INTRA.DIHEDRAL>
30.0779

>  <SCORE.INTRA.DIHEDRAL.0>
47.3121

>  <SCORE.INTRA.POLAR>
1.47808

>  <SCORE.INTRA.POLAR.0>
-1.47808

>  <SCORE.INTRA.REPUL>
0.0589365

>  <SCORE.INTRA.REPUL.0>
0

>  <SCORE.INTRA.VDW>
1.38399

>  <SCORE.INTRA.VDW.0>
-2.78316

>  <SCORE.INTRA.norm>
0.434862

>  <SCORE.RESTR>
10.9988

>  <SCORE.RESTR.CAVITY>
10.9988

>  <SCORE.RESTR.norm>
0.219975

>  <SCORE.SYSTEM>
0

>  <SCORE.SYSTEM.CONST>
0

>  <SCORE.SYSTEM.DIHEDRAL>
0

>  <SCORE.SYSTEM.norm>
0

>  <SCORE.heavy>
50

>  <SCORE.norm>
0.979314

$$$$
