FB1.pdb
  RxDock  10072012013D
librxdock.so/0.1.0
 59 58  0  0  0  0  0  0  0  0999 V2000
    5.0482   -9.4443    5.8119 C   0  0  0  0  0  0
    4.2044  -10.6499    6.2194 C   0  0  0  0  0  0
    3.6430  -11.3918    4.9952 C   0  0  0  0  0  0
    2.5610  -10.5898    4.2297 C   0  0  0  0  0  0
    2.2515  -11.1106    2.7828 C   0  0  0  0  0  0
    1.6689  -12.5384    2.8950 C   0  0  0  0  0  0
    1.2774  -10.1630    1.9637 C   0  0  0  0  0  0
    0.6676  -10.7503    0.6037 C   0  0  0  0  0  0
   -0.0398   -9.8878   -0.5294 C   0  0  0  0  0  0
   -0.5774  -10.7482   -1.8302 C   0  0  0  0  0  0
   -1.1194  -12.0881   -1.3352 C   0  0  0  0  0  0
   -1.6727  -10.0323   -2.7427 C   0  0  0  0  0  0
   -2.1537  -10.5849   -4.1855 C   0  0  0  0  0  0
   -1.4503  -10.1672   -5.5222 C   0  0  0  0  0  0
   -2.1109   -9.0045   -6.3946 C   0  0  0  0  0  0
   -2.5149   -7.5874   -5.8263 C   0  0  0  0  0  0
   -4.0115   -7.1807   -5.7793 C   0  0  0  0  0  0
   -4.3824   -5.9611   -4.8496 C   0  0  0  0  0  0
   -5.8235   -5.4454   -4.9481 C   0  0  0  0  0  0
   -6.1564   -4.0626   -4.3194 C   0  0  0  0  0  0
   -6.1976   -3.8859   -2.7726 C   0  0  0  0  0  0
   -7.4872   -4.2995   -2.0775 C   0  0  0  0  0  0
   -5.0287   -4.5255   -2.1393 N   0  0  0  0  0  0
   -5.0902   -3.1881   -4.7689 O   0  0  0  0  0  0
   -4.1287   -6.3458   -3.4941 O   0  0  0  0  0  0
   -1.9936  -12.0113   -4.1071 O   0  0  0  0  0  0
    1.7652  -11.4128   -0.0810 O   0  0  0  0  0  0
    2.6941  -10.6168   -0.6716 C   0  0  0  0  0  0
    3.2140   -9.6323   -0.1818 O   0  0  0  0  0  0
    3.0541  -11.2134   -2.0042 C   0  0  0  0  0  0
    2.6522  -10.3120   -3.1826 C   0  0  0  0  0  0
    3.8481   -9.9247   -4.0619 C   0  0  0  0  0  0
    4.0251   -8.4248   -4.1114 C   0  0  0  0  0  0
    5.0981   -7.8619   -3.9226 O   0  0  0  0  0  0
    2.8918   -7.7617   -4.3848 O   0  0  0  0  0  0
    1.6362  -11.1184   -4.0031 C   0  0  0  0  0  0
    1.0791  -12.1190   -3.5777 O   0  0  0  0  0  0
    1.4448  -10.6625   -5.2487 O   0  0  0  0  0  0
    0.2271   -9.5889    2.8396 O   0  0  0  0  0  0
   -0.8280  -10.4003    3.2223 C   0  0  0  0  0  0
   -0.9805  -11.5603    2.8624 O   0  0  0  0  0  0
   -1.8052   -9.6826    4.1626 C   0  0  0  0  0  0
   -2.3417  -10.5305    5.3575 C   0  0  0  0  0  0
   -1.4801  -10.6122    6.6309 C   0  0  0  0  0  0
   -1.1337   -9.2634    7.1923 C   0  0  0  0  0  0
   -1.7296   -8.6919    8.0951 O   0  0  0  0  0  0
   -0.0550   -8.7243    6.6041 O   0  0  0  0  0  0
   -3.7685  -10.1805    5.7979 C   0  0  0  0  0  0
   -4.0345   -9.1883    6.4471 O   0  0  0  0  0  0
   -4.7365  -10.9936    5.3255 O   0  0  0  0  0  0
   -5.0378   -4.3237   -1.1404 H   0  0  0  0  0  0
   -4.1801   -4.0763   -2.4910 H   0  0  0  0  0  0
   -4.2968   -3.4960   -4.2820 H   0  0  0  0  0  0
   -4.7343   -7.0752   -3.2665 H   0  0  0  0  0  0
   -2.5502  -12.3369   -3.3800 H   0  0  0  0  0  0
    2.0820   -8.3072   -4.3945 H   0  0  0  0  0  0
    1.9420   -9.8345   -5.4632 H   0  0  0  0  0  0
    0.2017   -9.3305    5.8776 H   0  0  0  0  0  0
   -5.6358  -10.8294    5.6868 H   0  0  0  0  0  0
  1  2  1  0  0  0
  2  3  1  0  0  0
  3  4  1  0  0  0
  4  5  1  0  0  0
  5  6  1  0  0  0
  5  7  1  0  0  0
  7  8  1  0  0  0
  7 39  1  0  0  0
  8  9  1  0  0  0
  8 27  1  0  0  0
  9 10  1  0  0  0
 10 11  1  0  0  0
 10 12  1  0  0  0
 12 13  1  0  0  0
 13 14  1  0  0  0
 13 26  1  0  0  0
 14 15  1  0  0  0
 15 16  1  0  0  0
 16 17  1  0  0  0
 17 18  1  0  0  0
 18 19  1  0  0  0
 18 25  1  0  0  0
 19 20  1  0  0  0
 20 21  1  0  0  0
 20 24  1  0  0  0
 21 22  1  0  0  0
 21 23  1  0  0  0
 23 51  1  0  0  0
 23 52  1  0  0  0
 24 53  1  0  0  0
 25 54  1  0  0  0
 26 55  1  0  0  0
 27 28  1  0  0  0
 28 29  2  0  0  0
 28 30  1  0  0  0
 30 31  1  0  0  0
 31 32  1  0  0  0
 31 36  1  0  0  0
 32 33  1  0  0  0
 33 34  2  0  0  0
 33 35  1  0  0  0
 35 56  1  0  0  0
 36 37  2  0  0  0
 36 38  1  0  0  0
 38 57  1  0  0  0
 39 40  1  0  0  0
 40 41  2  0  0  0
 40 42  1  0  0  0
 42 43  1  0  0  0
 43 44  1  0  0  0
 43 48  1  0  0  0
 44 45  1  0  0  0
 45 46  2  0  0  0
 45 47  1  0  0  0
 47 58  1  0  0  0
 48 49  2  0  0  0
 48 50  1  0  0  0
 50 59  1  0  0  0
M  END
>  <AUTHOR>
    GENERATED BY OPEN BABEL 2.4.1

>  <CHROM.1>
-69.21809411,163.79340273,63.56900257,-167.84905538,-165.00031611,-76.12900681
179.94639051,-74.19927173,37.27173230,169.56403625,-89.88369010,-98.29618975
59.81828565,51.86236109,-114.31176062,163.27583218,172.14789378,-165.99979694
-64.36848346,-71.41051161,-82.41594288,-70.31466137,175.00468183,45.39975479
115.46977066,121.62329232,-120.57810234,14.99847902,131.03744174,8.08494390
-3.40159528,-1.91393426,-138.79162603,84.34532678,55.12873489,-75.96104766
96.53086049,4.90033305,173.52094346,-0.61980212,-9.26077540,-0.18526621,-1.22217884
0.48115360,-1.41831451

>  <COMPND>
    UNNAMED

>  <MASTER>
        0    0    0    0    0    0    0    0  109    0  109    0

>  <Name>
FB1.pdb

>  <RI>
0

>  <Rbt.Current_Directory>
/cluster/tossine/F10/p3/0_clust01/stat

>  <Rbt.Executable>
rbdock/0.1.0

>  <Rbt.Library>
librxdock.so/0.1.0

>  <Rbt.Parameter_File>
/cluster/rxdock/data/scripts/dock.prm

>  <Rbt.Receptor>
rx_3.prm

>  <SCORE>
34.9063

>  <SCORE.INTER>
8.74466

>  <SCORE.INTER.CONST>
1

>  <SCORE.INTER.POLAR>
-1.69666

>  <SCORE.INTER.REPUL>
0.721098

>  <SCORE.INTER.ROT>
32

>  <SCORE.INTER.VDW>
-26.4922

>  <SCORE.INTER.norm>
0.174893

>  <SCORE.INTRA>
19.6524

>  <SCORE.INTRA.DIHEDRAL>
16.9679

>  <SCORE.INTRA.DIHEDRAL.0>
47.3121

>  <SCORE.INTRA.POLAR>
1.47808

>  <SCORE.INTRA.POLAR.0>
-1.47808

>  <SCORE.INTRA.REPUL>
0.0117148

>  <SCORE.INTRA.REPUL.0>
0

>  <SCORE.INTRA.VDW>
6.0844

>  <SCORE.INTRA.VDW.0>
-2.78316

>  <SCORE.INTRA.norm>
0.393048

>  <SCORE.RESTR>
6.50928

>  <SCORE.RESTR.CAVITY>
6.50928

>  <SCORE.RESTR.norm>
0.130186

>  <SCORE.SYSTEM>
0

>  <SCORE.SYSTEM.CONST>
0

>  <SCORE.SYSTEM.DIHEDRAL>
0

>  <SCORE.SYSTEM.norm>
0

>  <SCORE.heavy>
50

>  <SCORE.norm>
0.698127

$$$$
