FB1.pdb
  RxDock  10072011543D
librxdock.so/0.1.0
 59 58  0  0  0  0  0  0  0  0999 V2000
   -1.2298   -8.4158    9.2676 C   0  0  0  0  0  0
   -1.3469   -7.6797    7.9350 C   0  0  0  0  0  0
   -1.7749   -8.6234    6.7990 C   0  0  0  0  0  0
   -1.8777   -7.9237    5.4207 C   0  0  0  0  0  0
   -2.7955   -8.6505    4.3767 C   0  0  0  0  0  0
   -3.0316   -7.6914    3.1871 C   0  0  0  0  0  0
   -2.2115  -10.0393    3.8787 C   0  0  0  0  0  0
   -1.0426   -9.9846    2.7847 C   0  0  0  0  0  0
   -1.1471   -9.2686    1.3689 C   0  0  0  0  0  0
   -1.5855  -10.2515    0.1187 C   0  0  0  0  0  0
   -3.0721  -10.5763    0.2552 C   0  0  0  0  0  0
   -1.2916   -9.6971   -1.3480 C   0  0  0  0  0  0
   -0.9109  -10.6323   -2.6125 C   0  0  0  0  0  0
   -0.8393  -10.0775   -4.0764 C   0  0  0  0  0  0
    0.5940   -9.9478   -4.7678 C   0  0  0  0  0  0
    0.8638   -9.1674   -6.1143 C   0  0  0  0  0  0
    0.3934   -9.7795   -7.4602 C   0  0  0  0  0  0
    0.8668   -9.0444   -8.7734 C   0  0  0  0  0  0
    0.1618   -7.7230   -9.1040 C   0  0  0  0  0  0
    1.0142   -6.5561   -9.6786 C   0  0  0  0  0  0
    1.5723   -6.6242  -11.1309 C   0  0  0  0  0  0
    0.5429   -6.6434  -12.2521 C   0  0  0  0  0  0
    2.5788   -5.5696  -11.3571 N   0  0  0  0  0  0
    0.1227   -5.4119   -9.6723 O   0  0  0  0  0  0
    2.2716   -8.7936   -8.6572 O   0  0  0  0  0  0
    0.4129  -11.1158   -2.3292 O   0  0  0  0  0  0
    0.0889   -9.3407    3.4309 O   0  0  0  0  0  0
    1.0407  -10.1523    3.9606 C   0  0  0  0  0  0
    2.0729   -9.7962    4.4965 O   0  0  0  0  0  0
    0.5598  -11.5740    3.8670 C   0  0  0  0  0  0
    1.5880  -12.5817    4.4053 C   0  0  0  0  0  0
    2.9458  -12.4710    3.6998 C   0  0  0  0  0  0
    4.0524  -13.0440    4.5544 C   0  0  0  0  0  0
    4.2280  -14.2462    4.7202 O   0  0  0  0  0  0
    4.8315  -12.1087    5.1175 O   0  0  0  0  0  0
    1.7451  -12.2668    5.8993 C   0  0  0  0  0  0
    2.6342  -11.5548    6.3409 O   0  0  0  0  0  0
    0.8530  -12.8787    6.6903 O   0  0  0  0  0  0
   -1.8585  -10.9133    5.0239 O   0  0  0  0  0  0
   -2.4745  -12.1497    5.1238 C   0  0  0  0  0  0
   -2.0328  -13.0984    5.7587 O   0  0  0  0  0  0
   -3.7936  -12.2096    4.3423 C   0  0  0  0  0  0
   -5.0894  -12.2999    5.2067 C   0  0  0  0  0  0
   -4.9592  -12.1038    6.7282 C   0  0  0  0  0  0
   -4.2862  -10.8135    7.0978 C   0  0  0  0  0  0
   -4.3805   -9.7586    6.4855 O   0  0  0  0  0  0
   -3.5552  -10.9185    8.2180 O   0  0  0  0  0  0
   -6.2373  -11.4008    4.7308 C   0  0  0  0  0  0
   -7.4011  -11.6134    5.0084 O   0  0  0  0  0  0
   -5.8637  -10.2871    4.0665 O   0  0  0  0  0  0
    2.1044   -4.6763  -11.4818 H   0  0  0  0  0  0
    3.0437   -5.7479  -12.2501 H   0  0  0  0  0  0
   -0.6179   -5.6730  -10.2593 H   0  0  0  0  0  0
    2.7258   -9.6500   -8.5531 H   0  0  0  0  0  0
    0.9990  -10.3470   -2.2300 H   0  0  0  0  0  0
    4.3967  -11.2508    5.2863 H   0  0  0  0  0  0
    0.0643  -13.2409    6.2153 H   0  0  0  0  0  0
   -3.1833  -10.0288    8.3957 H   0  0  0  0  0  0
   -4.9967  -10.3436    3.6067 H   0  0  0  0  0  0
  1  2  1  0  0  0
  2  3  1  0  0  0
  3  4  1  0  0  0
  4  5  1  0  0  0
  5  6  1  0  0  0
  5  7  1  0  0  0
  7  8  1  0  0  0
  7 39  1  0  0  0
  8  9  1  0  0  0
  8 27  1  0  0  0
  9 10  1  0  0  0
 10 11  1  0  0  0
 10 12  1  0  0  0
 12 13  1  0  0  0
 13 14  1  0  0  0
 13 26  1  0  0  0
 14 15  1  0  0  0
 15 16  1  0  0  0
 16 17  1  0  0  0
 17 18  1  0  0  0
 18 19  1  0  0  0
 18 25  1  0  0  0
 19 20  1  0  0  0
 20 21  1  0  0  0
 20 24  1  0  0  0
 21 22  1  0  0  0
 21 23  1  0  0  0
 23 51  1  0  0  0
 23 52  1  0  0  0
 24 53  1  0  0  0
 25 54  1  0  0  0
 26 55  1  0  0  0
 27 28  1  0  0  0
 28 29  2  0  0  0
 28 30  1  0  0  0
 30 31  1  0  0  0
 31 32  1  0  0  0
 31 36  1  0  0  0
 32 33  1  0  0  0
 33 34  2  0  0  0
 33 35  1  0  0  0
 35 56  1  0  0  0
 36 37  2  0  0  0
 36 38  1  0  0  0
 38 57  1  0  0  0
 39 40  1  0  0  0
 40 41  2  0  0  0
 40 42  1  0  0  0
 42 43  1  0  0  0
 43 44  1  0  0  0
 43 48  1  0  0  0
 44 45  1  0  0  0
 45 46  2  0  0  0
 45 47  1  0  0  0
 47 58  1  0  0  0
 48 49  2  0  0  0
 48 50  1  0  0  0
 50 59  1  0  0  0
M  END
>  <AUTHOR>
    GENERATED BY OPEN BABEL 2.4.1

>  <CHROM.1>
-178.79359209,-157.96873346,168.10990237,-78.06483849,-56.76789561,121.06716745
-94.59307283,96.55448125,73.35723563,147.51634219,170.65502570,109.52098345
-58.90010124,-168.10822487,-73.37138326,-171.97593213,-74.70240694,140.79106392
59.79900026,71.36164549,64.32504425,-60.82451350,-76.38114722,177.39003302
178.31477445,-56.54575472,157.93391777,-95.79746264,74.64767202,28.14990880
-16.44322048,158.36289104,-110.79691280,9.21140831,54.74028882,157.65014514
34.09440845,-178.08627681,26.33386832,-0.73417114,-10.09403573,1.20773371
-1.74924372,0.22681191,-1.31619097

>  <COMPND>
    UNNAMED

>  <MASTER>
        0    0    0    0    0    0    0    0  109    0  109    0

>  <Name>
FB1.pdb

>  <RI>
0

>  <Rbt.Current_Directory>
/cluster/tossine/F10/p3/0_clust01/stat

>  <Rbt.Executable>
rbdock/0.1.0

>  <Rbt.Library>
librxdock.so/0.1.0

>  <Rbt.Parameter_File>
/cluster/rxdock/data/scripts/dock.prm

>  <Rbt.Receptor>
rx_3.prm

>  <SCORE>
42.8357

>  <SCORE.INTER>
13.1659

>  <SCORE.INTER.CONST>
1

>  <SCORE.INTER.POLAR>
-1.09545

>  <SCORE.INTER.REPUL>
1.24843

>  <SCORE.INTER.ROT>
32

>  <SCORE.INTER.VDW>
-26.7518

>  <SCORE.INTER.norm>
0.263317

>  <SCORE.INTRA>
26.2063

>  <SCORE.INTRA.DIHEDRAL>
24.0868

>  <SCORE.INTRA.DIHEDRAL.0>
47.3121

>  <SCORE.INTRA.POLAR>
0.31188

>  <SCORE.INTRA.POLAR.0>
-1.47808

>  <SCORE.INTRA.REPUL>
0

>  <SCORE.INTRA.REPUL.0>
0

>  <SCORE.INTRA.VDW>
13.1026

>  <SCORE.INTRA.VDW.0>
-2.78316

>  <SCORE.INTRA.norm>
0.524127

>  <SCORE.RESTR>
3.46353

>  <SCORE.RESTR.CAVITY>
3.46353

>  <SCORE.RESTR.norm>
0.0692706

>  <SCORE.SYSTEM>
0

>  <SCORE.SYSTEM.CONST>
0

>  <SCORE.SYSTEM.DIHEDRAL>
0

>  <SCORE.SYSTEM.norm>
0

>  <SCORE.heavy>
50

>  <SCORE.norm>
0.856714

$$$$
