FB1.pdb
  RxDock  10072012063D
librxdock.so/0.1.0
 59 58  0  0  0  0  0  0  0  0999 V2000
   -7.3850  -12.7110    5.6892 C   0  0  0  0  0  0
   -6.0307  -12.5695    4.9984 C   0  0  0  0  0  0
   -5.3291  -11.2568    5.3843 C   0  0  0  0  0  0
   -4.0160  -11.0053    4.6019 C   0  0  0  0  0  0
   -4.1780  -10.9330    3.0434 C   0  0  0  0  0  0
   -5.5936  -10.3978    2.7267 C   0  0  0  0  0  0
   -3.0661  -10.0530    2.3313 C   0  0  0  0  0  0
   -2.8639   -8.5598    2.8753 C   0  0  0  0  0  0
   -3.9419   -7.3954    2.7743 C   0  0  0  0  0  0
   -4.2324   -6.8415    1.2478 C   0  0  0  0  0  0
   -4.8952   -7.9591    0.4442 C   0  0  0  0  0  0
   -5.1068   -5.5119    1.1368 C   0  0  0  0  0  0
   -5.3296   -4.6841   -0.2357 C   0  0  0  0  0  0
   -5.1310   -5.3316   -1.6490 C   0  0  0  0  0  0
   -5.6368   -4.5238   -2.9299 C   0  0  0  0  0  0
   -7.1211   -4.5514   -3.4689 C   0  0  0  0  0  0
   -8.3008   -4.4601   -2.4651 C   0  0  0  0  0  0
   -9.7320   -4.2080   -3.0794 C   0  0  0  0  0  0
  -10.9178   -4.3387   -2.1154 C   0  0  0  0  0  0
  -12.3341   -4.5676   -2.7154 C   0  0  0  0  0  0
  -13.2790   -3.3619   -2.9960 C   0  0  0  0  0  0
  -14.1077   -2.8627   -1.8207 C   0  0  0  0  0  0
  -12.5414   -2.2527   -3.6300 N   0  0  0  0  0  0
  -12.0908   -5.1644   -4.0148 O   0  0  0  0  0  0
   -9.7458   -2.8913   -3.6415 O   0  0  0  0  0  0
   -6.7072   -4.2747   -0.2008 O   0  0  0  0  0  0
   -2.5951   -8.6788    4.2987 O   0  0  0  0  0  0
   -2.1241   -7.5733    4.9320 C   0  0  0  0  0  0
   -2.1044   -6.4420    4.4856 O   0  0  0  0  0  0
   -1.7193   -7.9604    6.3276 C   0  0  0  0  0  0
   -2.3419   -9.2927    6.7747 C   0  0  0  0  0  0
   -1.3212  -10.4374    6.8088 C   0  0  0  0  0  0
   -1.0558  -10.9725    5.4208 C   0  0  0  0  0  0
   -1.3666  -12.1020    5.0584 O   0  0  0  0  0  0
   -0.4457  -10.0902    4.6156 O   0  0  0  0  0  0
   -2.9011   -9.0455    8.1826 C   0  0  0  0  0  0
   -3.0143   -7.9306    8.6691 O   0  0  0  0  0  0
   -3.2112  -10.1606    8.8581 O   0  0  0  0  0  0
   -1.7810  -10.7874    2.2372 O   0  0  0  0  0  0
   -0.8984  -10.4446    1.2264 C   0  0  0  0  0  0
   -1.1177   -9.6010    0.3670 O   0  0  0  0  0  0
    0.4084  -11.2456    1.2958 C   0  0  0  0  0  0
    1.6796  -10.4344    1.6969 C   0  0  0  0  0  0
    2.0729  -10.3951    3.1849 C   0  0  0  0  0  0
    2.6407  -11.6955    3.6761 C   0  0  0  0  0  0
    3.8297  -11.9485    3.8128 O   0  0  0  0  0  0
    1.6873  -12.5884    3.9830 O   0  0  0  0  0  0
    2.9421  -10.7944    0.9041 C   0  0  0  0  0  0
    3.1284  -11.8947    0.4231 O   0  0  0  0  0  0
    3.7957   -9.7736    0.6790 O   0  0  0  0  0  0
  -13.1386   -1.4274   -3.6582 H   0  0  0  0  0  0
  -12.3738   -2.4900   -4.6103 H   0  0  0  0  0  0
  -12.9000   -5.6851   -4.2025 H   0  0  0  0  0  0
  -10.6500   -2.7034   -3.9539 H   0  0  0  0  0  0
   -6.7999   -3.5890    0.4817 H   0  0  0  0  0  0
   -0.3561  -10.3690    3.6841 H   0  0  0  0  0  0
   -3.7593  -10.0104    9.6680 H   0  0  0  0  0  0
    2.1480  -13.3960    4.2941 H   0  0  0  0  0  0
    3.4662   -8.8855    0.9414 H   0  0  0  0  0  0
  1  2  1  0  0  0
  2  3  1  0  0  0
  3  4  1  0  0  0
  4  5  1  0  0  0
  5  6  1  0  0  0
  5  7  1  0  0  0
  7  8  1  0  0  0
  7 39  1  0  0  0
  8  9  1  0  0  0
  8 27  1  0  0  0
  9 10  1  0  0  0
 10 11  1  0  0  0
 10 12  1  0  0  0
 12 13  1  0  0  0
 13 14  1  0  0  0
 13 26  1  0  0  0
 14 15  1  0  0  0
 15 16  1  0  0  0
 16 17  1  0  0  0
 17 18  1  0  0  0
 18 19  1  0  0  0
 18 25  1  0  0  0
 19 20  1  0  0  0
 20 21  1  0  0  0
 20 24  1  0  0  0
 21 22  1  0  0  0
 21 23  1  0  0  0
 23 51  1  0  0  0
 23 52  1  0  0  0
 24 53  1  0  0  0
 25 54  1  0  0  0
 26 55  1  0  0  0
 27 28  1  0  0  0
 28 29  2  0  0  0
 28 30  1  0  0  0
 30 31  1  0  0  0
 31 32  1  0  0  0
 31 36  1  0  0  0
 32 33  1  0  0  0
 33 34  2  0  0  0
 33 35  1  0  0  0
 35 56  1  0  0  0
 36 37  2  0  0  0
 36 38  1  0  0  0
 38 57  1  0  0  0
 39 40  1  0  0  0
 40 41  2  0  0  0
 40 42  1  0  0  0
 42 43  1  0  0  0
 43 44  1  0  0  0
 43 48  1  0  0  0
 44 45  1  0  0  0
 45 46  2  0  0  0
 45 47  1  0  0  0
 47 58  1  0  0  0
 48 49  2  0  0  0
 48 50  1  0  0  0
 50 59  1  0  0  0
M  END
>  <AUTHOR>
    GENERATED BY OPEN BABEL 2.4.1

>  <CHROM.1>
-174.36546092,59.24134880,29.55232320,-53.32358089,-65.61010074,154.37789716
-68.82696656,167.06573062,66.47175591,170.81715856,21.16957836,168.64617655
70.87550422,-84.39596361,43.05198653,168.33812580,170.67041229,-160.23133547
-175.24140832,-93.69967597,-84.30882017,153.79513172,-170.52675465,12.57924824
-18.23649254,106.65679538,-78.62957285,12.07856859,-113.72074934,-173.09537291
-166.50435053,-2.51852882,-110.74243681,93.17427156,72.70510535,-28.11106829
99.48201992,-179.79154625,-7.72268538,-3.92284820,-8.28875950,1.98873746
0.67796057,-0.32756664,1.97532878

>  <COMPND>
    UNNAMED

>  <MASTER>
        0    0    0    0    0    0    0    0  109    0  109    0

>  <Name>
FB1.pdb

>  <RI>
0

>  <Rbt.Current_Directory>
/cluster/tossine/F10/p3/0_clust01/stat

>  <Rbt.Executable>
rbdock/0.1.0

>  <Rbt.Library>
librxdock.so/0.1.0

>  <Rbt.Parameter_File>
/cluster/rxdock/data/scripts/dock.prm

>  <Rbt.Receptor>
rx_3.prm

>  <SCORE>
25.7472

>  <SCORE.INTER>
7.30622

>  <SCORE.INTER.CONST>
1

>  <SCORE.INTER.POLAR>
-2.4251

>  <SCORE.INTER.REPUL>
0.33171

>  <SCORE.INTER.ROT>
32

>  <SCORE.INTER.VDW>
-23.507

>  <SCORE.INTER.norm>
0.146124

>  <SCORE.INTRA>
6.27709

>  <SCORE.INTRA.DIHEDRAL>
4.87999

>  <SCORE.INTRA.DIHEDRAL.0>
47.3121

>  <SCORE.INTRA.POLAR>
-0.122915

>  <SCORE.INTRA.POLAR.0>
-1.47808

>  <SCORE.INTRA.REPUL>
0.0735453

>  <SCORE.INTRA.REPUL.0>
0

>  <SCORE.INTRA.VDW>
3.88728

>  <SCORE.INTRA.VDW.0>
-2.78316

>  <SCORE.INTRA.norm>
0.125542

>  <SCORE.RESTR>
12.1639

>  <SCORE.RESTR.CAVITY>
12.1639

>  <SCORE.RESTR.norm>
0.243278

>  <SCORE.SYSTEM>
0

>  <SCORE.SYSTEM.CONST>
0

>  <SCORE.SYSTEM.DIHEDRAL>
0

>  <SCORE.SYSTEM.norm>
0

>  <SCORE.heavy>
50

>  <SCORE.norm>
0.514944

$$$$
