FB1.pdb
  RxDock  10072011503D
librxdock.so/0.1.0
 59 58  0  0  0  0  0  0  0  0999 V2000
    1.4077   -9.5547    5.1356 C   0  0  0  0  0  0
    0.1024   -8.8291    4.8176 C   0  0  0  0  0  0
   -0.4108   -9.1715    3.4091 C   0  0  0  0  0  0
   -1.6912   -8.3950    3.0128 C   0  0  0  0  0  0
   -2.7420   -8.2201    4.1642 C   0  0  0  0  0  0
   -3.4635   -6.8677    3.9617 C   0  0  0  0  0  0
   -3.7855   -9.4120    4.2556 C   0  0  0  0  0  0
   -3.4590  -10.7292    3.4045 C   0  0  0  0  0  0
   -3.4892  -10.8241    1.8175 C   0  0  0  0  0  0
   -2.6075  -12.0608    1.1738 C   0  0  0  0  0  0
   -2.8818  -12.1217   -0.3279 C   0  0  0  0  0  0
   -1.0336  -12.0090    1.4285 C   0  0  0  0  0  0
   -0.0719  -10.8085    0.9258 C   0  0  0  0  0  0
    1.4298  -10.6972    1.3602 C   0  0  0  0  0  0
    2.5577  -10.9696    0.2635 C   0  0  0  0  0  0
    2.8663  -10.0089   -0.9515 C   0  0  0  0  0  0
    3.2046  -10.6153   -2.3390 C   0  0  0  0  0  0
    2.0206  -11.3174   -3.1099 C   0  0  0  0  0  0
    1.0890  -10.3968   -3.9080 C   0  0  0  0  0  0
    1.6111   -9.7998   -5.2457 C   0  0  0  0  0  0
    0.6153   -9.2428   -6.3057 C   0  0  0  0  0  0
    0.4521  -10.0623   -7.5782 C   0  0  0  0  0  0
   -0.6953   -8.9521   -5.6940 N   0  0  0  0  0  0
    2.4151   -8.6592   -4.8501 O   0  0  0  0  0  0
    2.5864  -12.2798   -4.0063 O   0  0  0  0  0  0
   -0.0399  -10.9353   -0.5058 O   0  0  0  0  0  0
   -2.1055  -11.1193    3.7625 O   0  0  0  0  0  0
   -1.9383  -11.7381    4.9601 C   0  0  0  0  0  0
   -2.8174  -12.2147    5.6526 O   0  0  0  0  0  0
   -0.4649  -11.8296    5.2471 C   0  0  0  0  0  0
   -0.0332  -13.2415    5.6743 C   0  0  0  0  0  0
   -0.4743  -14.3193    4.6758 C   0  0  0  0  0  0
   -1.5028  -15.2416    5.2881 C   0  0  0  0  0  0
   -1.5053  -15.5647    6.4710 O   0  0  0  0  0  0
   -2.4205  -15.6756    4.4116 O   0  0  0  0  0  0
    1.4986  -13.2049    5.7651 C   0  0  0  0  0  0
    2.2284  -13.3952    4.8041 O   0  0  0  0  0  0
    1.9745  -12.9949    7.0002 O   0  0  0  0  0  0
   -4.1120   -9.7307    5.6669 O   0  0  0  0  0  0
   -3.1902   -9.4022    6.6470 C   0  0  0  0  0  0
   -1.9808   -9.3343    6.4708 O   0  0  0  0  0  0
   -3.8532   -9.1261    8.0029 C   0  0  0  0  0  0
   -2.9401   -9.3137    9.2541 C   0  0  0  0  0  0
   -1.8717  -10.4214    9.2102 C   0  0  0  0  0  0
   -2.3936  -11.7185    8.6628 C   0  0  0  0  0  0
   -3.5153  -12.1708    8.8469 O   0  0  0  0  0  0
   -1.4887  -12.3571    7.9055 O   0  0  0  0  0  0
   -2.2456   -8.0334    9.7345 C   0  0  0  0  0  0
   -2.0902   -7.0601    9.0237 O   0  0  0  0  0  0
   -1.9080   -8.0127   11.0409 O   0  0  0  0  0  0
   -1.2228   -8.3363   -6.3112 H   0  0  0  0  0  0
   -0.5445   -8.4060   -4.8429 H   0  0  0  0  0  0
    3.2186   -9.0514   -4.4478 H   0  0  0  0  0  0
    1.9912  -12.3676   -4.7735 H   0  0  0  0  0  0
    0.1032  -10.0511   -0.8829 H   0  0  0  0  0  0
   -2.9510  -16.4399    4.7080 H   0  0  0  0  0  0
    2.9129  -12.6830    7.0305 H   0  0  0  0  0  0
   -0.7330  -11.7428    7.7920 H   0  0  0  0  0  0
   -2.3511   -8.6892   11.5997 H   0  0  0  0  0  0
  1  2  1  0  0  0
  2  3  1  0  0  0
  3  4  1  0  0  0
  4  5  1  0  0  0
  5  6  1  0  0  0
  5  7  1  0  0  0
  7  8  1  0  0  0
  7 39  1  0  0  0
  8  9  1  0  0  0
  8 27  1  0  0  0
  9 10  1  0  0  0
 10 11  1  0  0  0
 10 12  1  0  0  0
 12 13  1  0  0  0
 13 14  1  0  0  0
 13 26  1  0  0  0
 14 15  1  0  0  0
 15 16  1  0  0  0
 16 17  1  0  0  0
 17 18  1  0  0  0
 18 19  1  0  0  0
 18 25  1  0  0  0
 19 20  1  0  0  0
 20 21  1  0  0  0
 20 24  1  0  0  0
 21 22  1  0  0  0
 21 23  1  0  0  0
 23 51  1  0  0  0
 23 52  1  0  0  0
 24 53  1  0  0  0
 25 54  1  0  0  0
 26 55  1  0  0  0
 27 28  1  0  0  0
 28 29  2  0  0  0
 28 30  1  0  0  0
 30 31  1  0  0  0
 31 32  1  0  0  0
 31 36  1  0  0  0
 32 33  1  0  0  0
 33 34  2  0  0  0
 33 35  1  0  0  0
 35 56  1  0  0  0
 36 37  2  0  0  0
 36 38  1  0  0  0
 38 57  1  0  0  0
 39 40  1  0  0  0
 40 41  2  0  0  0
 40 42  1  0  0  0
 42 43  1  0  0  0
 43 44  1  0  0  0
 43 48  1  0  0  0
 44 45  1  0  0  0
 45 46  2  0  0  0
 45 47  1  0  0  0
 47 58  1  0  0  0
 48 49  2  0  0  0
 48 50  1  0  0  0
 50 59  1  0  0  0
M  END
>  <AUTHOR>
    GENERATED BY OPEN BABEL 2.4.1

>  <CHROM.1>
-176.71693572,-39.48324743,147.40628476,12.19023754,-69.03386287,-24.41613083
158.41310125,76.77634392,172.88520625,-60.62718793,171.53179477,109.84516675
150.95792751,69.93582550,-140.84072491,70.33904079,82.85020683,74.37715186
-150.48652282,160.83376531,-108.92897471,71.61999315,162.64021588,14.26066285
-131.17373543,53.21707347,-113.51754944,-85.88469596,-34.32652906,164.81079739
-161.22764581,-28.26121993,156.37530414,-34.10624010,-44.91785547,-20.22888179
-36.33152430,-7.89987760,-16.29370759,-0.84158694,-10.81622627,3.15678971
2.19066266,-1.08580265,2.16057500

>  <COMPND>
    UNNAMED

>  <MASTER>
        0    0    0    0    0    0    0    0  109    0  109    0

>  <Name>
FB1.pdb

>  <RI>
0

>  <Rbt.Current_Directory>
/cluster/tossine/F10/p3/0_clust01/stat

>  <Rbt.Executable>
rbdock/0.1.0

>  <Rbt.Library>
librxdock.so/0.1.0

>  <Rbt.Parameter_File>
/cluster/rxdock/data/scripts/dock.prm

>  <Rbt.Receptor>
rx_3.prm

>  <SCORE>
52.6886

>  <SCORE.INTER>
13.9593

>  <SCORE.INTER.CONST>
1

>  <SCORE.INTER.POLAR>
-1.17516

>  <SCORE.INTER.REPUL>
0.105065

>  <SCORE.INTER.ROT>
32

>  <SCORE.INTER.VDW>
-19.9705

>  <SCORE.INTER.norm>
0.279185

>  <SCORE.INTRA>
24.9756

>  <SCORE.INTRA.DIHEDRAL>
33.5981

>  <SCORE.INTRA.DIHEDRAL.0>
47.3121

>  <SCORE.INTRA.POLAR>
1.47808

>  <SCORE.INTRA.POLAR.0>
-1.47808

>  <SCORE.INTRA.REPUL>
0

>  <SCORE.INTRA.REPUL.0>
0

>  <SCORE.INTRA.VDW>
3.15113

>  <SCORE.INTRA.VDW.0>
-2.78316

>  <SCORE.INTRA.norm>
0.499513

>  <SCORE.RESTR>
13.7537

>  <SCORE.RESTR.CAVITY>
13.7537

>  <SCORE.RESTR.norm>
0.275074

>  <SCORE.SYSTEM>
0

>  <SCORE.SYSTEM.CONST>
0

>  <SCORE.SYSTEM.DIHEDRAL>
0

>  <SCORE.SYSTEM.norm>
0

>  <SCORE.heavy>
50

>  <SCORE.norm>
1.05377

$$$$
