FB1.pdb
  RxDock  10072011573D
librxdock.so/0.1.0
 59 58  0  0  0  0  0  0  0  0999 V2000
   -6.3273  -11.7193    2.6978 C   0  0  0  0  0  0
   -6.9535  -11.8064    4.0876 C   0  0  0  0  0  0
   -6.0173  -12.4991    5.0915 C   0  0  0  0  0  0
   -4.6884  -11.7375    5.3236 C   0  0  0  0  0  0
   -3.5997  -12.5352    6.1229 C   0  0  0  0  0  0
   -3.2453  -13.8092    5.3216 C   0  0  0  0  0  0
   -2.2984  -11.6849    6.4415 C   0  0  0  0  0  0
   -1.4972  -11.0876    5.1895 C   0  0  0  0  0  0
   -0.6088  -11.9379    4.1815 C   0  0  0  0  0  0
    0.5146  -11.0728    3.3385 C   0  0  0  0  0  0
    1.6920  -10.7738    4.2651 C   0  0  0  0  0  0
    1.0498  -11.7395    1.9917 C   0  0  0  0  0  0
    0.9062  -11.0671    0.5268 C   0  0  0  0  0  0
   -0.2358  -10.0527    0.1762 C   0  0  0  0  0  0
   -1.0408  -10.2600   -1.1869 C   0  0  0  0  0  0
   -0.3754  -10.2692   -2.6193 C   0  0  0  0  0  0
   -1.1431  -10.8924   -3.8150 C   0  0  0  0  0  0
   -2.4635  -10.1562   -4.2665 C   0  0  0  0  0  0
   -2.2820   -8.8012   -4.9618 C   0  0  0  0  0  0
   -3.4634   -7.7905   -4.9269 C   0  0  0  0  0  0
   -3.5993   -6.6938   -6.0243 C   0  0  0  0  0  0
   -3.9656   -7.1750   -7.4213 C   0  0  0  0  0  0
   -4.5066   -5.6178   -5.5824 N   0  0  0  0  0  0
   -4.6523   -8.6097   -5.0655 O   0  0  0  0  0  0
   -3.1758  -11.0290   -5.1500 O   0  0  0  0  0  0
    2.1292  -10.3366    0.3340 O   0  0  0  0  0  0
   -2.4880  -10.4453    4.3420 O   0  0  0  0  0  0
   -2.0696   -9.3919    3.5933 C   0  0  0  0  0  0
   -0.9304   -8.9734    3.5136 O   0  0  0  0  0  0
   -3.2365   -8.8840    2.7922 C   0  0  0  0  0  0
   -3.2122   -7.3572    2.6165 C   0  0  0  0  0  0
   -4.4228   -6.8356    1.8318 C   0  0  0  0  0  0
   -4.0308   -6.4326    0.4292 C   0  0  0  0  0  0
   -3.3856   -7.1502   -0.3274 O   0  0  0  0  0  0
   -4.4586   -5.2087    0.0857 O   0  0  0  0  0  0
   -3.2123   -6.7694    4.0344 C   0  0  0  0  0  0
   -4.2293   -6.4072    4.6061 O   0  0  0  0  0  0
   -1.9948   -6.6388    4.5791 O   0  0  0  0  0  0
   -2.5727  -10.6506    7.4686 O   0  0  0  0  0  0
   -2.3492  -10.9667    8.7983 C   0  0  0  0  0  0
   -1.8693  -12.0217    9.1921 O   0  0  0  0  0  0
   -2.7724   -9.8367    9.7461 C   0  0  0  0  0  0
   -2.6934   -8.3938    9.1576 C   0  0  0  0  0  0
   -2.3143   -7.2443   10.1091 C   0  0  0  0  0  0
   -1.4473   -7.6899   11.2511 C   0  0  0  0  0  0
   -0.6806   -8.6431   11.2353 O   0  0  0  0  0  0
   -1.5790   -6.9057   12.3318 O   0  0  0  0  0  0
   -1.8090   -8.2608    7.9117 C   0  0  0  0  0  0
   -0.6023   -8.4015    7.9405 O   0  0  0  0  0  0
   -2.4696   -8.0811    6.7487 O   0  0  0  0  0  0
   -4.1181   -5.1733   -4.7517 H   0  0  0  0  0  0
   -5.3845   -6.0386   -5.2698 H   0  0  0  0  0  0
   -5.3933   -8.0097   -4.8370 H   0  0  0  0  0  0
   -2.8621  -10.8643   -6.0584 H   0  0  0  0  0  0
    2.1214   -9.5731    0.9353 H   0  0  0  0  0  0
   -5.0378   -4.7713    0.7388 H   0  0  0  0  0  0
   -1.3578   -7.3556    4.3358 H   0  0  0  0  0  0
   -2.3689   -6.3455   12.1783 H   0  0  0  0  0  0
   -3.4036   -7.7879    6.8375 H   0  0  0  0  0  0
  1  2  1  0  0  0
  2  3  1  0  0  0
  3  4  1  0  0  0
  4  5  1  0  0  0
  5  6  1  0  0  0
  5  7  1  0  0  0
  7  8  1  0  0  0
  7 39  1  0  0  0
  8  9  1  0  0  0
  8 27  1  0  0  0
  9 10  1  0  0  0
 10 11  1  0  0  0
 10 12  1  0  0  0
 12 13  1  0  0  0
 13 14  1  0  0  0
 13 26  1  0  0  0
 14 15  1  0  0  0
 15 16  1  0  0  0
 16 17  1  0  0  0
 17 18  1  0  0  0
 18 19  1  0  0  0
 18 25  1  0  0  0
 19 20  1  0  0  0
 20 21  1  0  0  0
 20 24  1  0  0  0
 21 22  1  0  0  0
 21 23  1  0  0  0
 23 51  1  0  0  0
 23 52  1  0  0  0
 24 53  1  0  0  0
 25 54  1  0  0  0
 26 55  1  0  0  0
 27 28  1  0  0  0
 28 29  2  0  0  0
 28 30  1  0  0  0
 30 31  1  0  0  0
 31 32  1  0  0  0
 31 36  1  0  0  0
 32 33  1  0  0  0
 33 34  2  0  0  0
 33 35  1  0  0  0
 35 56  1  0  0  0
 36 37  2  0  0  0
 36 38  1  0  0  0
 38 57  1  0  0  0
 39 40  1  0  0  0
 40 41  2  0  0  0
 40 42  1  0  0  0
 42 43  1  0  0  0
 43 44  1  0  0  0
 43 48  1  0  0  0
 44 45  1  0  0  0
 45 46  2  0  0  0
 45 47  1  0  0  0
 47 58  1  0  0  0
 48 49  2  0  0  0
 48 50  1  0  0  0
 50 59  1  0  0  0
M  END
>  <AUTHOR>
    GENERATED BY OPEN BABEL 2.4.1

>  <CHROM.1>
62.66971615,-169.00069236,60.90631614,-58.96060064,-72.73903991,92.17076643
-159.01654652,150.83706511,77.00030671,120.11760438,-26.25393598,-133.27095935
-70.11963399,-59.00209354,161.52892145,66.03235208,70.92274360,-156.26263265
-88.72643988,-155.54753725,69.55864462,167.30034936,61.78914743,3.82682362
144.90786793,-178.44336604,-105.95414928,-95.53917673,50.13121218,-5.82625152
-35.39948805,4.15761847,-28.77696388,-146.05781477,28.27788262,-67.54189048
27.49872900,12.66664913,17.52230634,-2.41876662,-9.34028071,2.93276023,-1.69859586
-1.01689988,1.53549773

>  <COMPND>
    UNNAMED

>  <MASTER>
        0    0    0    0    0    0    0    0  109    0  109    0

>  <Name>
FB1.pdb

>  <RI>
0

>  <Rbt.Current_Directory>
/cluster/tossine/F10/p3/0_clust01/stat

>  <Rbt.Executable>
rbdock/0.1.0

>  <Rbt.Library>
librxdock.so/0.1.0

>  <Rbt.Parameter_File>
/cluster/rxdock/data/scripts/dock.prm

>  <Rbt.Receptor>
rx_3.prm

>  <SCORE>
30.1533

>  <SCORE.INTER>
3.31111

>  <SCORE.INTER.CONST>
1

>  <SCORE.INTER.POLAR>
-2.92168

>  <SCORE.INTER.REPUL>
0.625039

>  <SCORE.INTER.ROT>
32

>  <SCORE.INTER.VDW>
-27.2804

>  <SCORE.INTER.norm>
0.0662221

>  <SCORE.INTRA>
21.3962

>  <SCORE.INTRA.DIHEDRAL>
25.3108

>  <SCORE.INTRA.DIHEDRAL.0>
47.3121

>  <SCORE.INTRA.POLAR>
1.47808

>  <SCORE.INTRA.POLAR.0>
-1.47808

>  <SCORE.INTRA.REPUL>
0

>  <SCORE.INTRA.REPUL.0>
0

>  <SCORE.INTRA.VDW>
3.71531

>  <SCORE.INTRA.VDW.0>
-2.78316

>  <SCORE.INTRA.norm>
0.427923

>  <SCORE.RESTR>
5.44606

>  <SCORE.RESTR.CAVITY>
5.44606

>  <SCORE.RESTR.norm>
0.108921

>  <SCORE.SYSTEM>
0

>  <SCORE.SYSTEM.CONST>
0

>  <SCORE.SYSTEM.DIHEDRAL>
0

>  <SCORE.SYSTEM.norm>
0

>  <SCORE.heavy>
50

>  <SCORE.norm>
0.603067

$$$$
