FB1.pdb
  RxDock  10072012063D
librxdock.so/0.1.0
 59 58  0  0  0  0  0  0  0  0999 V2000
    0.3918  -10.7519    5.7834 C   0  0  0  0  0  0
    0.2630  -12.2498    6.0499 C   0  0  0  0  0  0
   -0.8288  -12.8915    5.1780 C   0  0  0  0  0  0
   -0.3988  -13.1008    3.7045 C   0  0  0  0  0  0
    0.9109  -12.3469    3.2841 C   0  0  0  0  0  0
    2.1154  -13.2774    3.5562 C   0  0  0  0  0  0
    0.9024  -11.8561    1.7752 C   0  0  0  0  0  0
   -0.0790  -10.6432    1.4120 C   0  0  0  0  0  0
   -0.1483   -9.9131    0.0012 C   0  0  0  0  0  0
   -0.0678  -10.9129   -1.3085 C   0  0  0  0  0  0
   -0.9917  -12.1053   -1.0660 C   0  0  0  0  0  0
   -0.4073  -10.2515   -2.7199 C   0  0  0  0  0  0
    0.2776  -10.6937   -4.1177 C   0  0  0  0  0  0
   -0.1501  -10.0789   -5.4944 C   0  0  0  0  0  0
    0.8119  -10.2920   -6.7506 C   0  0  0  0  0  0
    2.0979   -9.4228   -7.0427 C   0  0  0  0  0  0
    2.7892   -9.5218   -8.4283 C   0  0  0  0  0  0
    1.8502   -9.4339   -9.6931 C   0  0  0  0  0  0
    1.1378   -8.0945   -9.9187 C   0  0  0  0  0  0
    1.9408   -6.9326  -10.5694 C   0  0  0  0  0  0
    1.2089   -5.6640  -11.0988 C   0  0  0  0  0  0
    0.0880   -5.8977  -12.1020 C   0  0  0  0  0  0
    0.7485   -4.8182   -9.9812 N   0  0  0  0  0  0
    2.8111   -6.4509   -9.5138 O   0  0  0  0  0  0
    2.6394   -9.7299  -10.8504 O   0  0  0  0  0  0
    1.6672  -10.3559   -3.9715 O   0  0  0  0  0  0
   -1.4296  -11.1343    1.6297 O   0  0  0  0  0  0
   -2.1026  -10.6352    2.6989 C   0  0  0  0  0  0
   -1.9740   -9.5233    3.1748 O   0  0  0  0  0  0
   -3.1156  -11.6545    3.1418 C   0  0  0  0  0  0
   -4.2797  -11.0279    3.9258 C   0  0  0  0  0  0
   -5.3379  -12.0608    4.3341 C   0  0  0  0  0  0
   -6.0384  -11.6491    5.6082 C   0  0  0  0  0  0
   -5.5033  -11.6633    6.7114 O   0  0  0  0  0  0
   -7.3085  -11.2621    5.4186 O   0  0  0  0  0  0
   -3.6538  -10.3947    5.1761 C   0  0  0  0  0  0
   -2.8193  -10.9621    5.8645 O   0  0  0  0  0  0
   -4.1352   -9.1819    5.4818 O   0  0  0  0  0  0
    2.2809  -11.6207    1.2810 O   0  0  0  0  0  0
    3.1725  -10.9559    2.1064 C   0  0  0  0  0  0
    2.8708  -10.0464    2.8681 O   0  0  0  0  0  0
    4.6051  -11.4871    1.9663 C   0  0  0  0  0  0
    5.6856  -10.4286    1.5833 C   0  0  0  0  0  0
    5.8742  -10.0944    0.0923 C   0  0  0  0  0  0
    4.6153  -10.2586   -0.7095 C   0  0  0  0  0  0
    4.5001  -10.9260   -1.7283 O   0  0  0  0  0  0
    3.5777   -9.5952   -0.1771 O   0  0  0  0  0  0
    5.5678   -9.0966    2.3345 C   0  0  0  0  0  0
    6.2028   -8.8474    3.3402 O   0  0  0  0  0  0
    4.7873   -8.1664    1.7457 O   0  0  0  0  0  0
    1.2458   -5.0857   -9.1329 H   0  0  0  0  0  0
   -0.2326   -5.0343   -9.7906 H   0  0  0  0  0  0
    3.4648   -7.1704   -9.3854 H   0  0  0  0  0  0
    2.9943  -10.6327  -10.7539 H   0  0  0  0  0  0
    1.7326   -9.3924   -3.8621 H   0  0  0  0  0  0
   -7.6267  -11.3144    4.4969 H   0  0  0  0  0  0
   -3.7061   -8.7558    6.2648 H   0  0  0  0  0  0
    2.7955   -9.8065   -0.7292 H   0  0  0  0  0  0
    4.1018   -8.5188    1.1357 H   0  0  0  0  0  0
  1  2  1  0  0  0
  2  3  1  0  0  0
  3  4  1  0  0  0
  4  5  1  0  0  0
  5  6  1  0  0  0
  5  7  1  0  0  0
  7  8  1  0  0  0
  7 39  1  0  0  0
  8  9  1  0  0  0
  8 27  1  0  0  0
  9 10  1  0  0  0
 10 11  1  0  0  0
 10 12  1  0  0  0
 12 13  1  0  0  0
 13 14  1  0  0  0
 13 26  1  0  0  0
 14 15  1  0  0  0
 15 16  1  0  0  0
 16 17  1  0  0  0
 17 18  1  0  0  0
 18 19  1  0  0  0
 18 25  1  0  0  0
 19 20  1  0  0  0
 20 21  1  0  0  0
 20 24  1  0  0  0
 21 22  1  0  0  0
 21 23  1  0  0  0
 23 51  1  0  0  0
 23 52  1  0  0  0
 24 53  1  0  0  0
 25 54  1  0  0  0
 26 55  1  0  0  0
 27 28  1  0  0  0
 28 29  2  0  0  0
 28 30  1  0  0  0
 30 31  1  0  0  0
 31 32  1  0  0  0
 31 36  1  0  0  0
 32 33  1  0  0  0
 33 34  2  0  0  0
 33 35  1  0  0  0
 35 56  1  0  0  0
 36 37  2  0  0  0
 36 38  1  0  0  0
 38 57  1  0  0  0
 39 40  1  0  0  0
 40 41  2  0  0  0
 40 42  1  0  0  0
 42 43  1  0  0  0
 43 44  1  0  0  0
 43 48  1  0  0  0
 44 45  1  0  0  0
 45 46  2  0  0  0
 45 47  1  0  0  0
 47 58  1  0  0  0
 48 49  2  0  0  0
 48 50  1  0  0  0
 50 59  1  0  0  0
M  END
>  <AUTHOR>
    GENERATED BY OPEN BABEL 2.4.1

>  <CHROM.1>
76.10797620,-13.18026855,89.84866424,70.88492333,174.16373850,-43.64129186
41.72780644,108.84362095,44.97751164,147.22746983,176.08177434,164.72749733
-62.86347960,-81.24574791,-167.51733830,47.47751144,65.74408193,79.76400625
60.58066691,166.95317377,-54.73673707,69.84830029,17.28192144,30.80008941
-156.78398999,177.95701364,151.06892056,-45.02202784,-70.97968159,1.43084674
-177.53625948,-35.46493424,123.50573001,-84.49765967,29.50962658,95.40507560
-126.87620343,-176.39269649,24.17326368,0.55193876,-10.17461502,-0.53753351
-1.83947855,-0.01190111,-1.33529363

>  <COMPND>
    UNNAMED

>  <MASTER>
        0    0    0    0    0    0    0    0  109    0  109    0

>  <Name>
FB1.pdb

>  <RI>
0

>  <Rbt.Current_Directory>
/cluster/tossine/F10/p3/0_clust01/stat

>  <Rbt.Executable>
rbdock/0.1.0

>  <Rbt.Library>
librxdock.so/0.1.0

>  <Rbt.Parameter_File>
/cluster/rxdock/data/scripts/dock.prm

>  <Rbt.Receptor>
rx_3.prm

>  <SCORE>
43.711

>  <SCORE.INTER>
21.9465

>  <SCORE.INTER.CONST>
1

>  <SCORE.INTER.POLAR>
-0.628464

>  <SCORE.INTER.REPUL>
0.849479

>  <SCORE.INTER.ROT>
32

>  <SCORE.INTER.VDW>
-17.5641

>  <SCORE.INTER.norm>
0.43893

>  <SCORE.INTRA>
14.2511

>  <SCORE.INTRA.DIHEDRAL>
21.9931

>  <SCORE.INTRA.DIHEDRAL.0>
47.3121

>  <SCORE.INTRA.POLAR>
0.229769

>  <SCORE.INTRA.POLAR.0>
-1.47808

>  <SCORE.INTRA.REPUL>
0

>  <SCORE.INTRA.REPUL.0>
0

>  <SCORE.INTRA.VDW>
2.47333

>  <SCORE.INTRA.VDW.0>
-2.78316

>  <SCORE.INTRA.norm>
0.285021

>  <SCORE.RESTR>
7.51344

>  <SCORE.RESTR.CAVITY>
7.51344

>  <SCORE.RESTR.norm>
0.150269

>  <SCORE.SYSTEM>
0

>  <SCORE.SYSTEM.CONST>
0

>  <SCORE.SYSTEM.DIHEDRAL>
0

>  <SCORE.SYSTEM.norm>
0

>  <SCORE.heavy>
50

>  <SCORE.norm>
0.87422

$$$$
