FB1.pdb
  RxDock  10072012013D
librxdock.so/0.1.0
 59 58  0  0  0  0  0  0  0  0999 V2000
    2.2824  -15.8364    6.9955 C   0  0  0  0  0  0
    1.4911  -15.2500    5.8288 C   0  0  0  0  0  0
    1.5586  -13.7140    5.8098 C   0  0  0  0  0  0
    0.2353  -13.0431    5.3645 C   0  0  0  0  0  0
   -0.0975  -13.1851    3.8382 C   0  0  0  0  0  0
   -1.5252  -12.6414    3.5999 C   0  0  0  0  0  0
    0.9505  -12.4616    2.8916 C   0  0  0  0  0  0
    0.3896  -11.3000    1.9418 C   0  0  0  0  0  0
   -0.0503   -9.8519    2.4293 C   0  0  0  0  0  0
   -1.5679   -9.7603    3.0694 C   0  0  0  0  0  0
   -1.8326   -8.3142    3.4852 C   0  0  0  0  0  0
   -2.7562  -10.2750    2.1377 C   0  0  0  0  0  0
   -4.2501  -10.5994    2.6683 C   0  0  0  0  0  0
   -4.5177  -11.3653    4.0092 C   0  0  0  0  0  0
   -4.6362  -10.5158    5.3559 C   0  0  0  0  0  0
   -3.5705   -9.4519    5.8322 C   0  0  0  0  0  0
   -2.0998   -9.8915    6.0588 C   0  0  0  0  0  0
   -1.6662  -10.1615    7.5516 C   0  0  0  0  0  0
   -1.6241   -8.9400    8.4783 C   0  0  0  0  0  0
   -1.3699   -9.1734    9.9946 C   0  0  0  0  0  0
   -1.7559   -8.0840   11.0386 C   0  0  0  0  0  0
   -0.7733   -7.8608   12.1796 C   0  0  0  0  0  0
   -2.0872   -6.8107   10.3713 N   0  0  0  0  0  0
   -2.1875  -10.3230   10.3318 O   0  0  0  0  0  0
   -2.5700  -11.1229    8.1071 O   0  0  0  0  0  0
   -4.8683   -9.3131    2.8411 O   0  0  0  0  0  0
    1.4249  -11.0479    0.9533 O   0  0  0  0  0  0
    1.0367  -10.4689   -0.2126 C   0  0  0  0  0  0
   -0.0311   -9.9271   -0.4262 O   0  0  0  0  0  0
    2.1909  -10.5172   -1.1754 C   0  0  0  0  0  0
    1.7549  -10.2894   -2.6316 C   0  0  0  0  0  0
    2.8608  -10.6327   -3.6377 C   0  0  0  0  0  0
    4.1096   -9.8245   -3.3720 C   0  0  0  0  0  0
    5.0468  -10.2280   -2.6919 O   0  0  0  0  0  0
    4.0983   -8.6165   -3.9548 O   0  0  0  0  0  0
    0.5399  -11.2003   -2.8555 C   0  0  0  0  0  0
    0.5303  -12.3848   -2.5567 O   0  0  0  0  0  0
   -0.4985  -10.6002   -3.4536 O   0  0  0  0  0  0
    2.1474  -12.0264    3.6519 O   0  0  0  0  0  0
    3.3582  -12.6435    3.3849 C   0  0  0  0  0  0
    3.6063  -13.2799    2.3691 O   0  0  0  0  0  0
    4.3771  -12.4433    4.5145 C   0  0  0  0  0  0
    4.2454  -11.1119    5.3174 C   0  0  0  0  0  0
    4.1371   -9.7967    4.5244 C   0  0  0  0  0  0
    5.1541   -9.6891    3.4251 C   0  0  0  0  0  0
    5.0106  -10.0905    2.2784 O   0  0  0  0  0  0
    6.2763   -9.0704    3.8229 O   0  0  0  0  0  0
    3.1218  -11.1053    6.3612 C   0  0  0  0  0  0
    3.2987  -11.4117    7.5238 O   0  0  0  0  0  0
    1.9338  -10.6312    5.9307 O   0  0  0  0  0  0
   -1.6015   -6.0496   10.8440 H   0  0  0  0  0  0
   -3.0812   -6.6169   10.5126 H   0  0  0  0  0  0
   -2.6828  -10.0473   11.1318 H   0  0  0  0  0  0
   -2.2547  -11.3565    8.9996 H   0  0  0  0  0  0
   -5.8250   -9.4505    2.9429 H   0  0  0  0  0  0
    4.6178   -7.9281   -3.4967 H   0  0  0  0  0  0
   -1.3408  -11.1185   -3.4300 H   0  0  0  0  0  0
    6.7287   -8.7588    3.0108 H   0  0  0  0  0  0
    1.2229  -10.6021    6.6089 H   0  0  0  0  0  0
  1  2  1  0  0  0
  2  3  1  0  0  0
  3  4  1  0  0  0
  4  5  1  0  0  0
  5  6  1  0  0  0
  5  7  1  0  0  0
  7  8  1  0  0  0
  7 39  1  0  0  0
  8  9  1  0  0  0
  8 27  1  0  0  0
  9 10  1  0  0  0
 10 11  1  0  0  0
 10 12  1  0  0  0
 12 13  1  0  0  0
 13 14  1  0  0  0
 13 26  1  0  0  0
 14 15  1  0  0  0
 15 16  1  0  0  0
 16 17  1  0  0  0
 17 18  1  0  0  0
 18 19  1  0  0  0
 18 25  1  0  0  0
 19 20  1  0  0  0
 20 21  1  0  0  0
 20 24  1  0  0  0
 21 22  1  0  0  0
 21 23  1  0  0  0
 23 51  1  0  0  0
 23 52  1  0  0  0
 24 53  1  0  0  0
 25 54  1  0  0  0
 26 55  1  0  0  0
 27 28  1  0  0  0
 28 29  2  0  0  0
 28 30  1  0  0  0
 30 31  1  0  0  0
 31 32  1  0  0  0
 31 36  1  0  0  0
 32 33  1  0  0  0
 33 34  2  0  0  0
 33 35  1  0  0  0
 35 56  1  0  0  0
 36 37  2  0  0  0
 36 38  1  0  0  0
 38 57  1  0  0  0
 39 40  1  0  0  0
 40 41  2  0  0  0
 40 42  1  0  0  0
 42 43  1  0  0  0
 43 44  1  0  0  0
 43 48  1  0  0  0
 44 45  1  0  0  0
 45 46  2  0  0  0
 45 47  1  0  0  0
 47 58  1  0  0  0
 48 49  2  0  0  0
 48 50  1  0  0  0
 50 59  1  0  0  0
M  END
>  <AUTHOR>
    GENERATED BY OPEN BABEL 2.4.1

>  <CHROM.1>
-143.08568042,-72.08060065,172.24248431,-119.68527447,73.17197787,112.77434689
-81.33058726,157.63574453,179.98888376,165.11869155,-42.46976442,88.77852827
166.07598978,-51.48275456,-58.56469665,-100.00147209,-67.30038775,172.80038001
174.61560036,-160.38622680,-139.70571339,-130.42196728,-132.67889009,13.94386969
162.61151830,-167.69946614,-57.69948922,-49.50498880,94.52771847,151.53053714
-167.84193440,18.72549693,-30.42744102,-49.31421982,-46.79618335,92.92369152
88.68743251,-160.05254517,-178.19859819,0.61048917,-10.74445499,3.59865664
-1.95884014,0.19649120,-1.56289639

>  <COMPND>
    UNNAMED

>  <MASTER>
        0    0    0    0    0    0    0    0  109    0  109    0

>  <Name>
FB1.pdb

>  <RI>
0

>  <Rbt.Current_Directory>
/cluster/tossine/F10/p3/0_clust01/stat

>  <Rbt.Executable>
rbdock/0.1.0

>  <Rbt.Library>
librxdock.so/0.1.0

>  <Rbt.Parameter_File>
/cluster/rxdock/data/scripts/dock.prm

>  <Rbt.Receptor>
rx_3.prm

>  <SCORE>
43.86

>  <SCORE.INTER>
12.7776

>  <SCORE.INTER.CONST>
1

>  <SCORE.INTER.POLAR>
-2.52586

>  <SCORE.INTER.REPUL>
0.134091

>  <SCORE.INTER.ROT>
32

>  <SCORE.INTER.VDW>
-16.7049

>  <SCORE.INTER.norm>
0.255552

>  <SCORE.INTRA>
22.5609

>  <SCORE.INTRA.DIHEDRAL>
27.0495

>  <SCORE.INTRA.DIHEDRAL.0>
47.3121

>  <SCORE.INTRA.POLAR>
0.956575

>  <SCORE.INTRA.POLAR.0>
-1.47808

>  <SCORE.INTRA.REPUL>
0.0534814

>  <SCORE.INTRA.REPUL.0>
0

>  <SCORE.INTRA.VDW>
5.51638

>  <SCORE.INTRA.VDW.0>
-2.78316

>  <SCORE.INTRA.norm>
0.451218

>  <SCORE.RESTR>
8.52146

>  <SCORE.RESTR.CAVITY>
8.52146

>  <SCORE.RESTR.norm>
0.170429

>  <SCORE.SYSTEM>
0

>  <SCORE.SYSTEM.CONST>
0

>  <SCORE.SYSTEM.DIHEDRAL>
0

>  <SCORE.SYSTEM.norm>
0

>  <SCORE.heavy>
50

>  <SCORE.norm>
0.877199

$$$$
