FB1.pdb
  RxDock  10072011583D
librxdock.so/0.1.0
 59 58  0  0  0  0  0  0  0  0999 V2000
    2.6943  -10.5865    0.5364 C   0  0  0  0  0  0
    4.1263  -11.0236    0.2373 C   0  0  0  0  0  0
    4.6848  -10.3263   -1.0142 C   0  0  0  0  0  0
    4.0019  -10.7778   -2.3293 C   0  0  0  0  0  0
    3.9714   -9.6956   -3.4643 C   0  0  0  0  0  0
    5.4089   -9.5189   -4.0054 C   0  0  0  0  0  0
    2.9610  -10.0382   -4.6389 C   0  0  0  0  0  0
    1.4581  -10.4019   -4.2204 C   0  0  0  0  0  0
    0.9235  -10.5040   -2.7264 C   0  0  0  0  0  0
   -0.6978  -10.7712   -2.5803 C   0  0  0  0  0  0
   -1.0481  -12.0526   -3.3349 C   0  0  0  0  0  0
   -1.2652  -10.8549   -1.0917 C   0  0  0  0  0  0
   -0.7113   -9.9665    0.1421 C   0  0  0  0  0  0
   -1.5435   -8.8008    0.7783 C   0  0  0  0  0  0
   -2.7098   -9.1743    1.8027 C   0  0  0  0  0  0
   -2.5322  -10.1450    3.0359 C   0  0  0  0  0  0
   -3.7196  -10.3703    4.0089 C   0  0  0  0  0  0
   -3.6905  -11.6968    4.8624 C   0  0  0  0  0  0
   -2.6450  -11.7610    5.9828 C   0  0  0  0  0  0
   -2.7489  -10.7364    7.1480 C   0  0  0  0  0  0
   -2.1639   -9.3013    6.9944 C   0  0  0  0  0  0
   -2.3070   -8.3791    8.1970 C   0  0  0  0  0  0
   -0.7639   -9.3513    6.5319 N   0  0  0  0  0  0
   -4.1734  -10.5425    7.3410 O   0  0  0  0  0  0
   -4.9878  -11.8789    5.4401 O   0  0  0  0  0  0
   -0.5041  -10.9060    1.2103 O   0  0  0  0  0  0
    0.6096   -9.3964   -4.8382 O   0  0  0  0  0  0
   -0.2544   -9.8224   -5.7959 C   0  0  0  0  0  0
   -0.6364  -10.9649   -5.9636 O   0  0  0  0  0  0
   -0.7461   -8.6243   -6.5603 C   0  0  0  0  0  0
   -2.0502   -8.0505   -5.9836 C   0  0  0  0  0  0
   -3.2013   -8.0712   -6.9974 C   0  0  0  0  0  0
   -4.0787   -6.8497   -6.8509 C   0  0  0  0  0  0
   -4.5517   -6.2363   -7.8015 O   0  0  0  0  0  0
   -4.2951   -6.4972   -5.5750 O   0  0  0  0  0  0
   -2.3993   -8.9293   -4.7745 C   0  0  0  0  0  0
   -2.1870   -8.5904   -3.6202 O   0  0  0  0  0  0
   -2.9135  -10.1259   -5.0906 O   0  0  0  0  0  0
    3.0057   -9.0049   -5.7020 O   0  0  0  0  0  0
    2.7180   -9.3845   -7.0025 C   0  0  0  0  0  0
    1.8913  -10.2319   -7.3138 O   0  0  0  0  0  0
    3.5574   -8.6185   -8.0335 C   0  0  0  0  0  0
    2.8458   -8.3017   -9.3855 C   0  0  0  0  0  0
    2.4425   -6.8426   -9.6661 C   0  0  0  0  0  0
    1.1779   -6.7272  -10.4673 C   0  0  0  0  0  0
    0.6899   -7.6087  -11.1611 O   0  0  0  0  0  0
    0.5945   -5.5262  -10.3351 O   0  0  0  0  0  0
    3.5819   -8.8153  -10.6292 C   0  0  0  0  0  0
    3.2228   -9.7955  -11.2512 O   0  0  0  0  0  0
    4.6020   -8.0432  -11.0587 O   0  0  0  0  0  0
   -0.2229   -9.9365    7.1670 H   0  0  0  0  0  0
   -0.3565   -8.4178    6.6223 H   0  0  0  0  0  0
   -4.5002  -11.4117    7.6557 H   0  0  0  0  0  0
   -5.6278  -12.0082    4.7160 H   0  0  0  0  0  0
    0.0854  -11.6066    0.8844 H   0  0  0  0  0  0
   -4.8615   -5.7117   -5.4501 H   0  0  0  0  0  0
   -3.2141  -10.6609   -4.3146 H   0  0  0  0  0  0
    1.1612   -5.0032   -9.7297 H   0  0  0  0  0  0
    4.9436   -8.2594  -11.9547 H   0  0  0  0  0  0
  1  2  1  0  0  0
  2  3  1  0  0  0
  3  4  1  0  0  0
  4  5  1  0  0  0
  5  6  1  0  0  0
  5  7  1  0  0  0
  7  8  1  0  0  0
  7 39  1  0  0  0
  8  9  1  0  0  0
  8 27  1  0  0  0
  9 10  1  0  0  0
 10 11  1  0  0  0
 10 12  1  0  0  0
 12 13  1  0  0  0
 13 14  1  0  0  0
 13 26  1  0  0  0
 14 15  1  0  0  0
 15 16  1  0  0  0
 16 17  1  0  0  0
 17 18  1  0  0  0
 18 19  1  0  0  0
 18 25  1  0  0  0
 19 20  1  0  0  0
 20 21  1  0  0  0
 20 24  1  0  0  0
 21 22  1  0  0  0
 21 23  1  0  0  0
 23 51  1  0  0  0
 23 52  1  0  0  0
 24 53  1  0  0  0
 25 54  1  0  0  0
 26 55  1  0  0  0
 27 28  1  0  0  0
 28 29  2  0  0  0
 28 30  1  0  0  0
 30 31  1  0  0  0
 31 32  1  0  0  0
 31 36  1  0  0  0
 32 33  1  0  0  0
 33 34  2  0  0  0
 33 35  1  0  0  0
 35 56  1  0  0  0
 36 37  2  0  0  0
 36 38  1  0  0  0
 38 57  1  0  0  0
 39 40  1  0  0  0
 40 41  2  0  0  0
 40 42  1  0  0  0
 42 43  1  0  0  0
 43 44  1  0  0  0
 43 48  1  0  0  0
 44 45  1  0  0  0
 45 46  2  0  0  0
 45 47  1  0  0  0
 47 58  1  0  0  0
 48 49  2  0  0  0
 48 50  1  0  0  0
 50 59  1  0  0  0
M  END
>  <AUTHOR>
    GENERATED BY OPEN BABEL 2.4.1

>  <CHROM.1>
-68.56241378,150.90456540,71.12230382,51.55729419,-2.69612793,150.62636936
175.10715300,114.65022264,56.99640527,35.48980328,109.03860989,78.86066835
55.29122504,50.10741722,176.59450926,157.85269390,71.40616469,62.87704018
63.82234924,-82.76866201,-179.50638570,65.71695340,-54.86828454,19.66857794
-92.39212234,-119.75528272,-143.50355695,101.49909117,140.03269523,-179.84226037
-174.78919785,35.20561409,-145.61853428,108.19203412,-146.61252740,104.30241777
-19.94353846,0.23495935,-167.15705268,-0.12284168,-9.40796789,-2.92544636
-1.85781191,0.22493790,-1.35341893

>  <COMPND>
    UNNAMED

>  <MASTER>
        0    0    0    0    0    0    0    0  109    0  109    0

>  <Name>
FB1.pdb

>  <RI>
0

>  <Rbt.Current_Directory>
/cluster/tossine/F10/p3/0_clust01/stat

>  <Rbt.Executable>
rbdock/0.1.0

>  <Rbt.Library>
librxdock.so/0.1.0

>  <Rbt.Parameter_File>
/cluster/rxdock/data/scripts/dock.prm

>  <Rbt.Receptor>
rx_3.prm

>  <SCORE>
36.7922

>  <SCORE.INTER>
12.1076

>  <SCORE.INTER.CONST>
1

>  <SCORE.INTER.POLAR>
-1.90319

>  <SCORE.INTER.REPUL>
0.767329

>  <SCORE.INTER.ROT>
32

>  <SCORE.INTER.VDW>
-22.6582

>  <SCORE.INTER.norm>
0.242152

>  <SCORE.INTRA>
19.0739

>  <SCORE.INTRA.DIHEDRAL>
22.8235

>  <SCORE.INTRA.DIHEDRAL.0>
47.3121

>  <SCORE.INTRA.POLAR>
1.47808

>  <SCORE.INTRA.POLAR.0>
-1.47808

>  <SCORE.INTRA.REPUL>
0

>  <SCORE.INTRA.REPUL.0>
0

>  <SCORE.INTRA.VDW>
2.63669

>  <SCORE.INTRA.VDW.0>
-2.78316

>  <SCORE.INTRA.norm>
0.381478

>  <SCORE.RESTR>
5.61071

>  <SCORE.RESTR.CAVITY>
5.61071

>  <SCORE.RESTR.norm>
0.112214

>  <SCORE.SYSTEM>
0

>  <SCORE.SYSTEM.CONST>
0

>  <SCORE.SYSTEM.DIHEDRAL>
0

>  <SCORE.SYSTEM.norm>
0

>  <SCORE.heavy>
50

>  <SCORE.norm>
0.735845

$$$$
