FB1.pdb
  RxDock  10072011523D
librxdock.so/0.1.0
 59 58  0  0  0  0  0  0  0  0999 V2000
   -4.8878  -10.3503    2.0079 C   0  0  0  0  0  0
   -5.0778  -11.0261    3.3638 C   0  0  0  0  0  0
   -4.0521  -12.1493    3.5888 C   0  0  0  0  0  0
   -3.9800  -12.6346    5.0582 C   0  0  0  0  0  0
   -2.5883  -13.2094    5.4976 C   0  0  0  0  0  0
   -2.4904  -14.6724    5.0067 C   0  0  0  0  0  0
   -1.3572  -12.3532    4.9788 C   0  0  0  0  0  0
   -0.3153  -13.0921    4.0120 C   0  0  0  0  0  0
   -0.1648  -12.8228    2.4522 C   0  0  0  0  0  0
   -0.0201  -11.2354    2.0273 C   0  0  0  0  0  0
    1.1203  -10.6188    2.8357 C   0  0  0  0  0  0
    0.2039  -10.9405    0.4756 C   0  0  0  0  0  0
   -0.8318  -10.1092   -0.4490 C   0  0  0  0  0  0
   -1.3579  -10.6548   -1.8207 C   0  0  0  0  0  0
   -2.2604   -9.6944   -2.7219 C   0  0  0  0  0  0
   -2.6914  -10.0156   -4.2070 C   0  0  0  0  0  0
   -1.6026  -10.3108   -5.2723 C   0  0  0  0  0  0
   -0.5558   -9.1631   -5.5480 C   0  0  0  0  0  0
    0.8629   -9.6124   -5.9195 C   0  0  0  0  0  0
    1.7194  -10.3231   -4.8334 C   0  0  0  0  0  0
    2.8136   -9.5391   -4.0502 C   0  0  0  0  0  0
    3.6282  -10.3374   -3.0420 C   0  0  0  0  0  0
    3.6953   -8.8018   -4.9751 N   0  0  0  0  0  0
    0.7630  -10.7405   -3.8260 O   0  0  0  0  0  0
   -1.0656   -8.3452   -6.6067 O   0  0  0  0  0  0
   -2.0055   -9.9466    0.3651 O   0  0  0  0  0  0
    1.0056  -12.8190    4.5534 O   0  0  0  0  0  0
    2.0459  -13.5110    4.0204 C   0  0  0  0  0  0
    2.1341  -13.9074    2.8738 O   0  0  0  0  0  0
    3.1268  -13.6213    5.0601 C   0  0  0  0  0  0
    3.7778  -12.2664    5.3810 C   0  0  0  0  0  0
    3.9233  -11.3749    4.1410 C   0  0  0  0  0  0
    5.3556  -10.9313    3.9537 C   0  0  0  0  0  0
    5.7215   -9.7644    4.0431 O   0  0  0  0  0  0
    6.1960  -11.9402    3.6801 O   0  0  0  0  0  0
    2.8602  -11.5905    6.4091 C   0  0  0  0  0  0
    2.4159  -10.4615    6.2661 O   0  0  0  0  0  0
    2.6239  -12.3236    7.5058 O   0  0  0  0  0  0
   -1.8056  -11.0541    4.4211 O   0  0  0  0  0  0
   -2.5801  -10.2271    5.2175 C   0  0  0  0  0  0
   -2.8305  -10.4323    6.3980 O   0  0  0  0  0  0
   -3.1021   -9.0028    4.4539 C   0  0  0  0  0  0
   -2.6037   -7.6181    4.9723 C   0  0  0  0  0  0
   -1.0919   -7.4306    5.1950 C   0  0  0  0  0  0
   -0.4334   -8.6382    5.7971 C   0  0  0  0  0  0
    0.4523   -9.3022    5.2761 O   0  0  0  0  0  0
   -0.9094   -8.9272    7.0178 O   0  0  0  0  0  0
   -3.0933   -6.4170    4.1538 C   0  0  0  0  0  0
   -2.8251   -5.2676    4.4429 O   0  0  0  0  0  0
   -3.7589   -6.7212    3.0199 O   0  0  0  0  0  0
    3.3794   -8.9556   -5.9316 H   0  0  0  0  0  0
    4.6292   -9.2163   -4.9362 H   0  0  0  0  0  0
    0.4067   -9.9028   -3.4619 H   0  0  0  0  0  0
   -0.8357   -8.7673   -7.4549 H   0  0  0  0  0  0
   -2.5764  -10.7209    0.2276 H   0  0  0  0  0  0
    5.8476  -12.8339    3.8633 H   0  0  0  0  0  0
    2.1534  -13.1770    7.3351 H   0  0  0  0  0  0
   -0.1638   -8.8144    7.6444 H   0  0  0  0  0  0
   -3.7467   -6.0247    2.3264 H   0  0  0  0  0  0
  1  2  1  0  0  0
  2  3  1  0  0  0
  3  4  1  0  0  0
  4  5  1  0  0  0
  5  6  1  0  0  0
  5  7  1  0  0  0
  7  8  1  0  0  0
  7 39  1  0  0  0
  8  9  1  0  0  0
  8 27  1  0  0  0
  9 10  1  0  0  0
 10 11  1  0  0  0
 10 12  1  0  0  0
 12 13  1  0  0  0
 13 14  1  0  0  0
 13 26  1  0  0  0
 14 15  1  0  0  0
 15 16  1  0  0  0
 16 17  1  0  0  0
 17 18  1  0  0  0
 18 19  1  0  0  0
 18 25  1  0  0  0
 19 20  1  0  0  0
 20 21  1  0  0  0
 20 24  1  0  0  0
 21 22  1  0  0  0
 21 23  1  0  0  0
 23 51  1  0  0  0
 23 52  1  0  0  0
 24 53  1  0  0  0
 25 54  1  0  0  0
 26 55  1  0  0  0
 27 28  1  0  0  0
 28 29  2  0  0  0
 28 30  1  0  0  0
 30 31  1  0  0  0
 31 32  1  0  0  0
 31 36  1  0  0  0
 32 33  1  0  0  0
 33 34  2  0  0  0
 33 35  1  0  0  0
 35 56  1  0  0  0
 36 37  2  0  0  0
 36 38  1  0  0  0
 38 57  1  0  0  0
 39 40  1  0  0  0
 40 41  2  0  0  0
 40 42  1  0  0  0
 42 43  1  0  0  0
 43 44  1  0  0  0
 43 48  1  0  0  0
 44 45  1  0  0  0
 45 46  2  0  0  0
 45 47  1  0  0  0
 47 58  1  0  0  0
 48 49  2  0  0  0
 48 50  1  0  0  0
 50 59  1  0  0  0
M  END
>  <AUTHOR>
    GENERATED BY OPEN BABEL 2.4.1

>  <CHROM.1>
166.27396693,-151.74159816,-81.03075157,-118.99650762,107.96257399,54.91040337
50.07459577,170.19945914,53.17866094,117.06940220,-128.93643096,-173.96715344
-88.00149129,170.86885305,-56.13813951,-60.34154130,147.06043364,-67.73717504
-83.47055502,-100.61037563,-177.99864701,-65.04358488,1.08789755,31.11693121
-67.99532315,-37.03183584,-125.15471371,-127.11845091,-114.55266187,-15.33631924
-62.54771673,6.74754598,-116.91766446,49.84905919,-39.82747601,178.05957861
118.37423469,-115.95695605,-155.66616409,-0.10055553,-10.54432212,2.11738120
1.54140748,0.29547452,-1.42504660

>  <COMPND>
    UNNAMED

>  <MASTER>
        0    0    0    0    0    0    0    0  109    0  109    0

>  <Name>
FB1.pdb

>  <RI>
0

>  <Rbt.Current_Directory>
/cluster/tossine/F10/p3/0_clust01/stat

>  <Rbt.Executable>
rbdock/0.1.0

>  <Rbt.Library>
librxdock.so/0.1.0

>  <Rbt.Parameter_File>
/cluster/rxdock/data/scripts/dock.prm

>  <Rbt.Receptor>
rx_3.prm

>  <SCORE>
80.968

>  <SCORE.INTER>
18.4492

>  <SCORE.INTER.CONST>
1

>  <SCORE.INTER.POLAR>
-0.620381

>  <SCORE.INTER.REPUL>
0.351331

>  <SCORE.INTER.ROT>
32

>  <SCORE.INTER.VDW>
-18.5981

>  <SCORE.INTER.norm>
0.368984

>  <SCORE.INTRA>
54.1055

>  <SCORE.INTRA.DIHEDRAL>
65.6256

>  <SCORE.INTRA.DIHEDRAL.0>
47.3121

>  <SCORE.INTRA.POLAR>
1.47808

>  <SCORE.INTRA.POLAR.0>
-1.47808

>  <SCORE.INTRA.REPUL>
0.543768

>  <SCORE.INTRA.REPUL.0>
0

>  <SCORE.INTRA.VDW>
13.5484

>  <SCORE.INTRA.VDW.0>
-2.78316

>  <SCORE.INTRA.norm>
1.08211

>  <SCORE.RESTR>
8.41325

>  <SCORE.RESTR.CAVITY>
8.41325

>  <SCORE.RESTR.norm>
0.168265

>  <SCORE.SYSTEM>
0

>  <SCORE.SYSTEM.CONST>
0

>  <SCORE.SYSTEM.DIHEDRAL>
0

>  <SCORE.SYSTEM.norm>
0

>  <SCORE.heavy>
50

>  <SCORE.norm>
1.61936

$$$$
