FB1.pdb
  RxDock  10072011493D
librxdock.so/0.1.0
 59 58  0  0  0  0  0  0  0  0999 V2000
   -4.1324   -7.0403    1.9194 C   0  0  0  0  0  0
   -2.8812   -7.8901    2.1287 C   0  0  0  0  0  0
   -2.2491   -8.3118    0.7919 C   0  0  0  0  0  0
   -1.0009   -9.2142    0.9565 C   0  0  0  0  0  0
   -1.0896  -10.2600    2.1222 C   0  0  0  0  0  0
   -1.8528  -11.5009    1.6041 C   0  0  0  0  0  0
    0.3243  -10.6698    2.7143 C   0  0  0  0  0  0
    1.4621  -11.0747    1.6618 C   0  0  0  0  0  0
    2.4018  -10.0496    0.8907 C   0  0  0  0  0  0
    3.0134  -10.6007   -0.5388 C   0  0  0  0  0  0
    3.5709  -12.0060   -0.3183 C   0  0  0  0  0  0
    2.0068  -10.6127   -1.7763 C   0  0  0  0  0  0
    2.4683  -10.4958   -3.3229 C   0  0  0  0  0  0
    1.4624  -10.1599   -4.4767 C   0  0  0  0  0  0
   -0.0413  -10.6806   -4.3460 C   0  0  0  0  0  0
   -1.3151   -9.7521   -4.4465 C   0  0  0  0  0  0
   -1.6986   -9.1256   -5.8132 C   0  0  0  0  0  0
   -2.9144   -8.1201   -5.8121 C   0  0  0  0  0  0
   -3.4085   -7.6500   -7.1859 C   0  0  0  0  0  0
   -4.6464   -6.7105   -7.2424 C   0  0  0  0  0  0
   -5.1626   -6.0033   -5.9544 C   0  0  0  0  0  0
   -6.2750   -6.7104   -5.1928 C   0  0  0  0  0  0
   -4.0424   -5.6635   -5.0566 N   0  0  0  0  0  0
   -4.2501   -5.6331   -8.1290 O   0  0  0  0  0  0
   -4.0045   -8.7459   -5.1265 O   0  0  0  0  0  0
    3.4308   -9.4282   -3.3416 O   0  0  0  0  0  0
    2.3848  -11.9425    2.3746 O   0  0  0  0  0  0
    3.2954  -11.3422    3.1845 C   0  0  0  0  0  0
    3.5129  -10.1480    3.2615 O   0  0  0  0  0  0
    3.9271  -12.3950    4.0528 C   0  0  0  0  0  0
    3.4971  -12.2827    5.5242 C   0  0  0  0  0  0
    3.3192  -10.8275    5.9760 C   0  0  0  0  0  0
    4.6396  -10.0927    5.9802 C   0  0  0  0  0  0
    5.3186   -9.9123    4.9751 O   0  0  0  0  0  0
    5.0018   -9.6516    7.1939 O   0  0  0  0  0  0
    2.1625  -13.0331    5.6321 C   0  0  0  0  0  0
    1.5647  -13.4736    4.6620 O   0  0  0  0  0  0
    1.6782  -13.1238    6.8784 O   0  0  0  0  0  0
    0.8066   -9.6650    3.6929 O   0  0  0  0  0  0
    0.1157   -9.5211    4.8845 C   0  0  0  0  0  0
    0.4606   -8.7926    5.8058 O   0  0  0  0  0  0
   -1.1517  -10.3845    4.9325 C   0  0  0  0  0  0
   -2.2094   -9.9762    6.0045 C   0  0  0  0  0  0
   -1.9520  -10.3842    7.4666 C   0  0  0  0  0  0
   -2.3928  -11.7870    7.7704 C   0  0  0  0  0  0
   -2.9338  -12.5512    6.9832 O   0  0  0  0  0  0
   -2.1124  -12.1513    9.0310 O   0  0  0  0  0  0
   -2.5720   -8.4860    6.0072 C   0  0  0  0  0  0
   -2.6607   -7.8262    4.9906 O   0  0  0  0  0  0
   -2.8944   -7.9703    7.2119 O   0  0  0  0  0  0
   -4.3982   -5.1264   -4.2670 H   0  0  0  0  0  0
   -3.4127   -5.0246   -5.5473 H   0  0  0  0  0  0
   -4.0177   -6.0792   -8.9706 H   0  0  0  0  0  0
   -4.2146   -9.5795   -5.5862 H   0  0  0  0  0  0
    3.9916   -9.5150   -2.5526 H   0  0  0  0  0  0
    4.3536   -9.8127    7.9062 H   0  0  0  0  0  0
    2.0836  -12.4920    7.5228 H   0  0  0  0  0  0
   -2.3634  -13.0955    9.1133 H   0  0  0  0  0  0
   -3.3856   -7.1193    7.1863 H   0  0  0  0  0  0
  1  2  1  0  0  0
  2  3  1  0  0  0
  3  4  1  0  0  0
  4  5  1  0  0  0
  5  6  1  0  0  0
  5  7  1  0  0  0
  7  8  1  0  0  0
  7 39  1  0  0  0
  8  9  1  0  0  0
  8 27  1  0  0  0
  9 10  1  0  0  0
 10 11  1  0  0  0
 10 12  1  0  0  0
 12 13  1  0  0  0
 13 14  1  0  0  0
 13 26  1  0  0  0
 14 15  1  0  0  0
 15 16  1  0  0  0
 16 17  1  0  0  0
 17 18  1  0  0  0
 18 19  1  0  0  0
 18 25  1  0  0  0
 19 20  1  0  0  0
 20 21  1  0  0  0
 20 24  1  0  0  0
 21 22  1  0  0  0
 21 23  1  0  0  0
 23 51  1  0  0  0
 23 52  1  0  0  0
 24 53  1  0  0  0
 25 54  1  0  0  0
 26 55  1  0  0  0
 27 28  1  0  0  0
 28 29  2  0  0  0
 28 30  1  0  0  0
 30 31  1  0  0  0
 31 32  1  0  0  0
 31 36  1  0  0  0
 32 33  1  0  0  0
 33 34  2  0  0  0
 33 35  1  0  0  0
 35 56  1  0  0  0
 36 37  2  0  0  0
 36 38  1  0  0  0
 38 57  1  0  0  0
 39 40  1  0  0  0
 40 41  2  0  0  0
 40 42  1  0  0  0
 42 43  1  0  0  0
 43 44  1  0  0  0
 43 48  1  0  0  0
 44 45  1  0  0  0
 45 46  2  0  0  0
 45 47  1  0  0  0
 47 58  1  0  0  0
 48 49  2  0  0  0
 48 50  1  0  0  0
 50 59  1  0  0  0
M  END
>  <AUTHOR>
    GENERATED BY OPEN BABEL 2.4.1

>  <CHROM.1>
-178.16697119,38.07003886,83.44632600,-48.58332902,83.57911069,66.87441853
-155.33689764,-79.61328877,-47.34438272,153.07995793,-164.62803235,-32.79827465
40.63733360,125.59785009,69.81325980,-175.30928881,-172.08796593,177.19968487
-58.25613374,14.01468215,-94.22268947,57.99641428,174.73598083,-8.66113251
-109.60905798,-35.96421905,-66.40787329,-6.95427311,61.93730748,-3.26453640
16.76213738,175.05531070,-161.78247437,-78.15528748,-83.64013874,37.08371022
-1.74403378,-175.29575262,-161.84517891,-0.21538567,-9.81675620,1.43861082
1.92258579,0.36307030,-1.42271441

>  <COMPND>
    UNNAMED

>  <MASTER>
        0    0    0    0    0    0    0    0  109    0  109    0

>  <Name>
FB1.pdb

>  <RI>
0

>  <Rbt.Current_Directory>
/cluster/tossine/F10/p3/0_clust01/stat

>  <Rbt.Executable>
rbdock/0.1.0

>  <Rbt.Library>
librxdock.so/0.1.0

>  <Rbt.Parameter_File>
/cluster/rxdock/data/scripts/dock.prm

>  <Rbt.Receptor>
rx_3.prm

>  <SCORE>
22.2868

>  <SCORE.INTER>
-1.77071

>  <SCORE.INTER.CONST>
1

>  <SCORE.INTER.POLAR>
-2.92273

>  <SCORE.INTER.REPUL>
0.474385

>  <SCORE.INTER.ROT>
32

>  <SCORE.INTER.VDW>
-31.6053

>  <SCORE.INTER.norm>
-0.0354142

>  <SCORE.INTRA>
19.4531

>  <SCORE.INTRA.DIHEDRAL>
10.1092

>  <SCORE.INTRA.DIHEDRAL.0>
47.3121

>  <SCORE.INTRA.POLAR>
1.47808

>  <SCORE.INTRA.POLAR.0>
-1.47808

>  <SCORE.INTRA.REPUL>
0

>  <SCORE.INTRA.REPUL.0>
0

>  <SCORE.INTRA.VDW>
9.37302

>  <SCORE.INTRA.VDW.0>
-2.78316

>  <SCORE.INTRA.norm>
0.389061

>  <SCORE.RESTR>
4.60444

>  <SCORE.RESTR.CAVITY>
4.60444

>  <SCORE.RESTR.norm>
0.0920888

>  <SCORE.SYSTEM>
0

>  <SCORE.SYSTEM.CONST>
0

>  <SCORE.SYSTEM.DIHEDRAL>
0

>  <SCORE.SYSTEM.norm>
0

>  <SCORE.heavy>
50

>  <SCORE.norm>
0.445736

$$$$
