FB1.pdb
  RxDock  10072012083D
librxdock.so/0.1.0
 59 58  0  0  0  0  0  0  0  0999 V2000
    5.0171   -5.2343   -7.5432 C   0  0  0  0  0  0
    4.6817   -6.5117   -6.7769 C   0  0  0  0  0  0
    4.7293   -6.2923   -5.2558 C   0  0  0  0  0  0
    3.9554   -7.3671   -4.4523 C   0  0  0  0  0  0
    3.7874   -8.7453   -5.1823 C   0  0  0  0  0  0
    4.7031   -9.7783   -4.4859 C   0  0  0  0  0  0
    2.2865   -9.2581   -5.2294 C   0  0  0  0  0  0
    1.6455   -9.4946   -6.6783 C   0  0  0  0  0  0
    2.2191  -10.4851   -7.7820 C   0  0  0  0  0  0
    3.1703   -9.7784   -8.9296 C   0  0  0  0  0  0
    4.1490  -10.8248   -9.4601 C   0  0  0  0  0  0
    2.4067   -9.0925  -10.1508 C   0  0  0  0  0  0
    2.7051   -7.5929  -10.6808 C   0  0  0  0  0  0
    2.6094   -6.3375   -9.7476 C   0  0  0  0  0  0
    2.5003   -4.8962  -10.4258 C   0  0  0  0  0  0
    3.7068   -4.1441  -11.1137 C   0  0  0  0  0  0
    3.8687   -2.6142  -10.9124 C   0  0  0  0  0  0
    3.7242   -2.0776   -9.4358 C   0  0  0  0  0  0
    4.8560   -1.1765   -8.9265 C   0  0  0  0  0  0
    4.9294   -0.8748   -7.4028 C   0  0  0  0  0  0
    6.2827   -0.4857   -6.7373 C   0  0  0  0  0  0
    7.5435   -1.0149   -7.4064 C   0  0  0  0  0  0
    6.3671    0.9728   -6.5319 N   0  0  0  0  0  0
    4.0729    0.2806   -7.2151 O   0  0  0  0  0  0
    2.4920   -1.3540   -9.3474 O   0  0  0  0  0  0
    4.0708   -7.6242  -11.1287 O   0  0  0  0  0  0
    0.2866   -9.9572   -6.4509 O   0  0  0  0  0  0
   -0.7192   -9.1224   -6.8206 C   0  0  0  0  0  0
   -0.7163   -8.3722   -7.7780 O   0  0  0  0  0  0
   -1.8891   -9.3513   -5.9038 C   0  0  0  0  0  0
   -2.7022   -8.0713   -5.6534 C   0  0  0  0  0  0
   -3.6446   -7.7356   -6.8164 C   0  0  0  0  0  0
   -4.6310   -6.6596   -6.4255 C   0  0  0  0  0  0
   -4.4323   -5.4620   -6.5986 O   0  0  0  0  0  0
   -5.7529   -7.1398   -5.8693 O   0  0  0  0  0  0
   -3.5145   -8.3305   -4.3771 C   0  0  0  0  0  0
   -3.3162   -7.7364   -3.3282 O   0  0  0  0  0  0
   -4.4313   -9.3011   -4.4926 O   0  0  0  0  0  0
    2.0925  -10.4288   -4.3397 O   0  0  0  0  0  0
    0.9373  -10.4940   -3.5785 C   0  0  0  0  0  0
   -0.0377   -9.7693   -3.7292 O   0  0  0  0  0  0
    1.0056  -11.5894   -2.5063 C   0  0  0  0  0  0
    0.8765  -11.1012   -1.0300 C   0  0  0  0  0  0
    1.8524  -10.0163   -0.5389 C   0  0  0  0  0  0
    3.2521  -10.5271   -0.3532 C   0  0  0  0  0  0
    4.1911  -10.3269   -1.1113 O   0  0  0  0  0  0
    3.3934  -11.2379    0.7760 O   0  0  0  0  0  0
   -0.5349  -10.6570   -0.6264 C   0  0  0  0  0  0
   -1.3451  -11.4095   -0.1224 O   0  0  0  0  0  0
   -0.7904   -9.3395   -0.7682 O   0  0  0  0  0  0
    6.1009    1.1910   -5.5727 H   0  0  0  0  0  0
    5.6574    1.4259   -7.1119 H   0  0  0  0  0  0
    3.1695   -0.0482   -7.4078 H   0  0  0  0  0  0
    1.7683   -1.9524   -9.6094 H   0  0  0  0  0  0
    4.2904   -6.7472  -11.4854 H   0  0  0  0  0  0
   -5.7379   -8.0928   -5.6570 H   0  0  0  0  0  0
   -4.8746   -9.5495   -3.6438 H   0  0  0  0  0  0
    4.1784  -11.8119    0.6507 H   0  0  0  0  0  0
   -1.5002   -8.9848   -0.1880 H   0  0  0  0  0  0
  1  2  1  0  0  0
  2  3  1  0  0  0
  3  4  1  0  0  0
  4  5  1  0  0  0
  5  6  1  0  0  0
  5  7  1  0  0  0
  7  8  1  0  0  0
  7 39  1  0  0  0
  8  9  1  0  0  0
  8 27  1  0  0  0
  9 10  1  0  0  0
 10 11  1  0  0  0
 10 12  1  0  0  0
 12 13  1  0  0  0
 13 14  1  0  0  0
 13 26  1  0  0  0
 14 15  1  0  0  0
 15 16  1  0  0  0
 16 17  1  0  0  0
 17 18  1  0  0  0
 18 19  1  0  0  0
 18 25  1  0  0  0
 19 20  1  0  0  0
 20 21  1  0  0  0
 20 24  1  0  0  0
 21 22  1  0  0  0
 21 23  1  0  0  0
 23 51  1  0  0  0
 23 52  1  0  0  0
 24 53  1  0  0  0
 25 54  1  0  0  0
 26 55  1  0  0  0
 27 28  1  0  0  0
 28 29  2  0  0  0
 28 30  1  0  0  0
 30 31  1  0  0  0
 31 32  1  0  0  0
 31 36  1  0  0  0
 32 33  1  0  0  0
 33 34  2  0  0  0
 33 35  1  0  0  0
 35 56  1  0  0  0
 36 37  2  0  0  0
 36 38  1  0  0  0
 38 57  1  0  0  0
 39 40  1  0  0  0
 40 41  2  0  0  0
 40 42  1  0  0  0
 42 43  1  0  0  0
 43 44  1  0  0  0
 43 48  1  0  0  0
 44 45  1  0  0  0
 45 46  2  0  0  0
 45 47  1  0  0  0
 47 58  1  0  0  0
 48 49  2  0  0  0
 48 50  1  0  0  0
 50 59  1  0  0  0
M  END
>  <AUTHOR>
    GENERATED BY OPEN BABEL 2.4.1

>  <CHROM.1>
160.46922849,24.41254372,108.20226379,120.32183450,58.59241721,138.68658666
-97.08020043,112.31022223,152.84351021,130.63211746,-56.78654490,-162.49610851
178.20486503,-74.75177813,-139.94284218,46.47345042,128.69573781,-166.86332502
57.27824765,155.30070739,-27.33506444,67.05918501,97.28529243,34.74472084
147.37285483,78.84380142,167.87260472,112.55191234,91.59616762,9.23884939
172.53879367,11.94647822,119.41171073,-55.01854183,-72.07676650,92.09444325
103.64149533,157.86835463,-155.14790415,1.61627421,-7.28634597,-5.92870150
-1.05908962,0.25242009,2.32987025

>  <COMPND>
    UNNAMED

>  <MASTER>
        0    0    0    0    0    0    0    0  109    0  109    0

>  <Name>
FB1.pdb

>  <RI>
0

>  <Rbt.Current_Directory>
/cluster/tossine/F10/p3/0_clust01/stat

>  <Rbt.Executable>
rbdock/0.1.0

>  <Rbt.Library>
librxdock.so/0.1.0

>  <Rbt.Parameter_File>
/cluster/rxdock/data/scripts/dock.prm

>  <Rbt.Receptor>
rx_3.prm

>  <SCORE>
40.4406

>  <SCORE.INTER>
7.26101

>  <SCORE.INTER.CONST>
1

>  <SCORE.INTER.POLAR>
-1.2214

>  <SCORE.INTER.REPUL>
0.241944

>  <SCORE.INTER.ROT>
32

>  <SCORE.INTER.VDW>
-27.1959

>  <SCORE.INTER.norm>
0.14522

>  <SCORE.INTRA>
20.6077

>  <SCORE.INTRA.DIHEDRAL>
43.8368

>  <SCORE.INTRA.DIHEDRAL.0>
47.3121

>  <SCORE.INTRA.POLAR>
0.721274

>  <SCORE.INTRA.POLAR.0>
-1.47808

>  <SCORE.INTRA.REPUL>
0

>  <SCORE.INTRA.REPUL.0>
0

>  <SCORE.INTRA.VDW>
-3.76302

>  <SCORE.INTRA.VDW.0>
-2.78316

>  <SCORE.INTRA.norm>
0.412155

>  <SCORE.RESTR>
12.5718

>  <SCORE.RESTR.CAVITY>
12.5718

>  <SCORE.RESTR.norm>
0.251437

>  <SCORE.SYSTEM>
0

>  <SCORE.SYSTEM.CONST>
0

>  <SCORE.SYSTEM.DIHEDRAL>
0

>  <SCORE.SYSTEM.norm>
0

>  <SCORE.heavy>
50

>  <SCORE.norm>
0.808812

$$$$
