FB1.pdb
  RxDock  10072008473D
librxdock.so/0.1.0
 59 58  0  0  0  0  0  0  0  0999 V2000
    1.0190   -8.6885    6.1913 C   0  0  0  0  0  0
    0.4648   -9.5320    5.0455 C   0  0  0  0  0  0
    1.2571   -9.3170    3.7454 C   0  0  0  0  0  0
    0.5012   -9.7854    2.4770 C   0  0  0  0  0  0
    0.6193  -11.3180    2.1645 C   0  0  0  0  0  0
   -0.8076  -11.9068    2.0758 C   0  0  0  0  0  0
    1.4464  -11.6339    0.8477 C   0  0  0  0  0  0
    1.7474  -10.4034   -0.1329 C   0  0  0  0  0  0
    0.6494   -9.5968   -0.9525 C   0  0  0  0  0  0
    0.0398  -10.3842   -2.2677 C   0  0  0  0  0  0
   -1.1903  -11.1780   -1.8308 C   0  0  0  0  0  0
   -0.3300   -9.4729   -3.5238 C   0  0  0  0  0  0
   -1.0796   -8.0427   -3.4182 C   0  0  0  0  0  0
   -0.2971   -6.6859   -3.3659 C   0  0  0  0  0  0
    0.3325   -6.2279   -1.9719 C   0  0  0  0  0  0
    1.6121   -6.8823   -1.3170 C   0  0  0  0  0  0
    2.9667   -6.8346   -2.0722 C   0  0  0  0  0  0
    3.7278   -5.4526   -2.0693 C   0  0  0  0  0  0
    3.7628   -4.6991   -0.7339 C   0  0  0  0  0  0
    2.4125   -4.3802   -0.0316 C   0  0  0  0  0  0
    2.3828   -3.5547    1.2887 C   0  0  0  0  0  0
    3.3582   -3.9816    2.3767 C   0  0  0  0  0  0
    2.5037   -2.1113    1.0089 N   0  0  0  0  0  0
    1.6788   -3.5785   -0.9922 O   0  0  0  0  0  0
    5.0746   -5.6893   -2.4935 O   0  0  0  0  0  0
   -1.8910   -7.9624   -4.6021 O   0  0  0  0  0  0
    2.4082   -9.3921    0.6752 O   0  0  0  0  0  0
    3.7313   -9.5703    0.9258 C   0  0  0  0  0  0
    4.5827   -9.8764    0.1128 O   0  0  0  0  0  0
    3.9937   -9.2259    2.3659 C   0  0  0  0  0  0
    4.2120   -7.7199    2.5824 C   0  0  0  0  0  0
    4.2738   -7.3416    4.0678 C   0  0  0  0  0  0
    3.0436   -6.5697    4.4852 C   0  0  0  0  0  0
    1.9745   -6.6221    3.8869 O   0  0  0  0  0  0
    3.2306   -5.8177    5.5800 O   0  0  0  0  0  0
    5.5449   -7.3844    1.8991 C   0  0  0  0  0  0
    6.6076   -7.3322    2.4994 O   0  0  0  0  0  0
    5.4414   -7.1035    0.5928 O   0  0  0  0  0  0
    2.6729  -12.4079    1.1586 O   0  0  0  0  0  0
    3.3157  -13.0676    0.1244 C   0  0  0  0  0  0
    3.0130  -12.9712   -1.0578 O   0  0  0  0  0  0
    4.4693  -13.9486    0.6216 C   0  0  0  0  0  0
    4.2071  -15.4865    0.5955 C   0  0  0  0  0  0
    5.2059  -16.4031    1.3252 C   0  0  0  0  0  0
    5.8540  -15.7413    2.5069 C   0  0  0  0  0  0
    7.0327  -15.4243    2.5896 O   0  0  0  0  0  0
    4.9852  -15.5007    3.5007 O   0  0  0  0  0  0
    2.8004  -15.9012    1.0445 C   0  0  0  0  0  0
    2.1335  -15.2431    1.8183 O   0  0  0  0  0  0
    2.2992  -16.9987    0.4399 O   0  0  0  0  0  0
    1.6507   -1.7863    0.5558 H   0  0  0  0  0  0
    3.2403   -1.9740    0.3131 H   0  0  0  0  0  0
    0.8223   -3.3906   -0.5536 H   0  0  0  0  0  0
    5.5125   -4.8262   -2.6113 H   0  0  0  0  0  0
   -2.4150   -7.1454   -4.5528 H   0  0  0  0  0  0
    2.4213   -5.4223    5.9570 H   0  0  0  0  0  0
    4.5590   -7.3124    0.1971 H   0  0  0  0  0  0
    4.1903  -16.0447    3.3173 H   0  0  0  0  0  0
    1.3831  -17.2405    0.7015 H   0  0  0  0  0  0
  1  2  1  0  0  0
  2  3  1  0  0  0
  3  4  1  0  0  0
  4  5  1  0  0  0
  5  6  1  0  0  0
  5  7  1  0  0  0
  7  8  1  0  0  0
  7 39  1  0  0  0
  8  9  1  0  0  0
  8 27  1  0  0  0
  9 10  1  0  0  0
 10 11  1  0  0  0
 10 12  1  0  0  0
 12 13  1  0  0  0
 13 14  1  0  0  0
 13 26  1  0  0  0
 14 15  1  0  0  0
 15 16  1  0  0  0
 16 17  1  0  0  0
 17 18  1  0  0  0
 18 19  1  0  0  0
 18 25  1  0  0  0
 19 20  1  0  0  0
 20 21  1  0  0  0
 20 24  1  0  0  0
 21 22  1  0  0  0
 21 23  1  0  0  0
 23 51  1  0  0  0
 23 52  1  0  0  0
 24 53  1  0  0  0
 25 54  1  0  0  0
 26 55  1  0  0  0
 27 28  1  0  0  0
 28 29  2  0  0  0
 28 30  1  0  0  0
 30 31  1  0  0  0
 31 32  1  0  0  0
 31 36  1  0  0  0
 32 33  1  0  0  0
 33 34  2  0  0  0
 33 35  1  0  0  0
 35 56  1  0  0  0
 36 37  2  0  0  0
 36 38  1  0  0  0
 38 57  1  0  0  0
 39 40  1  0  0  0
 40 41  2  0  0  0
 40 42  1  0  0  0
 42 43  1  0  0  0
 43 44  1  0  0  0
 43 48  1  0  0  0
 44 45  1  0  0  0
 45 46  2  0  0  0
 45 47  1  0  0  0
 47 58  1  0  0  0
 48 49  2  0  0  0
 48 50  1  0  0  0
 50 59  1  0  0  0
M  END
>  <AUTHOR>
    GENERATED BY OPEN BABEL 2.4.1

>  <CHROM.1>
-162.16140903,-83.26728250,123.89117577,-13.39898077,-66.23087029,163.07468878
-74.97400832,79.38073121,90.69385947,-42.26871106,94.25515603,-80.20264051
175.83610600,73.45870818,60.96358363,75.74120770,42.96478367,-55.37763028
172.32117285,-176.87279280,-47.88750020,179.11630542,69.53373000,46.21345713
-84.38079635,171.56811979,-109.34751236,-96.03143570,22.55284096,-170.54863010
-11.04283243,6.49200011,106.66100280,-168.49814219,30.01006645,-27.35784879
-111.57856887,15.87167791,-177.53142502,2.58439013,-9.42076946,0.79746224
-1.82402698,1.00583206,-3.08812925

>  <COMPND>
    UNNAMED

>  <MASTER>
        0    0    0    0    0    0    0    0  109    0  109    0

>  <Name>
FB1.pdb

>  <RI>
0

>  <Rbt.Current_Directory>
/home/fc/tossine/FB1_39/p3/1_clust05

>  <Rbt.Executable>
rbdock/0.1.0

>  <Rbt.Library>
librxdock.so/0.1.0

>  <Rbt.Parameter_File>
/cluster/rxdock/data/scripts/dock.prm

>  <Rbt.Receptor>
rx_2.prm

>  <SCORE>
35.4096

>  <SCORE.INTER>
22.5755

>  <SCORE.INTER.CONST>
1

>  <SCORE.INTER.POLAR>
-0.770012

>  <SCORE.INTER.REPUL>
1.42285

>  <SCORE.INTER.ROT>
32

>  <SCORE.INTER.VDW>
-19.3207

>  <SCORE.INTER.norm>
0.45151

>  <SCORE.INTRA>
10.9377

>  <SCORE.INTRA.DIHEDRAL>
19.4096

>  <SCORE.INTRA.DIHEDRAL.0>
47.3121

>  <SCORE.INTRA.POLAR>
1.47808

>  <SCORE.INTRA.POLAR.0>
-1.47808

>  <SCORE.INTRA.REPUL>
0

>  <SCORE.INTRA.REPUL.0>
0

>  <SCORE.INTRA.VDW>
-3.79254

>  <SCORE.INTRA.VDW.0>
-2.78316

>  <SCORE.INTRA.norm>
0.218754

>  <SCORE.RESTR>
1.89638

>  <SCORE.RESTR.CAVITY>
1.89638

>  <SCORE.RESTR.norm>
0.0379276

>  <SCORE.SYSTEM>
0

>  <SCORE.SYSTEM.CONST>
0

>  <SCORE.SYSTEM.DIHEDRAL>
0

>  <SCORE.SYSTEM.norm>
0

>  <SCORE.heavy>
50

>  <SCORE.norm>
0.708192

$$$$
