FB1.pdb
  RxDock  10072008113D
librxdock.so/0.1.0
 59 58  0  0  0  0  0  0  0  0999 V2000
   -0.4520  -10.9201    3.5940 C   0  0  0  0  0  0
    0.1109   -9.7797    4.4391 C   0  0  0  0  0  0
    1.4412  -10.1678    5.1053 C   0  0  0  0  0  0
    1.3701  -11.4961    5.8991 C   0  0  0  0  0  0
    2.1748  -12.6866    5.2701 C   0  0  0  0  0  0
    1.7527  -13.9902    5.9864 C   0  0  0  0  0  0
    1.9894  -12.8165    3.6995 C   0  0  0  0  0  0
    2.9244  -11.8966    2.7799 C   0  0  0  0  0  0
    3.8547  -12.4249    1.6035 C   0  0  0  0  0  0
    5.1365  -13.3451    2.0849 C   0  0  0  0  0  0
    4.6044  -14.5545    2.8519 C   0  0  0  0  0  0
    6.1229  -13.8351    0.9310 C   0  0  0  0  0  0
    7.7335  -13.8912    1.0769 C   0  0  0  0  0  0
    8.6728  -12.8085    0.4430 C   0  0  0  0  0  0
    9.6568  -12.0014    1.4070 C   0  0  0  0  0  0
   11.1811  -11.7296    1.0952 C   0  0  0  0  0  0
   11.6089  -10.3581    0.5091 C   0  0  0  0  0  0
   13.0595   -9.8563    0.8741 C   0  0  0  0  0  0
   13.3375   -9.6059    2.3616 C   0  0  0  0  0  0
   14.7673   -9.1594    2.7794 C   0  0  0  0  0  0
   15.0515   -8.6718    4.2309 C   0  0  0  0  0  0
   14.9350   -7.1741    4.4776 C   0  0  0  0  0  0
   14.2474   -9.4311    5.2073 N   0  0  0  0  0  0
   15.5856  -10.3455    2.6148 O   0  0  0  0  0  0
   13.9963  -10.8263    0.3934 O   0  0  0  0  0  0
    7.9791  -13.8190    2.4915 O   0  0  0  0  0  0
    2.0435  -10.9353    2.1378 O   0  0  0  0  0  0
    2.3214   -9.6196    2.3299 C   0  0  0  0  0  0
    3.2238   -9.1665    3.0080 O   0  0  0  0  0  0
    1.3856   -8.8062    1.4790 C   0  0  0  0  0  0
    1.9428   -7.4104    1.1572 C   0  0  0  0  0  0
    1.8469   -7.0680   -0.3351 C   0  0  0  0  0  0
    2.9351   -7.7587   -1.1238 C   0  0  0  0  0  0
    3.5106   -8.7719   -0.7420 O   0  0  0  0  0  0
    3.2138   -7.1572   -2.2898 O   0  0  0  0  0  0
    1.1035   -6.4215    1.9780 C   0  0  0  0  0  0
    1.5000   -5.9094    3.0138 O   0  0  0  0  0  0
   -0.1254   -6.2016    1.4906 O   0  0  0  0  0  0
    2.0171  -14.2367    3.2727 O   0  0  0  0  0  0
    0.9482  -14.7257    2.5403 C   0  0  0  0  0  0
   -0.1085  -14.1320    2.3692 O   0  0  0  0  0  0
    1.2298  -16.1150    1.9530 C   0  0  0  0  0  0
    1.7831  -16.1343    0.4943 C   0  0  0  0  0  0
    2.6759  -14.9637    0.0437 C   0  0  0  0  0  0
    1.9888  -14.0388   -0.9191 C   0  0  0  0  0  0
    2.0973  -12.8205   -0.9390 O   0  0  0  0  0  0
    1.2264  -14.6959   -1.8065 O   0  0  0  0  0  0
    2.5038  -17.4303    0.1028 C   0  0  0  0  0  0
    3.6930  -17.4761   -0.1431 O   0  0  0  0  0  0
    1.7511  -18.5493    0.1516 O   0  0  0  0  0  0
   14.3307  -10.4267    5.0063 H   0  0  0  0  0  0
   13.2597   -9.2137    5.0566 H   0  0  0  0  0  0
   16.5045  -10.0067    2.5681 H   0  0  0  0  0  0
   13.9407  -10.8468   -0.5798 H   0  0  0  0  0  0
    7.8665  -14.7104    2.8621 H   0  0  0  0  0  0
    2.6455   -6.3947   -2.5115 H   0  0  0  0  0  0
   -0.3759   -6.7848    0.7317 H   0  0  0  0  0  0
    1.0573  -14.0751   -2.5463 H   0  0  0  0  0  0
    2.2307  -19.3863   -0.0372 H   0  0  0  0  0  0
  1  2  1  0  0  0
  2  3  1  0  0  0
  3  4  1  0  0  0
  4  5  1  0  0  0
  5  6  1  0  0  0
  5  7  1  0  0  0
  7  8  1  0  0  0
  7 39  1  0  0  0
  8  9  1  0  0  0
  8 27  1  0  0  0
  9 10  1  0  0  0
 10 11  1  0  0  0
 10 12  1  0  0  0
 12 13  1  0  0  0
 13 14  1  0  0  0
 13 26  1  0  0  0
 14 15  1  0  0  0
 15 16  1  0  0  0
 16 17  1  0  0  0
 17 18  1  0  0  0
 18 19  1  0  0  0
 18 25  1  0  0  0
 19 20  1  0  0  0
 20 21  1  0  0  0
 20 24  1  0  0  0
 21 22  1  0  0  0
 21 23  1  0  0  0
 23 51  1  0  0  0
 23 52  1  0  0  0
 24 53  1  0  0  0
 25 54  1  0  0  0
 26 55  1  0  0  0
 27 28  1  0  0  0
 28 29  2  0  0  0
 28 30  1  0  0  0
 30 31  1  0  0  0
 31 32  1  0  0  0
 31 36  1  0  0  0
 32 33  1  0  0  0
 33 34  2  0  0  0
 33 35  1  0  0  0
 35 56  1  0  0  0
 36 37  2  0  0  0
 36 38  1  0  0  0
 38 57  1  0  0  0
 39 40  1  0  0  0
 40 41  2  0  0  0
 40 42  1  0  0  0
 42 43  1  0  0  0
 43 44  1  0  0  0
 43 48  1  0  0  0
 44 45  1  0  0  0
 45 46  2  0  0  0
 45 47  1  0  0  0
 47 58  1  0  0  0
 48 49  2  0  0  0
 48 50  1  0  0  0
 50 59  1  0  0  0
M  END
>  <AUTHOR>
    GENERATED BY OPEN BABEL 2.4.1

>  <CHROM.1>
-52.26372574,110.67112355,-167.50925116,83.89924840,126.17717739,125.02402315
-67.92866797,123.12347457,58.64890926,140.29904168,-102.41810374,122.21038751
81.94339166,134.51480556,98.91265592,150.29620242,-62.51530230,177.84383561
64.69032886,170.15384809,-92.19257011,160.83306918,47.93083435,-1.40689275
-156.40391689,131.29456569,-77.72009294,102.24489196,22.81045074,-4.02868362
7.17036968,-10.57100612,-94.12618095,32.05722328,-107.62869637,-114.01716253
141.55024627,-162.26351792,-175.81342528,5.02020393,-11.56253772,1.84694945
2.93306050,0.02906675,-3.02695620

>  <COMPND>
    UNNAMED

>  <MASTER>
        0    0    0    0    0    0    0    0  109    0  109    0

>  <Name>
FB1.pdb

>  <RI>
0

>  <Rbt.Current_Directory>
/home/fc/tossine/FB1_39/p3/1_clust05

>  <Rbt.Executable>
rbdock/0.1.0

>  <Rbt.Library>
librxdock.so/0.1.0

>  <Rbt.Parameter_File>
/cluster/rxdock/data/scripts/dock.prm

>  <Rbt.Receptor>
rx_1.prm

>  <SCORE>
118.512

>  <SCORE.INTER>
87.155

>  <SCORE.INTER.CONST>
1

>  <SCORE.INTER.POLAR>
-1.80612

>  <SCORE.INTER.REPUL>
2.0182

>  <SCORE.INTER.ROT>
32

>  <SCORE.INTER.VDW>
45.8048

>  <SCORE.INTER.norm>
1.7431

>  <SCORE.INTRA>
27.8307

>  <SCORE.INTRA.DIHEDRAL>
40.342

>  <SCORE.INTRA.DIHEDRAL.0>
47.3121

>  <SCORE.INTRA.POLAR>
1.47808

>  <SCORE.INTRA.POLAR.0>
-1.47808

>  <SCORE.INTRA.REPUL>
0.0344006

>  <SCORE.INTRA.REPUL.0>
0

>  <SCORE.INTRA.VDW>
2.4623

>  <SCORE.INTRA.VDW.0>
-2.78316

>  <SCORE.INTRA.norm>
0.556615

>  <SCORE.RESTR>
3.52649

>  <SCORE.RESTR.CAVITY>
3.52649

>  <SCORE.RESTR.norm>
0.0705297

>  <SCORE.SYSTEM>
0

>  <SCORE.SYSTEM.CONST>
0

>  <SCORE.SYSTEM.DIHEDRAL>
0

>  <SCORE.SYSTEM.norm>
0

>  <SCORE.heavy>
50

>  <SCORE.norm>
2.37025

$$$$
