FB1.pdb
  RxDock  10072009233D
librxdock.so/0.1.0
 59 58  0  0  0  0  0  0  0  0999 V2000
    2.2247  -10.6386    8.2165 C   0  0  0  0  0  0
    1.3580   -9.7125    7.3664 C   0  0  0  0  0  0
    1.6065   -9.9209    5.8634 C   0  0  0  0  0  0
    0.9205   -8.8570    4.9706 C   0  0  0  0  0  0
    1.7149   -8.4686    3.6750 C   0  0  0  0  0  0
    3.2052   -8.3014    4.0511 C   0  0  0  0  0  0
    1.5420   -9.5100    2.4903 C   0  0  0  0  0  0
    2.0480   -9.0512    1.0412 C   0  0  0  0  0  0
    1.1424   -8.9791   -0.2637 C   0  0  0  0  0  0
    0.3480  -10.3746   -0.6418 C   0  0  0  0  0  0
   -0.4254  -10.8416    0.5902 C   0  0  0  0  0  0
   -0.6350  -10.3063   -1.8963 C   0  0  0  0  0  0
   -0.5621   -9.1695   -3.0457 C   0  0  0  0  0  0
    0.0419   -9.4471   -4.4649 C   0  0  0  0  0  0
   -0.1045   -8.3182   -5.5843 C   0  0  0  0  0  0
   -1.3916   -8.1126   -6.4763 C   0  0  0  0  0  0
   -2.0196   -9.3303   -7.2045 C   0  0  0  0  0  0
   -2.3906   -9.1288   -8.7247 C   0  0  0  0  0  0
   -3.0568   -7.7967   -9.0907 C   0  0  0  0  0  0
   -4.5751   -7.6272   -8.8000 C   0  0  0  0  0  0
   -5.1423   -6.2558   -8.3280 C   0  0  0  0  0  0
   -6.6099   -5.9889   -8.6316 C   0  0  0  0  0  0
   -4.8495   -6.0295   -6.8999 N   0  0  0  0  0  0
   -5.2237   -7.8842  -10.0716 O   0  0  0  0  0  0
   -1.1905   -9.2635   -9.4938 O   0  0  0  0  0  0
   -1.9301   -8.7988   -3.2860 O   0  0  0  0  0  0
    2.5603   -7.7002    1.1987 O   0  0  0  0  0  0
    3.3125   -7.2034    0.1824 C   0  0  0  0  0  0
    4.0556   -7.8397   -0.5403 O   0  0  0  0  0  0
    2.9981   -5.7409    0.0285 C   0  0  0  0  0  0
    3.7373   -4.8670    1.0543 C   0  0  0  0  0  0
    4.0313   -3.4578    0.5239 C   0  0  0  0  0  0
    5.1284   -3.4843   -0.5148 C   0  0  0  0  0  0
    6.2327   -2.9778   -0.3480 O   0  0  0  0  0  0
    4.7803   -4.1193   -1.6437 O   0  0  0  0  0  0
    2.8170   -4.7855    2.2800 C   0  0  0  0  0  0
    1.9969   -3.8943    2.4403 O   0  0  0  0  0  0
    3.0204   -5.7486    3.1894 O   0  0  0  0  0  0
    2.0735  -10.8425    2.8668 O   0  0  0  0  0  0
    1.8896  -11.8975    1.9886 C   0  0  0  0  0  0
    2.2096  -11.8840    0.8072 O   0  0  0  0  0  0
    1.2315  -13.1093    2.6615 C   0  0  0  0  0  0
    2.1609  -14.3399    2.8990 C   0  0  0  0  0  0
    1.8767  -15.6256    2.1010 C   0  0  0  0  0  0
    2.5503  -15.6441    0.7592 C   0  0  0  0  0  0
    3.7116  -15.3287    0.5393 O   0  0  0  0  0  0
    1.7366  -16.0734   -0.2175 O   0  0  0  0  0  0
    3.6594  -14.0433    2.7613 C   0  0  0  0  0  0
    4.0949  -12.9294    2.5459 O   0  0  0  0  0  0
    4.4810  -15.0865    3.0018 O   0  0  0  0  0  0
   -3.8397   -5.9956   -6.7672 H   0  0  0  0  0  0
   -5.1577   -6.8476   -6.3697 H   0  0  0  0  0  0
   -4.7283   -7.3363  -10.7164 H   0  0  0  0  0  0
   -0.6069   -8.5121   -9.2810 H   0  0  0  0  0  0
   -2.3944   -9.5757   -3.6402 H   0  0  0  0  0  0
    5.4656   -4.1388   -2.3390 H   0  0  0  0  0  0
    2.4571   -5.6736    3.9992 H   0  0  0  0  0  0
    0.8531  -16.2008    0.1881 H   0  0  0  0  0  0
    4.2767  -15.6034    3.8125 H   0  0  0  0  0  0
  1  2  1  0  0  0
  2  3  1  0  0  0
  3  4  1  0  0  0
  4  5  1  0  0  0
  5  6  1  0  0  0
  5  7  1  0  0  0
  7  8  1  0  0  0
  7 39  1  0  0  0
  8  9  1  0  0  0
  8 27  1  0  0  0
  9 10  1  0  0  0
 10 11  1  0  0  0
 10 12  1  0  0  0
 12 13  1  0  0  0
 13 14  1  0  0  0
 13 26  1  0  0  0
 14 15  1  0  0  0
 15 16  1  0  0  0
 16 17  1  0  0  0
 17 18  1  0  0  0
 18 19  1  0  0  0
 18 25  1  0  0  0
 19 20  1  0  0  0
 20 21  1  0  0  0
 20 24  1  0  0  0
 21 22  1  0  0  0
 21 23  1  0  0  0
 23 51  1  0  0  0
 23 52  1  0  0  0
 24 53  1  0  0  0
 25 54  1  0  0  0
 26 55  1  0  0  0
 27 28  1  0  0  0
 28 29  2  0  0  0
 28 30  1  0  0  0
 30 31  1  0  0  0
 31 32  1  0  0  0
 31 36  1  0  0  0
 32 33  1  0  0  0
 33 34  2  0  0  0
 33 35  1  0  0  0
 35 56  1  0  0  0
 36 37  2  0  0  0
 36 38  1  0  0  0
 38 57  1  0  0  0
 39 40  1  0  0  0
 40 41  2  0  0  0
 40 42  1  0  0  0
 42 43  1  0  0  0
 43 44  1  0  0  0
 43 48  1  0  0  0
 44 45  1  0  0  0
 45 46  2  0  0  0
 45 47  1  0  0  0
 47 58  1  0  0  0
 48 49  2  0  0  0
 48 50  1  0  0  0
 50 59  1  0  0  0
M  END
>  <AUTHOR>
    GENERATED BY OPEN BABEL 2.4.1

>  <CHROM.1>
-170.90121107,145.77444379,-43.42270901,167.22982107,-121.81944717,174.21029588
-54.40887585,165.82543184,52.56574332,19.53295302,103.77417757,172.22537363
-63.93260599,-82.68838210,-49.62300470,-133.12138184,-42.42820015,-79.29398387
-67.28621721,143.53347703,154.64099597,-48.60293148,62.40496179,-32.79972018
80.36172041,150.38948934,-72.57103433,-92.09762902,-113.14587396,179.02433144
177.31545876,53.33152908,-108.19202029,-112.74123303,86.99468175,3.24056086
45.37378256,4.81653168,-46.50180598,1.04745819,-9.13692012,-0.71927134,-0.50079575
-1.02285045,-0.30409066

>  <COMPND>
    UNNAMED

>  <MASTER>
        0    0    0    0    0    0    0    0  109    0  109    0

>  <Name>
FB1.pdb

>  <RI>
0

>  <Rbt.Current_Directory>
/home/fc/tossine/FB1_39/p3/1_clust05

>  <Rbt.Executable>
rbdock/0.1.0

>  <Rbt.Library>
librxdock.so/0.1.0

>  <Rbt.Parameter_File>
/cluster/rxdock/data/scripts/dock.prm

>  <Rbt.Receptor>
rx_3.prm

>  <SCORE>
75.0923

>  <SCORE.INTER>
25.7468

>  <SCORE.INTER.CONST>
1

>  <SCORE.INTER.POLAR>
-2.4437

>  <SCORE.INTER.REPUL>
1.72925

>  <SCORE.INTER.ROT>
32

>  <SCORE.INTER.VDW>
-11.9909

>  <SCORE.INTER.norm>
0.514935

>  <SCORE.INTRA>
40.4734

>  <SCORE.INTRA.DIHEDRAL>
51.0478

>  <SCORE.INTRA.DIHEDRAL.0>
47.3121

>  <SCORE.INTRA.POLAR>
1.47808

>  <SCORE.INTRA.POLAR.0>
-1.47808

>  <SCORE.INTRA.REPUL>
0

>  <SCORE.INTRA.REPUL.0>
0

>  <SCORE.INTRA.VDW>
9.92407

>  <SCORE.INTRA.VDW.0>
-2.78316

>  <SCORE.INTRA.norm>
0.809468

>  <SCORE.RESTR>
8.87215

>  <SCORE.RESTR.CAVITY>
8.87215

>  <SCORE.RESTR.norm>
0.177443

>  <SCORE.SYSTEM>
0

>  <SCORE.SYSTEM.CONST>
0

>  <SCORE.SYSTEM.DIHEDRAL>
0

>  <SCORE.SYSTEM.norm>
0

>  <SCORE.heavy>
50

>  <SCORE.norm>
1.50185

$$$$
