FB1.pdb
  RxDock  10072009253D
librxdock.so/0.1.0
 59 58  0  0  0  0  0  0  0  0999 V2000
    1.3906  -10.4487    9.2744 C   0  0  0  0  0  0
    2.1462   -9.7515    8.1456 C   0  0  0  0  0  0
    1.5666  -10.1086    6.7669 C   0  0  0  0  0  0
    2.2373   -9.3442    5.5983 C   0  0  0  0  0  0
    1.8522   -9.8552    4.1661 C   0  0  0  0  0  0
    0.4271   -9.3529    3.8384 C   0  0  0  0  0  0
    2.8809   -9.4180    3.0399 C   0  0  0  0  0  0
    2.8888  -10.2803    1.6899 C   0  0  0  0  0  0
    2.2024  -11.7031    1.5089 C   0  0  0  0  0  0
    3.1241  -12.9889    1.9763 C   0  0  0  0  0  0
    2.2236  -14.2186    2.0811 C   0  0  0  0  0  0
    4.3822  -13.3242    1.0547 C   0  0  0  0  0  0
    5.5681  -14.3426    1.4730 C   0  0  0  0  0  0
    6.9395  -13.8454    2.0459 C   0  0  0  0  0  0
    7.8561  -12.9213    1.1213 C   0  0  0  0  0  0
    9.3583  -12.5543    1.4429 C   0  0  0  0  0  0
   10.1922  -11.7637    0.4003 C   0  0  0  0  0  0
   11.6913  -11.4552    0.7834 C   0  0  0  0  0  0
   11.9607  -10.0897    1.4278 C   0  0  0  0  0  0
   13.2652   -9.9091    2.2548 C   0  0  0  0  0  0
   14.6544   -9.9064    1.5509 C   0  0  0  0  0  0
   15.8567   -9.5803    2.4259 C   0  0  0  0  0  0
   14.8689  -11.1621    0.8067 N   0  0  0  0  0  0
   13.1436   -8.5922    2.8504 O   0  0  0  0  0  0
   12.1372  -12.4776    1.6809 O   0  0  0  0  0  0
    5.0029  -15.1617    2.5104 O   0  0  0  0  0  0
    2.2668   -9.4487    0.6730 O   0  0  0  0  0  0
    0.9192   -9.5481    0.5344 C   0  0  0  0  0  0
    0.1643  -10.1627    1.2637 O   0  0  0  0  0  0
    0.4944   -8.6835   -0.6204 C   0  0  0  0  0  0
    0.8517   -9.3002   -1.9823 C   0  0  0  0  0  0
   -0.0090  -10.5249   -2.3178 C   0  0  0  0  0  0
    0.7889  -11.8022   -2.1947 C   0  0  0  0  0  0
    1.8362  -11.8894   -1.5628 O   0  0  0  0  0  0
    0.2404  -12.8397   -2.8439 O   0  0  0  0  0  0
    0.6185   -8.1939   -3.0204 C   0  0  0  0  0  0
    1.5272   -7.6404   -3.6207 O   0  0  0  0  0  0
   -0.6662   -7.8476   -3.1806 O   0  0  0  0  0  0
    2.7903   -7.9628    2.7676 O   0  0  0  0  0  0
    3.9641   -7.2548    2.5704 C   0  0  0  0  0  0
    5.0779   -7.6505    2.8889 O   0  0  0  0  0  0
    3.7212   -5.8972    1.8980 C   0  0  0  0  0  0
    3.0835   -5.9506    0.4750 C   0  0  0  0  0  0
    2.7442   -4.6173   -0.2162 C   0  0  0  0  0  0
    3.9625   -3.8601   -0.6600 C   0  0  0  0  0  0
    4.2858   -3.6454   -1.8201 O   0  0  0  0  0  0
    4.6874   -3.4036    0.3727 O   0  0  0  0  0  0
    3.8573   -6.8023   -0.5390 C   0  0  0  0  0  0
    3.3156   -7.5889   -1.2904 O   0  0  0  0  0  0
    5.1796   -6.5459   -0.6216 O   0  0  0  0  0  0
   15.2263  -11.8717    1.4449 H   0  0  0  0  0  0
   15.6199  -11.0156    0.1285 H   0  0  0  0  0  0
   12.5100   -8.7131    3.5889 H   0  0  0  0  0  0
   12.0793  -12.1306    2.5902 H   0  0  0  0  0  0
    5.6673  -15.8230    2.7669 H   0  0  0  0  0  0
    0.7769  -13.6554   -2.8543 H   0  0  0  0  0  0
   -1.2961   -8.3209   -2.5823 H   0  0  0  0  0  0
    4.0549   -3.0002    1.0039 H   0  0  0  0  0  0
    5.5617   -6.0610    0.1433 H   0  0  0  0  0  0
  1  2  1  0  0  0
  2  3  1  0  0  0
  3  4  1  0  0  0
  4  5  1  0  0  0
  5  6  1  0  0  0
  5  7  1  0  0  0
  7  8  1  0  0  0
  7 39  1  0  0  0
  8  9  1  0  0  0
  8 27  1  0  0  0
  9 10  1  0  0  0
 10 11  1  0  0  0
 10 12  1  0  0  0
 12 13  1  0  0  0
 13 14  1  0  0  0
 13 26  1  0  0  0
 14 15  1  0  0  0
 15 16  1  0  0  0
 16 17  1  0  0  0
 17 18  1  0  0  0
 18 19  1  0  0  0
 18 25  1  0  0  0
 19 20  1  0  0  0
 20 21  1  0  0  0
 20 24  1  0  0  0
 21 22  1  0  0  0
 21 23  1  0  0  0
 23 51  1  0  0  0
 23 52  1  0  0  0
 24 53  1  0  0  0
 25 54  1  0  0  0
 26 55  1  0  0  0
 27 28  1  0  0  0
 28 29  2  0  0  0
 28 30  1  0  0  0
 30 31  1  0  0  0
 31 32  1  0  0  0
 31 36  1  0  0  0
 32 33  1  0  0  0
 33 34  2  0  0  0
 33 35  1  0  0  0
 35 56  1  0  0  0
 36 37  2  0  0  0
 36 38  1  0  0  0
 38 57  1  0  0  0
 39 40  1  0  0  0
 40 41  2  0  0  0
 40 42  1  0  0  0
 42 43  1  0  0  0
 43 44  1  0  0  0
 43 48  1  0  0  0
 44 45  1  0  0  0
 45 46  2  0  0  0
 45 47  1  0  0  0
 47 58  1  0  0  0
 48 49  2  0  0  0
 48 50  1  0  0  0
 50 59  1  0  0  0
M  END
>  <AUTHOR>
    GENERATED BY OPEN BABEL 2.4.1

>  <CHROM.1>
175.84689579,169.92696007,75.79304256,158.93081251,-14.35248110,139.06786648
-85.31652845,-89.56536246,165.72047976,167.69263735,-99.18556491,-62.11709859
177.27399142,-168.63312292,173.95866375,-179.02526790,-94.83785569,159.39511840
-99.12450058,68.92826749,173.90045685,76.43537320,-84.26459033,7.87478886
74.61131113,70.83416026,-106.95792623,110.06825607,19.00605226,174.33830721
2.50003171,-17.13438387,-61.36566510,176.65567369,71.12873649,135.26277147
112.95515734,-45.89693008,18.25475974,4.74569508,-9.67086214,1.16508549,2.92401507
-0.01544049,-0.63123204

>  <COMPND>
    UNNAMED

>  <MASTER>
        0    0    0    0    0    0    0    0  109    0  109    0

>  <Name>
FB1.pdb

>  <RI>
0

>  <Rbt.Current_Directory>
/home/fc/tossine/FB1_39/p3/1_clust05

>  <Rbt.Executable>
rbdock/0.1.0

>  <Rbt.Library>
librxdock.so/0.1.0

>  <Rbt.Parameter_File>
/cluster/rxdock/data/scripts/dock.prm

>  <Rbt.Receptor>
rx_3.prm

>  <SCORE>
58.2604

>  <SCORE.INTER>
39.9597

>  <SCORE.INTER.CONST>
1

>  <SCORE.INTER.POLAR>
-0.828336

>  <SCORE.INTER.REPUL>
0.547475

>  <SCORE.INTER.ROT>
32

>  <SCORE.INTER.VDW>
2.63862

>  <SCORE.INTER.norm>
0.799193

>  <SCORE.INTRA>
18.2913

>  <SCORE.INTRA.DIHEDRAL>
21.0944

>  <SCORE.INTRA.DIHEDRAL.0>
47.3121

>  <SCORE.INTRA.POLAR>
1.47808

>  <SCORE.INTRA.POLAR.0>
-1.47808

>  <SCORE.INTRA.REPUL>
0

>  <SCORE.INTRA.REPUL.0>
0

>  <SCORE.INTRA.VDW>
2.71869

>  <SCORE.INTRA.VDW.0>
-2.78316

>  <SCORE.INTRA.norm>
0.365827

>  <SCORE.RESTR>
0.00938188

>  <SCORE.RESTR.CAVITY>
0.00938188

>  <SCORE.RESTR.norm>
0.000187638

>  <SCORE.SYSTEM>
0

>  <SCORE.SYSTEM.CONST>
0

>  <SCORE.SYSTEM.DIHEDRAL>
0

>  <SCORE.SYSTEM.norm>
0

>  <SCORE.heavy>
50

>  <SCORE.norm>
1.16521

$$$$
