FB1.pdb
  RxDock  10072007283D
librxdock.so/0.1.0
 59 58  0  0  0  0  0  0  0  0999 V2000
   -2.4231   -3.8790    3.9147 C   0  0  0  0  0  0
   -1.5661   -5.0012    3.3337 C   0  0  0  0  0  0
   -0.0742   -4.6295    3.3200 C   0  0  0  0  0  0
    0.8436   -5.7765    2.8282 C   0  0  0  0  0  0
    2.3706   -5.4228    2.7691 C   0  0  0  0  0  0
    2.8643   -5.1602    4.2106 C   0  0  0  0  0  0
    3.2517   -6.5369    2.0616 C   0  0  0  0  0  0
    2.7172   -8.0448    2.1428 C   0  0  0  0  0  0
    3.3711   -9.2887    1.3988 C   0  0  0  0  0  0
    2.3216  -10.4991    1.0053 C   0  0  0  0  0  0
    1.1477   -9.8929    0.2381 C   0  0  0  0  0  0
    2.9321  -11.7164    0.1745 C   0  0  0  0  0  0
    2.8343  -13.2660    0.6305 C   0  0  0  0  0  0
    4.0678  -14.2321    0.5934 C   0  0  0  0  0  0
    3.8690  -15.7338    1.0979 C   0  0  0  0  0  0
    4.9857  -16.8488    1.0313 C   0  0  0  0  0  0
    5.6869  -17.1489   -0.3198 C   0  0  0  0  0  0
    6.4896  -18.5041   -0.4124 C   0  0  0  0  0  0
    7.2113  -18.7769   -1.7380 C   0  0  0  0  0  0
    6.5383  -19.7363   -2.7602 C   0  0  0  0  0  0
    7.0948  -21.1739   -2.9813 C   0  0  0  0  0  0
    8.1438  -21.6545   -1.9883 C   0  0  0  0  0  0
    5.9955  -22.1504   -3.1010 N   0  0  0  0  0  0
    5.1929  -19.9284   -2.2533 O   0  0  0  0  0  0
    7.4566  -18.5176    0.6432 O   0  0  0  0  0  0
    2.4346  -13.2206    2.0106 O   0  0  0  0  0  0
    2.7458   -8.4109    3.5491 O   0  0  0  0  0  0
    1.5543   -8.6919    4.1377 C   0  0  0  0  0  0
    0.4576   -8.6068    3.6186 O   0  0  0  0  0  0
    1.8197   -9.2277    5.5175 C   0  0  0  0  0  0
    0.7170   -8.8503    6.5195 C   0  0  0  0  0  0
    0.6557   -9.8084    7.7160 C   0  0  0  0  0  0
    2.0157   -9.9709    8.3544 C   0  0  0  0  0  0
    2.5974   -9.0704    8.9497 O   0  0  0  0  0  0
    2.5303  -11.2010    8.2099 O   0  0  0  0  0  0
    1.0510   -7.4311    6.9996 C   0  0  0  0  0  0
    1.9614   -6.7653    6.5302 O   0  0  0  0  0  0
    0.2909   -6.9974    8.0146 O   0  0  0  0  0  0
    3.5966   -6.1450    0.6733 O   0  0  0  0  0  0
    4.5298   -5.1392    0.4849 C   0  0  0  0  0  0
    4.6111   -4.1276    1.1693 O   0  0  0  0  0  0
    5.4705   -5.4285   -0.6923 C   0  0  0  0  0  0
    4.7774   -5.8467   -2.0262 C   0  0  0  0  0  0
    3.5209   -6.7324   -1.9418 C   0  0  0  0  0  0
    2.2586   -5.9935   -2.2807 C   0  0  0  0  0  0
    1.6853   -6.0186   -3.3612 O   0  0  0  0  0  0
    1.7833   -5.2870   -1.2438 O   0  0  0  0  0  0
    4.4473   -4.6806   -2.9661 C   0  0  0  0  0  0
    4.4470   -3.5206   -2.6042 O   0  0  0  0  0  0
    4.2587   -5.0149   -4.2599 O   0  0  0  0  0  0
    5.2421  -21.7395   -3.6506 H   0  0  0  0  0  0
    5.5921  -22.3034   -2.1740 H   0  0  0  0  0  0
    5.3141  -20.4124   -1.4092 H   0  0  0  0  0  0
    8.0110  -17.7202    0.5581 H   0  0  0  0  0  0
    1.5470  -12.8272    2.0538 H   0  0  0  0  0  0
    3.3456  -11.3739    8.7187 H   0  0  0  0  0  0
    0.6063   -6.1586    8.4337 H   0  0  0  0  0  0
    2.3630   -5.4860   -0.4785 H   0  0  0  0  0  0
    4.2540   -5.9797   -4.4478 H   0  0  0  0  0  0
  1  2  1  0  0  0
  2  3  1  0  0  0
  3  4  1  0  0  0
  4  5  1  0  0  0
  5  6  1  0  0  0
  5  7  1  0  0  0
  7  8  1  0  0  0
  7 39  1  0  0  0
  8  9  1  0  0  0
  8 27  1  0  0  0
  9 10  1  0  0  0
 10 11  1  0  0  0
 10 12  1  0  0  0
 12 13  1  0  0  0
 13 14  1  0  0  0
 13 26  1  0  0  0
 14 15  1  0  0  0
 15 16  1  0  0  0
 16 17  1  0  0  0
 17 18  1  0  0  0
 18 19  1  0  0  0
 18 25  1  0  0  0
 19 20  1  0  0  0
 20 21  1  0  0  0
 20 24  1  0  0  0
 21 22  1  0  0  0
 21 23  1  0  0  0
 23 51  1  0  0  0
 23 52  1  0  0  0
 24 53  1  0  0  0
 25 54  1  0  0  0
 26 55  1  0  0  0
 27 28  1  0  0  0
 28 29  2  0  0  0
 28 30  1  0  0  0
 30 31  1  0  0  0
 31 32  1  0  0  0
 31 36  1  0  0  0
 32 33  1  0  0  0
 33 34  2  0  0  0
 33 35  1  0  0  0
 35 56  1  0  0  0
 36 37  2  0  0  0
 36 38  1  0  0  0
 38 57  1  0  0  0
 39 40  1  0  0  0
 40 41  2  0  0  0
 40 42  1  0  0  0
 42 43  1  0  0  0
 43 44  1  0  0  0
 43 48  1  0  0  0
 44 45  1  0  0  0
 45 46  2  0  0  0
 45 47  1  0  0  0
 47 58  1  0  0  0
 48 49  2  0  0  0
 48 50  1  0  0  0
 50 59  1  0  0  0
M  END
>  <AUTHOR>
    GENERATED BY OPEN BABEL 2.4.1

>  <CHROM.1>
176.05991344,178.64899004,64.90931959,-28.29787430,174.28833606,72.48255771
-150.84845742,116.55670354,52.22444130,125.03399559,-133.74323480,178.59668995
64.23760137,175.70907633,-53.61628049,-163.99675485,-178.41840117,-100.08657708
-56.07185727,-106.40720105,10.47943188,-66.14932096,39.96229891,-3.67783738
147.58976048,156.81366813,51.59419795,5.92045261,67.40911598,-171.59548298
169.37827986,-39.22668788,49.33657334,-36.66657933,107.99120649,-15.34964797
99.07479292,-4.04680078,6.48037755,3.19123049,-10.13749781,1.54446275,2.51283026
1.18694489,-0.59859470

>  <COMPND>
    UNNAMED

>  <MASTER>
        0    0    0    0    0    0    0    0  109    0  109    0

>  <Name>
FB1.pdb

>  <RI>
0

>  <Rbt.Current_Directory>
/home/fc/tossine/FB1_39/p3/1_clust05

>  <Rbt.Executable>
rbdock/0.1.0

>  <Rbt.Library>
librxdock.so/0.1.0

>  <Rbt.Parameter_File>
/cluster/rxdock/data/scripts/dock.prm

>  <Rbt.Receptor>
rx_0.prm

>  <SCORE>
33.3909

>  <SCORE.INTER>
11.5997

>  <SCORE.INTER.CONST>
1

>  <SCORE.INTER.POLAR>
-1.62123

>  <SCORE.INTER.REPUL>
0.427322

>  <SCORE.INTER.ROT>
32

>  <SCORE.INTER.VDW>
-22.4247

>  <SCORE.INTER.norm>
0.231994

>  <SCORE.INTRA>
16.6309

>  <SCORE.INTRA.DIHEDRAL>
23.6615

>  <SCORE.INTRA.DIHEDRAL.0>
47.3121

>  <SCORE.INTRA.POLAR>
0.478077

>  <SCORE.INTRA.POLAR.0>
-1.47808

>  <SCORE.INTRA.REPUL>
0

>  <SCORE.INTRA.REPUL.0>
0

>  <SCORE.INTRA.VDW>
3.17473

>  <SCORE.INTRA.VDW.0>
-2.78316

>  <SCORE.INTRA.norm>
0.332618

>  <SCORE.RESTR>
5.16024

>  <SCORE.RESTR.CAVITY>
5.16024

>  <SCORE.RESTR.norm>
0.103205

>  <SCORE.SYSTEM>
0

>  <SCORE.SYSTEM.CONST>
0

>  <SCORE.SYSTEM.DIHEDRAL>
0

>  <SCORE.SYSTEM.norm>
0

>  <SCORE.heavy>
50

>  <SCORE.norm>
0.667817

$$$$
