FB1.pdb
  RxDock  10072009493D
librxdock.so/0.1.0
 59 58  0  0  0  0  0  0  0  0999 V2000
   -3.4178   -4.4330    4.2695 C   0  0  0  0  0  0
   -2.8314   -5.8404    4.1866 C   0  0  0  0  0  0
   -1.2942   -5.8164    4.1661 C   0  0  0  0  0  0
   -0.6483   -7.0619    4.8227 C   0  0  0  0  0  0
    0.9015   -6.9642    5.0445 C   0  0  0  0  0  0
    1.2217   -7.4781    6.4671 C   0  0  0  0  0  0
    1.7478   -7.7473    3.9544 C   0  0  0  0  0  0
    0.9828   -8.8784    3.1167 C   0  0  0  0  0  0
    1.0131   -9.0222    1.5334 C   0  0  0  0  0  0
    2.4320   -9.5866    0.9094 C   0  0  0  0  0  0
    2.3244  -11.1026    0.7534 C   0  0  0  0  0  0
    2.9000   -8.9387   -0.4712 C   0  0  0  0  0  0
    1.9353   -8.7447   -1.7558 C   0  0  0  0  0  0
    2.2280   -7.6864   -2.8741 C   0  0  0  0  0  0
    1.9797   -6.1447   -2.5413 C   0  0  0  0  0  0
    0.6910   -5.5881   -1.8175 C   0  0  0  0  0  0
   -0.6247   -5.4182   -2.6223 C   0  0  0  0  0  0
   -1.3071   -6.7406   -3.1463 C   0  0  0  0  0  0
   -1.1487   -7.9834   -2.2615 C   0  0  0  0  0  0
   -1.6067   -9.3565   -2.8301 C   0  0  0  0  0  0
   -1.1611   -9.8131   -4.2508 C   0  0  0  0  0  0
   -1.7712   -9.0622   -5.4261 C   0  0  0  0  0  0
    0.3101   -9.8486   -4.3541 N   0  0  0  0  0  0
   -1.0382  -10.3372   -1.9251 O   0  0  0  0  0  0
   -2.7042   -6.4790   -3.3171 O   0  0  0  0  0  0
    1.9545  -10.0155   -2.4277 O   0  0  0  0  0  0
    1.4834  -10.1531    3.6034 O   0  0  0  0  0  0
    1.1304  -10.5134    4.8647 C   0  0  0  0  0  0
    0.1597  -10.1169    5.4811 O   0  0  0  0  0  0
    2.0878  -11.5696    5.3435 C   0  0  0  0  0  0
    2.4007  -11.4466    6.8433 C   0  0  0  0  0  0
    1.1415  -11.5262    7.7158 C   0  0  0  0  0  0
    1.4981  -11.7233    9.1709 C   0  0  0  0  0  0
    2.0266  -10.8597    9.8628 O   0  0  0  0  0  0
    1.1789  -12.9389    9.6394 O   0  0  0  0  0  0
    3.3437  -12.6115    7.1745 C   0  0  0  0  0  0
    2.9508  -13.7497    7.3808 O   0  0  0  0  0  0
    4.6356  -12.2678    7.2681 O   0  0  0  0  0  0
    2.4856   -6.8092    3.0739 O   0  0  0  0  0  0
    3.2863   -5.8446    3.6624 C   0  0  0  0  0  0
    3.8180   -5.9555    4.7594 O   0  0  0  0  0  0
    3.4425   -4.5982    2.7812 C   0  0  0  0  0  0
    3.3491   -4.8405    1.2426 C   0  0  0  0  0  0
    2.0276   -4.4907    0.5343 C   0  0  0  0  0  0
    0.8169   -4.9741    1.2793 C   0  0  0  0  0  0
    0.2581   -4.3828    2.1929 O   0  0  0  0  0  0
    0.3710   -6.1545    0.8230 O   0  0  0  0  0  0
    4.4820   -4.2052    0.4271 C   0  0  0  0  0  0
    5.2532   -3.3893    0.8923 O   0  0  0  0  0  0
    4.6395   -4.6909   -0.8221 O   0  0  0  0  0  0
    0.5791  -10.5360   -5.0566 H   0  0  0  0  0  0
    0.6907  -10.2070   -3.4754 H   0  0  0  0  0  0
   -0.1048  -10.0582   -1.8138 H   0  0  0  0  0  0
   -3.1200   -7.2780   -3.6903 H   0  0  0  0  0  0
    2.4563   -9.9115   -3.2535 H   0  0  0  0  0  0
    0.9041  -13.5871    8.9628 H   0  0  0  0  0  0
    5.2467  -13.0201    7.4670 H   0  0  0  0  0  0
   -0.3760   -6.4158    1.4019 H   0  0  0  0  0  0
    5.5134   -4.5120   -1.2349 H   0  0  0  0  0  0
  1  2  1  0  0  0
  2  3  1  0  0  0
  3  4  1  0  0  0
  4  5  1  0  0  0
  5  6  1  0  0  0
  5  7  1  0  0  0
  7  8  1  0  0  0
  7 39  1  0  0  0
  8  9  1  0  0  0
  8 27  1  0  0  0
  9 10  1  0  0  0
 10 11  1  0  0  0
 10 12  1  0  0  0
 12 13  1  0  0  0
 13 14  1  0  0  0
 13 26  1  0  0  0
 14 15  1  0  0  0
 15 16  1  0  0  0
 16 17  1  0  0  0
 17 18  1  0  0  0
 18 19  1  0  0  0
 18 25  1  0  0  0
 19 20  1  0  0  0
 20 21  1  0  0  0
 20 24  1  0  0  0
 21 22  1  0  0  0
 21 23  1  0  0  0
 23 51  1  0  0  0
 23 52  1  0  0  0
 24 53  1  0  0  0
 25 54  1  0  0  0
 26 55  1  0  0  0
 27 28  1  0  0  0
 28 29  2  0  0  0
 28 30  1  0  0  0
 30 31  1  0  0  0
 31 32  1  0  0  0
 31 36  1  0  0  0
 32 33  1  0  0  0
 33 34  2  0  0  0
 33 35  1  0  0  0
 35 56  1  0  0  0
 36 37  2  0  0  0
 36 38  1  0  0  0
 38 57  1  0  0  0
 39 40  1  0  0  0
 40 41  2  0  0  0
 40 42  1  0  0  0
 42 43  1  0  0  0
 43 44  1  0  0  0
 43 48  1  0  0  0
 44 45  1  0  0  0
 45 46  2  0  0  0
 45 47  1  0  0  0
 47 58  1  0  0  0
 48 49  2  0  0  0
 48 50  1  0  0  0
 50 59  1  0  0  0
M  END
>  <AUTHOR>
    GENERATED BY OPEN BABEL 2.4.1

>  <CHROM.1>
149.04563488,-169.92984248,135.23406395,-19.50867989,130.98580399,52.51470120
73.09319628,69.39038579,93.70410631,-47.64335610,157.54095601,-73.48511092
-109.05593933,-45.70018688,-78.14915194,66.12353924,32.86179466,-170.65585544
176.73443636,48.73690585,-70.18553722,-47.14419793,152.83492824,23.33219036
144.19362442,57.95242814,166.88690296,-81.05295296,69.74503451,9.98427022
-179.05637327,27.09027090,-29.22814791,101.41949070,-45.00884076,-12.43895102
84.66536529,176.32754240,-160.99898812,1.22694635,-8.14530475,2.03748376
-2.15770048,1.28089809,2.50681098

>  <COMPND>
    UNNAMED

>  <MASTER>
        0    0    0    0    0    0    0    0  109    0  109    0

>  <Name>
FB1.pdb

>  <RI>
0

>  <Rbt.Current_Directory>
/home/fc/tossine/FB1_39/p3/1_clust05

>  <Rbt.Executable>
rbdock/0.1.0

>  <Rbt.Library>
librxdock.so/0.1.0

>  <Rbt.Parameter_File>
/cluster/rxdock/data/scripts/dock.prm

>  <Rbt.Receptor>
rx_4.prm

>  <SCORE>
37.6751

>  <SCORE.INTER>
22.4015

>  <SCORE.INTER.CONST>
1

>  <SCORE.INTER.POLAR>
-3.37423

>  <SCORE.INTER.REPUL>
0.895983

>  <SCORE.INTER.ROT>
32

>  <SCORE.INTER.VDW>
-8.00602

>  <SCORE.INTER.norm>
0.448031

>  <SCORE.INTRA>
9.51467

>  <SCORE.INTRA.DIHEDRAL>
23.591

>  <SCORE.INTRA.DIHEDRAL.0>
47.3121

>  <SCORE.INTRA.POLAR>
0.123997

>  <SCORE.INTRA.POLAR.0>
-1.47808

>  <SCORE.INTRA.REPUL>
0

>  <SCORE.INTRA.REPUL.0>
0

>  <SCORE.INTRA.VDW>
-2.70242

>  <SCORE.INTRA.VDW.0>
-2.78316

>  <SCORE.INTRA.norm>
0.190293

>  <SCORE.RESTR>
5.75888

>  <SCORE.RESTR.CAVITY>
5.75888

>  <SCORE.RESTR.norm>
0.115178

>  <SCORE.SYSTEM>
0

>  <SCORE.SYSTEM.CONST>
0

>  <SCORE.SYSTEM.DIHEDRAL>
0

>  <SCORE.SYSTEM.norm>
0

>  <SCORE.heavy>
50

>  <SCORE.norm>
0.753502

$$$$
