FB1.pdb
  RxDock  10072008093D
librxdock.so/0.1.0
 59 58  0  0  0  0  0  0  0  0999 V2000
   11.4977  -12.8214    9.0025 C   0  0  0  0  0  0
   12.1318  -14.1068    8.4762 C   0  0  0  0  0  0
   11.9055  -14.2760    6.9648 C   0  0  0  0  0  0
   12.6505  -15.4926    6.3612 C   0  0  0  0  0  0
   11.7340  -16.5304    5.6239 C   0  0  0  0  0  0
   10.7157  -17.0897    6.6441 C   0  0  0  0  0  0
   10.9946  -15.9322    4.3538 C   0  0  0  0  0  0
   11.7393  -16.0813    2.9433 C   0  0  0  0  0  0
   12.8913  -15.1233    2.4111 C   0  0  0  0  0  0
   12.3685  -13.7667    1.6317 C   0  0  0  0  0  0
   11.5051  -12.9554    2.5963 C   0  0  0  0  0  0
   13.5021  -12.8308    1.0121 C   0  0  0  0  0  0
   14.7053  -12.1725    1.8709 C   0  0  0  0  0  0
   15.6197  -11.0346    1.3007 C   0  0  0  0  0  0
   16.2907  -11.2487   -0.1321 C   0  0  0  0  0  0
   16.3594  -12.6367   -0.8827 C   0  0  0  0  0  0
   15.1699  -13.0844   -1.7726 C   0  0  0  0  0  0
   14.7093  -12.0754   -2.8947 C   0  0  0  0  0  0
   13.7849  -12.6417   -3.9797 C   0  0  0  0  0  0
   14.4182  -13.4904   -5.1186 C   0  0  0  0  0  0
   15.5739  -12.9119   -5.9876 C   0  0  0  0  0  0
   15.3085  -11.5744   -6.6643 C   0  0  0  0  0  0
   16.8369  -12.8762   -5.2260 N   0  0  0  0  0  0
   14.9937  -14.6387   -4.4448 O   0  0  0  0  0  0
   14.0443  -10.9795   -2.2572 O   0  0  0  0  0  0
   14.0655  -11.5979    3.0230 O   0  0  0  0  0  0
   12.3411  -17.4043    2.9395 O   0  0  0  0  0  0
   12.6329  -17.9457    1.7283 C   0  0  0  0  0  0
   13.5855  -18.6560    1.4684 O   0  0  0  0  0  0
   11.5218  -17.6044    0.7742 C   0  0  0  0  0  0
   10.2720  -18.4731    0.9884 C   0  0  0  0  0  0
   10.1194  -19.5595   -0.0839 C   0  0  0  0  0  0
    8.6932  -19.6432   -0.5760 C   0  0  0  0  0  0
    7.7912  -18.9197   -0.1677 O   0  0  0  0  0  0
    8.5044  -20.5881   -1.5089 O   0  0  0  0  0  0
   10.4393  -19.1192    2.3707 C   0  0  0  0  0  0
   11.2074  -20.0445    2.5858 O   0  0  0  0  0  0
    9.6345  -18.6167    3.3171 O   0  0  0  0  0  0
    9.5860  -16.3921    4.2882 O   0  0  0  0  0  0
    8.7916  -15.9365    3.2493 C   0  0  0  0  0  0
    9.2165  -15.4954    2.1895 O   0  0  0  0  0  0
    7.2946  -16.0438    3.5687 C   0  0  0  0  0  0
    6.3265  -15.7780    2.3743 C   0  0  0  0  0  0
    4.8369  -16.1201    2.5606 C   0  0  0  0  0  0
    4.0539  -15.0061    3.1934 C   0  0  0  0  0  0
    4.4845  -14.2081    4.0146 O   0  0  0  0  0  0
    2.7904  -14.9483    2.7457 O   0  0  0  0  0  0
    6.3965  -14.3573    1.8007 C   0  0  0  0  0  0
    5.4326  -13.7877    1.3283 O   0  0  0  0  0  0
    7.5820  -13.7299    1.9502 O   0  0  0  0  0  0
   17.1368  -13.8305   -5.0315 H   0  0  0  0  0  0
   16.6531  -12.4654   -4.3079 H   0  0  0  0  0  0
   15.3059  -15.2196   -5.1704 H   0  0  0  0  0  0
   13.8562  -10.3029   -2.9335 H   0  0  0  0  0  0
   14.7228  -11.5453    3.7370 H   0  0  0  0  0  0
    7.6815  -20.5027   -2.0278 H   0  0  0  0  0  0
    9.6460  -19.1146    4.1719 H   0  0  0  0  0  0
    2.7200  -15.6005    2.0170 H   0  0  0  0  0  0
    7.5803  -12.7717    1.7310 H   0  0  0  0  0  0
  1  2  1  0  0  0
  2  3  1  0  0  0
  3  4  1  0  0  0
  4  5  1  0  0  0
  5  6  1  0  0  0
  5  7  1  0  0  0
  7  8  1  0  0  0
  7 39  1  0  0  0
  8  9  1  0  0  0
  8 27  1  0  0  0
  9 10  1  0  0  0
 10 11  1  0  0  0
 10 12  1  0  0  0
 12 13  1  0  0  0
 13 14  1  0  0  0
 13 26  1  0  0  0
 14 15  1  0  0  0
 15 16  1  0  0  0
 16 17  1  0  0  0
 17 18  1  0  0  0
 18 19  1  0  0  0
 18 25  1  0  0  0
 19 20  1  0  0  0
 20 21  1  0  0  0
 20 24  1  0  0  0
 21 22  1  0  0  0
 21 23  1  0  0  0
 23 51  1  0  0  0
 23 52  1  0  0  0
 24 53  1  0  0  0
 25 54  1  0  0  0
 26 55  1  0  0  0
 27 28  1  0  0  0
 28 29  2  0  0  0
 28 30  1  0  0  0
 30 31  1  0  0  0
 31 32  1  0  0  0
 31 36  1  0  0  0
 32 33  1  0  0  0
 33 34  2  0  0  0
 33 35  1  0  0  0
 35 56  1  0  0  0
 36 37  2  0  0  0
 36 38  1  0  0  0
 38 57  1  0  0  0
 39 40  1  0  0  0
 40 41  2  0  0  0
 40 42  1  0  0  0
 42 43  1  0  0  0
 43 44  1  0  0  0
 43 48  1  0  0  0
 44 45  1  0  0  0
 45 46  2  0  0  0
 45 47  1  0  0  0
 47 58  1  0  0  0
 48 49  2  0  0  0
 48 50  1  0  0  0
 50 59  1  0  0  0
M  END
>  <AUTHOR>
    GENERATED BY OPEN BABEL 2.4.1

>  <CHROM.1>
174.24422467,122.97972097,-60.62975974,91.61245493,-81.86135258,178.72101929
-85.97864989,158.34662080,59.52744072,-57.52046403,-167.09021935,-50.50536886
155.34981307,-13.83283715,86.32886800,54.03471792,165.46957618,-78.52158418
173.10808733,-55.40599679,-54.20646683,174.03885624,66.44863797,144.90599739
-77.11920842,-104.18124537,-135.55918736,-74.98962340,0.60922471,-163.06484033
171.64565865,21.30543547,-170.23358906,168.99807602,86.04148261,-147.46960041
-32.29172044,-6.73672752,-169.48951787,11.16152287,-15.16078080,1.42136657
-2.52406433,-0.53825368,-1.70599392

>  <COMPND>
    UNNAMED

>  <MASTER>
        0    0    0    0    0    0    0    0  109    0  109    0

>  <Name>
FB1.pdb

>  <RI>
0

>  <Rbt.Current_Directory>
/home/fc/tossine/FB1_39/p3/1_clust05

>  <Rbt.Executable>
rbdock/0.1.0

>  <Rbt.Library>
librxdock.so/0.1.0

>  <Rbt.Parameter_File>
/cluster/rxdock/data/scripts/dock.prm

>  <Rbt.Receptor>
rx_1.prm

>  <SCORE>
43.7055

>  <SCORE.INTER>
18.2688

>  <SCORE.INTER.CONST>
1

>  <SCORE.INTER.POLAR>
-0.160645

>  <SCORE.INTER.REPUL>
0.538881

>  <SCORE.INTER.ROT>
32

>  <SCORE.INTER.VDW>
-21.2794

>  <SCORE.INTER.norm>
0.365376

>  <SCORE.INTRA>
23.3869

>  <SCORE.INTRA.DIHEDRAL>
20.3791

>  <SCORE.INTRA.DIHEDRAL.0>
47.3121

>  <SCORE.INTRA.POLAR>
1.47808

>  <SCORE.INTRA.POLAR.0>
-1.47808

>  <SCORE.INTRA.REPUL>
0

>  <SCORE.INTRA.REPUL.0>
0

>  <SCORE.INTRA.VDW>
8.17192

>  <SCORE.INTRA.VDW.0>
-2.78316

>  <SCORE.INTRA.norm>
0.467739

>  <SCORE.RESTR>
2.04976

>  <SCORE.RESTR.CAVITY>
2.04976

>  <SCORE.RESTR.norm>
0.0409953

>  <SCORE.SYSTEM>
0

>  <SCORE.SYSTEM.CONST>
0

>  <SCORE.SYSTEM.DIHEDRAL>
0

>  <SCORE.SYSTEM.norm>
0

>  <SCORE.heavy>
50

>  <SCORE.norm>
0.87411

$$$$
