FB1.pdb
  RxDock  10072009463D
librxdock.so/0.1.0
 59 58  0  0  0  0  0  0  0  0999 V2000
    5.5081   -2.9006    0.4993 C   0  0  0  0  0  0
    5.9524   -4.1566   -0.2466 C   0  0  0  0  0  0
    4.7758   -5.1129   -0.5025 C   0  0  0  0  0  0
    4.3704   -5.9404    0.7427 C   0  0  0  0  0  0
    3.4301   -7.1609    0.4486 C   0  0  0  0  0  0
    4.2426   -8.2242   -0.3259 C   0  0  0  0  0  0
    2.7762   -7.7853    1.7526 C   0  0  0  0  0  0
    1.6153   -8.8675    1.5354 C   0  0  0  0  0  0
    0.5242   -9.2692    2.6200 C   0  0  0  0  0  0
    1.1221   -9.9778    3.9844 C   0  0  0  0  0  0
    0.0392   -9.9464    5.0617 C   0  0  0  0  0  0
    1.6707  -11.4668    3.8208 C   0  0  0  0  0  0
    2.9001  -11.8798    2.8531 C   0  0  0  0  0  0
    3.3646  -13.3657    2.6724 C   0  0  0  0  0  0
    2.2469  -14.5003    2.5602 C   0  0  0  0  0  0
    2.4827  -15.9184    1.9062 C   0  0  0  0  0  0
    1.6308  -16.3473    0.6824 C   0  0  0  0  0  0
    2.1643  -15.9103   -0.7366 C   0  0  0  0  0  0
    1.5951  -14.6037   -1.3036 C   0  0  0  0  0  0
    2.5612  -13.4001   -1.4943 C   0  0  0  0  0  0
    2.0336  -12.0411   -2.0422 C   0  0  0  0  0  0
    0.5366  -11.9510   -2.3031 C   0  0  0  0  0  0
    2.4901  -10.9211   -1.1974 N   0  0  0  0  0  0
    3.0472  -13.1038   -0.1602 O   0  0  0  0  0  0
    3.5884  -15.7882   -0.6547 O   0  0  0  0  0  0
    2.4984  -11.4502    1.5413 O   0  0  0  0  0  0
    0.8382   -8.4068    0.3968 O   0  0  0  0  0  0
    0.0704   -9.3291   -0.2397 C   0  0  0  0  0  0
   -0.2839  -10.4030    0.2083 O   0  0  0  0  0  0
   -0.3595   -8.7589   -1.5631 C   0  0  0  0  0  0
    0.1913   -7.3442   -1.8033 C   0  0  0  0  0  0
    0.7331   -7.1572   -3.2263 C   0  0  0  0  0  0
    2.0260   -7.9146   -3.4212 C   0  0  0  0  0  0
    2.1771   -9.0905   -3.1080 O   0  0  0  0  0  0
    2.9996   -7.1764   -3.9744 O   0  0  0  0  0  0
   -0.9833   -6.3870   -1.5585 C   0  0  0  0  0  0
   -0.9840   -5.5448   -0.6735 O   0  0  0  0  0  0
   -2.0343   -6.5831   -2.3665 O   0  0  0  0  0  0
    3.8156   -8.2687    2.6939 O   0  0  0  0  0  0
    4.4941   -7.3369    3.4617 C   0  0  0  0  0  0
    5.6289   -7.4860    3.8957 O   0  0  0  0  0  0
    3.6618   -6.0734    3.7170 C   0  0  0  0  0  0
    3.0551   -5.9398    5.1483 C   0  0  0  0  0  0
    3.0729   -4.5521    5.8149 C   0  0  0  0  0  0
    4.4022   -3.8634    5.7003 C   0  0  0  0  0  0
    5.4547   -4.3938    5.3723 O   0  0  0  0  0  0
    4.3279   -2.5540    5.9835 O   0  0  0  0  0  0
    1.6317   -6.4928    5.2916 C   0  0  0  0  0  0
    0.6969   -6.0898    4.6281 O   0  0  0  0  0  0
    1.4988   -7.5395    6.1331 O   0  0  0  0  0  0
    1.9377  -10.9018   -0.3413 H   0  0  0  0  0  0
    2.2703  -10.0428   -1.6726 H   0  0  0  0  0  0
    3.5258  -13.9146    0.1136 H   0  0  0  0  0  0
    3.9608  -16.6744   -0.4915 H   0  0  0  0  0  0
    2.0862  -12.2061    1.0904 H   0  0  0  0  0  0
    3.8507   -7.6377   -4.1021 H   0  0  0  0  0  0
   -2.0224   -7.4445   -2.8529 H   0  0  0  0  0  0
    4.3157   -2.0807    5.1249 H   0  0  0  0  0  0
    2.3277   -7.8322    6.5730 H   0  0  0  0  0  0
  1  2  1  0  0  0
  2  3  1  0  0  0
  3  4  1  0  0  0
  4  5  1  0  0  0
  5  6  1  0  0  0
  5  7  1  0  0  0
  7  8  1  0  0  0
  7 39  1  0  0  0
  8  9  1  0  0  0
  8 27  1  0  0  0
  9 10  1  0  0  0
 10 11  1  0  0  0
 10 12  1  0  0  0
 12 13  1  0  0  0
 13 14  1  0  0  0
 13 26  1  0  0  0
 14 15  1  0  0  0
 15 16  1  0  0  0
 16 17  1  0  0  0
 17 18  1  0  0  0
 18 19  1  0  0  0
 18 25  1  0  0  0
 19 20  1  0  0  0
 20 21  1  0  0  0
 20 24  1  0  0  0
 21 22  1  0  0  0
 21 23  1  0  0  0
 23 51  1  0  0  0
 23 52  1  0  0  0
 24 53  1  0  0  0
 25 54  1  0  0  0
 26 55  1  0  0  0
 27 28  1  0  0  0
 28 29  2  0  0  0
 28 30  1  0  0  0
 30 31  1  0  0  0
 31 32  1  0  0  0
 31 36  1  0  0  0
 32 33  1  0  0  0
 33 34  2  0  0  0
 33 35  1  0  0  0
 35 56  1  0  0  0
 36 37  2  0  0  0
 36 38  1  0  0  0
 38 57  1  0  0  0
 39 40  1  0  0  0
 40 41  2  0  0  0
 40 42  1  0  0  0
 42 43  1  0  0  0
 43 44  1  0  0  0
 43 48  1  0  0  0
 44 45  1  0  0  0
 45 46  2  0  0  0
 45 47  1  0  0  0
 47 58  1  0  0  0
 48 49  2  0  0  0
 48 50  1  0  0  0
 50 59  1  0  0  0
M  END
>  <AUTHOR>
    GENERATED BY OPEN BABEL 2.4.1

>  <CHROM.1>
-78.00593422,-165.68335672,69.22785484,169.89959040,-159.30641672,77.12308650
-63.66312319,160.20962235,164.49385231,61.30515948,-177.12744035,40.77686208
-94.63241301,158.34182991,-119.93513692,86.59865766,-94.41989663,114.29182741
65.87472509,-178.91102735,2.98338737,62.33054601,-76.09415115,18.51195585
0.46043409,136.08628596,-71.52114197,117.42934960,48.98790366,179.28202693
14.73534682,-152.85143063,104.63089355,139.42317420,-46.57818918,-58.47689685
-14.25294356,-100.90757173,0.57039226,2.31380686,-8.93259924,1.15553694,0.82052206
-1.30351451,-0.29113066

>  <COMPND>
    UNNAMED

>  <MASTER>
        0    0    0    0    0    0    0    0  109    0  109    0

>  <Name>
FB1.pdb

>  <RI>
0

>  <Rbt.Current_Directory>
/home/fc/tossine/FB1_39/p3/1_clust05

>  <Rbt.Executable>
rbdock/0.1.0

>  <Rbt.Library>
librxdock.so/0.1.0

>  <Rbt.Parameter_File>
/cluster/rxdock/data/scripts/dock.prm

>  <Rbt.Receptor>
rx_4.prm

>  <SCORE>
56.2474

>  <SCORE.INTER>
29.8251

>  <SCORE.INTER.CONST>
1

>  <SCORE.INTER.POLAR>
-0.775367

>  <SCORE.INTER.REPUL>
0.90376

>  <SCORE.INTER.ROT>
32

>  <SCORE.INTER.VDW>
-9.45747

>  <SCORE.INTER.norm>
0.596502

>  <SCORE.INTRA>
22.6388

>  <SCORE.INTRA.DIHEDRAL>
47.3093

>  <SCORE.INTRA.DIHEDRAL.0>
47.3121

>  <SCORE.INTRA.POLAR>
-0.655458

>  <SCORE.INTRA.POLAR.0>
-1.47808

>  <SCORE.INTRA.REPUL>
0.0264926

>  <SCORE.INTRA.REPUL.0>
0

>  <SCORE.INTRA.VDW>
1.08029

>  <SCORE.INTRA.VDW.0>
-2.78316

>  <SCORE.INTRA.norm>
0.452777

>  <SCORE.RESTR>
3.78348

>  <SCORE.RESTR.CAVITY>
3.78348

>  <SCORE.RESTR.norm>
0.0756697

>  <SCORE.SYSTEM>
0

>  <SCORE.SYSTEM.CONST>
0

>  <SCORE.SYSTEM.DIHEDRAL>
0

>  <SCORE.SYSTEM.norm>
0

>  <SCORE.heavy>
50

>  <SCORE.norm>
1.12495

$$$$
