FB1.pdb
  RxDock  10072008453D
librxdock.so/0.1.0
 59 58  0  0  0  0  0  0  0  0999 V2000
   -0.5119   -5.7269    1.9299 C   0  0  0  0  0  0
    0.4932   -6.2356    2.9606 C   0  0  0  0  0  0
    0.7207   -7.7510    2.8342 C   0  0  0  0  0  0
    2.0160   -8.2410    3.5284 C   0  0  0  0  0  0
    2.1988   -9.7985    3.5642 C   0  0  0  0  0  0
    1.2638  -10.3722    4.6538 C   0  0  0  0  0  0
    1.9365  -10.4992    2.1649 C   0  0  0  0  0  0
    2.4771   -9.7414    0.8612 C   0  0  0  0  0  0
    1.5702   -8.9588   -0.1844 C   0  0  0  0  0  0
    0.6413   -9.9139   -1.1572 C   0  0  0  0  0  0
   -0.4230  -10.5930   -0.2969 C   0  0  0  0  0  0
   -0.0547   -9.1893   -2.3963 C   0  0  0  0  0  0
    0.7358   -8.2829   -3.4788 C   0  0  0  0  0  0
    0.2165   -6.8768   -3.9365 C   0  0  0  0  0  0
    0.7784   -6.2697   -5.3022 C   0  0  0  0  0  0
    2.2967   -5.9199   -5.5610 C   0  0  0  0  0  0
    2.7705   -5.5895   -7.0010 C   0  0  0  0  0  0
    4.3132   -5.3200   -7.1918 C   0  0  0  0  0  0
    4.8524   -5.4418   -8.6225 C   0  0  0  0  0  0
    4.5567   -4.2882   -9.6226 C   0  0  0  0  0  0
    5.5874   -3.1399   -9.8335 C   0  0  0  0  0  0
    5.8677   -2.2516   -8.6294 C   0  0  0  0  0  0
    6.8425   -3.6595  -10.4091 N   0  0  0  0  0  0
    4.4508   -4.9396  -10.9143 O   0  0  0  0  0  0
    4.5940   -4.0010   -6.7108 O   0  0  0  0  0  0
    2.0204   -8.0330   -2.8839 O   0  0  0  0  0  0
    3.4233   -8.7444    1.3337 O   0  0  0  0  0  0
    4.2234   -8.1630    0.4025 C   0  0  0  0  0  0
    4.6970   -8.7046   -0.5782 O   0  0  0  0  0  0
    4.3481   -6.7003    0.7286 C   0  0  0  0  0  0
    3.4572   -5.8190   -0.1614 C   0  0  0  0  0  0
    2.4356   -5.0089    0.6469 C   0  0  0  0  0  0
    3.0735   -3.7840    1.2601 C   0  0  0  0  0  0
    4.0215   -3.8297    2.0366 O   0  0  0  0  0  0
    2.5035   -2.6336    0.8720 O   0  0  0  0  0  0
    4.4091   -4.8717   -0.9047 C   0  0  0  0  0  0
    4.3014   -4.6163   -2.0945 O   0  0  0  0  0  0
    5.4032   -4.3828   -0.1505 O   0  0  0  0  0  0
    2.3540  -11.9221    2.1920 O   0  0  0  0  0  0
    2.2127  -12.6726    1.0366 C   0  0  0  0  0  0
    1.9678  -12.2087   -0.0694 O   0  0  0  0  0  0
    2.3990  -14.1745    1.2894 C   0  0  0  0  0  0
    3.1023  -14.9715    0.1473 C   0  0  0  0  0  0
    4.4682  -15.6148    0.4491 C   0  0  0  0  0  0
    4.4585  -16.4556    1.6930 C   0  0  0  0  0  0
    4.4295  -16.0321    2.8404 O   0  0  0  0  0  0
    4.4660  -17.7701    1.4240 O   0  0  0  0  0  0
    2.2298  -16.0484   -0.5096 C   0  0  0  0  0  0
    2.3138  -17.2278   -0.2293 O   0  0  0  0  0  0
    1.2786  -15.5901   -1.3501 O   0  0  0  0  0  0
    7.4519   -2.8769  -10.6428 H   0  0  0  0  0  0
    6.6311   -4.1054  -11.3046 H   0  0  0  0  0  0
    3.6630   -5.5179  -10.8351 H   0  0  0  0  0  0
    5.5603   -3.9100   -6.6192 H   0  0  0  0  0  0
    2.5706   -7.5719   -3.5390 H   0  0  0  0  0  0
    1.7625   -2.7273    0.2430 H   0  0  0  0  0  0
    6.0900   -3.8790   -0.6538 H   0  0  0  0  0  0
    4.5612  -18.2326    2.2833 H   0  0  0  0  0  0
    1.5461  -14.8292   -1.9118 H   0  0  0  0  0  0
  1  2  1  0  0  0
  2  3  1  0  0  0
  3  4  1  0  0  0
  4  5  1  0  0  0
  5  6  1  0  0  0
  5  7  1  0  0  0
  7  8  1  0  0  0
  7 39  1  0  0  0
  8  9  1  0  0  0
  8 27  1  0  0  0
  9 10  1  0  0  0
 10 11  1  0  0  0
 10 12  1  0  0  0
 12 13  1  0  0  0
 13 14  1  0  0  0
 13 26  1  0  0  0
 14 15  1  0  0  0
 15 16  1  0  0  0
 16 17  1  0  0  0
 17 18  1  0  0  0
 18 19  1  0  0  0
 18 25  1  0  0  0
 19 20  1  0  0  0
 20 21  1  0  0  0
 20 24  1  0  0  0
 21 22  1  0  0  0
 21 23  1  0  0  0
 23 51  1  0  0  0
 23 52  1  0  0  0
 24 53  1  0  0  0
 25 54  1  0  0  0
 26 55  1  0  0  0
 27 28  1  0  0  0
 28 29  2  0  0  0
 28 30  1  0  0  0
 30 31  1  0  0  0
 31 32  1  0  0  0
 31 36  1  0  0  0
 32 33  1  0  0  0
 33 34  2  0  0  0
 33 35  1  0  0  0
 35 56  1  0  0  0
 36 37  2  0  0  0
 36 38  1  0  0  0
 38 57  1  0  0  0
 39 40  1  0  0  0
 40 41  2  0  0  0
 40 42  1  0  0  0
 42 43  1  0  0  0
 43 44  1  0  0  0
 43 48  1  0  0  0
 44 45  1  0  0  0
 45 46  2  0  0  0
 45 47  1  0  0  0
 47 58  1  0  0  0
 48 49  2  0  0  0
 48 50  1  0  0  0
 50 59  1  0  0  0
M  END
>  <AUTHOR>
    GENERATED BY OPEN BABEL 2.4.1

>  <CHROM.1>
162.09812048,173.27961281,-76.22897410,39.61572218,-105.60895325,-178.88104635
-72.07431779,166.61313531,67.66800880,52.53250910,-133.18175237,-161.03931184
173.89742976,-62.24953403,168.53955667,-177.08770126,160.97474753,75.96183064
166.17948760,94.49611885,-64.09478271,64.68062437,173.05905686,-35.79704967
-101.82179626,119.92100427,79.74624015,136.55635032,-58.97956729,-0.56767236
171.61342760,12.16032669,-144.27584473,115.71181594,51.41350250,-99.97244791
-73.71713031,173.74707167,38.75152808,2.91063494,-8.56218464,-1.42307980
2.29534784,-1.36239230,3.11947289

>  <COMPND>
    UNNAMED

>  <MASTER>
        0    0    0    0    0    0    0    0  109    0  109    0

>  <Name>
FB1.pdb

>  <RI>
0

>  <Rbt.Current_Directory>
/home/fc/tossine/FB1_39/p3/1_clust05

>  <Rbt.Executable>
rbdock/0.1.0

>  <Rbt.Library>
librxdock.so/0.1.0

>  <Rbt.Parameter_File>
/cluster/rxdock/data/scripts/dock.prm

>  <Rbt.Receptor>
rx_2.prm

>  <SCORE>
28.6574

>  <SCORE.INTER>
5.01916

>  <SCORE.INTER.CONST>
1

>  <SCORE.INTER.POLAR>
-2.32753

>  <SCORE.INTER.REPUL>
0.402481

>  <SCORE.INTER.ROT>
32

>  <SCORE.INTER.VDW>
-26.4796

>  <SCORE.INTER.norm>
0.100383

>  <SCORE.INTRA>
16.7087

>  <SCORE.INTRA.DIHEDRAL>
22.2685

>  <SCORE.INTRA.DIHEDRAL.0>
47.3121

>  <SCORE.INTRA.POLAR>
1.46652

>  <SCORE.INTRA.POLAR.0>
-1.47808

>  <SCORE.INTRA.REPUL>
0

>  <SCORE.INTRA.REPUL.0>
0

>  <SCORE.INTRA.VDW>
0.588266

>  <SCORE.INTRA.VDW.0>
-2.78316

>  <SCORE.INTRA.norm>
0.334173

>  <SCORE.RESTR>
6.92962

>  <SCORE.RESTR.CAVITY>
6.92962

>  <SCORE.RESTR.norm>
0.138592

>  <SCORE.SYSTEM>
0

>  <SCORE.SYSTEM.CONST>
0

>  <SCORE.SYSTEM.DIHEDRAL>
0

>  <SCORE.SYSTEM.norm>
0

>  <SCORE.heavy>
50

>  <SCORE.norm>
0.573149

$$$$
