FB1.pdb
  RxDock  10072007303D
librxdock.so/0.1.0
 59 58  0  0  0  0  0  0  0  0999 V2000
   -1.0188  -13.8308    3.0954 C   0  0  0  0  0  0
   -0.6899  -12.5719    3.8943 C   0  0  0  0  0  0
   -0.9583  -11.2949    3.0809 C   0  0  0  0  0  0
    0.0848  -11.0439    1.9635 C   0  0  0  0  0  0
    0.8768   -9.6957    2.0885 C   0  0  0  0  0  0
    1.3401   -9.5391    3.5553 C   0  0  0  0  0  0
    2.1059   -9.5885    1.0907 C   0  0  0  0  0  0
    1.9250  -10.2497   -0.3572 C   0  0  0  0  0  0
    1.8771  -11.8118   -0.6501 C   0  0  0  0  0  0
    3.0581  -12.6980    0.0856 C   0  0  0  0  0  0
    3.2408  -12.1753    1.5095 C   0  0  0  0  0  0
    2.8339  -14.2770    0.1201 C   0  0  0  0  0  0
    3.9304  -15.3379    0.6592 C   0  0  0  0  0  0
    5.4687  -15.0386    0.6411 C   0  0  0  0  0  0
    5.9862  -13.6913    1.3239 C   0  0  0  0  0  0
    7.4497  -13.1194    1.1640 C   0  0  0  0  0  0
    8.5894  -13.6742    2.0589 C   0  0  0  0  0  0
    9.9736  -12.9206    1.9865 C   0  0  0  0  0  0
   11.2293  -13.7935    2.1043 C   0  0  0  0  0  0
   11.6287  -14.3248    3.5102 C   0  0  0  0  0  0
   12.6857  -15.4591    3.6566 C   0  0  0  0  0  0
   12.7215  -16.1833    4.9951 C   0  0  0  0  0  0
   12.5849  -16.4186    2.5405 N   0  0  0  0  0  0
   12.2108  -13.1799    4.1841 O   0  0  0  0  0  0
   10.0267  -12.2129    0.7432 O   0  0  0  0  0  0
    3.6030  -15.5358    2.0449 O   0  0  0  0  0  0
    0.6651   -9.7470   -0.8790 O   0  0  0  0  0  0
    0.6824   -9.2195   -2.1307 C   0  0  0  0  0  0
    0.0345   -9.6077   -3.0840 O   0  0  0  0  0  0
    1.5653   -8.0021   -2.1220 C   0  0  0  0  0  0
    1.6287   -7.3091   -3.4925 C   0  0  0  0  0  0
    0.2383   -6.9766   -4.0489 C   0  0  0  0  0  0
   -0.5885   -6.2215   -3.0342 C   0  0  0  0  0  0
   -0.1439   -5.8097   -1.9682 O   0  0  0  0  0  0
   -1.8629   -6.0408   -3.4114 O   0  0  0  0  0  0
    2.4303   -6.0182   -3.2756 C   0  0  0  0  0  0
    2.3118   -5.3186   -2.2812 O   0  0  0  0  0  0
    3.2393   -5.6920   -4.2931 O   0  0  0  0  0  0
    2.6059   -8.1947    1.0049 O   0  0  0  0  0  0
    3.8377   -7.9717    0.4125 C   0  0  0  0  0  0
    4.4136   -8.7678   -0.3175 O   0  0  0  0  0  0
    4.4177   -6.5972    0.7712 C   0  0  0  0  0  0
    4.3945   -5.5334   -0.3701 C   0  0  0  0  0  0
    4.3764   -4.0462    0.0277 C   0  0  0  0  0  0
    3.4814   -3.7633    1.1996 C   0  0  0  0  0  0
    3.8405   -3.6688    2.3652 O   0  0  0  0  0  0
    2.1998   -3.5976    0.8384 O   0  0  0  0  0  0
    5.4936   -5.7066   -1.4256 C   0  0  0  0  0  0
    5.2584   -5.8040   -2.6139 O   0  0  0  0  0  0
    6.7589   -5.6369   -0.9614 O   0  0  0  0  0  0
   11.7656  -17.0083    2.6799 H   0  0  0  0  0  0
   13.3811  -17.0585    2.5869 H   0  0  0  0  0  0
   12.9226  -12.8752    3.5826 H   0  0  0  0  0  0
   10.9171  -11.8265    0.6509 H   0  0  0  0  0  0
    2.7378  -15.9762    2.0895 H   0  0  0  0  0  0
   -2.0710   -6.3205   -4.3235 H   0  0  0  0  0  0
    3.1679   -6.2867   -5.0805 H   0  0  0  0  0  0
    2.1656   -3.7072   -0.1353 H   0  0  0  0  0  0
    6.8441   -5.5588    0.0147 H   0  0  0  0  0  0
  1  2  1  0  0  0
  2  3  1  0  0  0
  3  4  1  0  0  0
  4  5  1  0  0  0
  5  6  1  0  0  0
  5  7  1  0  0  0
  7  8  1  0  0  0
  7 39  1  0  0  0
  8  9  1  0  0  0
  8 27  1  0  0  0
  9 10  1  0  0  0
 10 11  1  0  0  0
 10 12  1  0  0  0
 12 13  1  0  0  0
 13 14  1  0  0  0
 13 26  1  0  0  0
 14 15  1  0  0  0
 15 16  1  0  0  0
 16 17  1  0  0  0
 17 18  1  0  0  0
 18 19  1  0  0  0
 18 25  1  0  0  0
 19 20  1  0  0  0
 20 21  1  0  0  0
 20 24  1  0  0  0
 21 22  1  0  0  0
 21 23  1  0  0  0
 23 51  1  0  0  0
 23 52  1  0  0  0
 24 53  1  0  0  0
 25 54  1  0  0  0
 26 55  1  0  0  0
 27 28  1  0  0  0
 28 29  2  0  0  0
 28 30  1  0  0  0
 30 31  1  0  0  0
 31 32  1  0  0  0
 31 36  1  0  0  0
 32 33  1  0  0  0
 33 34  2  0  0  0
 33 35  1  0  0  0
 35 56  1  0  0  0
 36 37  2  0  0  0
 36 38  1  0  0  0
 38 57  1  0  0  0
 39 40  1  0  0  0
 40 41  2  0  0  0
 40 42  1  0  0  0
 42 43  1  0  0  0
 43 44  1  0  0  0
 43 48  1  0  0  0
 44 45  1  0  0  0
 45 46  2  0  0  0
 45 47  1  0  0  0
 47 58  1  0  0  0
 48 49  2  0  0  0
 48 50  1  0  0  0
 50 59  1  0  0  0
M  END
>  <AUTHOR>
    GENERATED BY OPEN BABEL 2.4.1

>  <CHROM.1>
-73.18683813,-119.96319275,45.94697320,35.60241302,-71.23117314,166.34782846
-46.89226429,129.49753617,41.21219898,173.72158976,-26.04418295,53.17877159
66.22712141,-168.41209860,-82.46546316,-171.73465149,-144.28219746,-76.12154580
-173.88767232,166.20680124,-162.93974150,-54.91630009,-75.02683423,120.46308437
-178.75794874,53.59165320,51.64545380,-39.48865476,7.31919072,-6.81895876
4.28226185,17.78379501,-107.04866427,154.42064741,-40.59110453,124.96087826
96.87204251,0.05521768,4.96698700,4.10871560,-9.88205426,0.35804394,2.33338039
-0.12575461,-0.36670011

>  <COMPND>
    UNNAMED

>  <MASTER>
        0    0    0    0    0    0    0    0  109    0  109    0

>  <Name>
FB1.pdb

>  <RI>
0

>  <Rbt.Current_Directory>
/home/fc/tossine/FB1_39/p3/1_clust05

>  <Rbt.Executable>
rbdock/0.1.0

>  <Rbt.Library>
librxdock.so/0.1.0

>  <Rbt.Parameter_File>
/cluster/rxdock/data/scripts/dock.prm

>  <Rbt.Receptor>
rx_0.prm

>  <SCORE>
46.3062

>  <SCORE.INTER>
15.9789

>  <SCORE.INTER.CONST>
1

>  <SCORE.INTER.POLAR>
-1.43575

>  <SCORE.INTER.REPUL>
0.438147

>  <SCORE.INTER.ROT>
32

>  <SCORE.INTER.VDW>
-18.7303

>  <SCORE.INTER.norm>
0.319578

>  <SCORE.INTRA>
24.2697

>  <SCORE.INTRA.DIHEDRAL>
22.325

>  <SCORE.INTRA.DIHEDRAL.0>
47.3121

>  <SCORE.INTRA.POLAR>
1.47808

>  <SCORE.INTRA.POLAR.0>
-1.47808

>  <SCORE.INTRA.REPUL>
0

>  <SCORE.INTRA.REPUL.0>
0

>  <SCORE.INTRA.VDW>
8.08172

>  <SCORE.INTRA.VDW.0>
-2.78316

>  <SCORE.INTRA.norm>
0.485393

>  <SCORE.RESTR>
6.05759

>  <SCORE.RESTR.CAVITY>
6.05759

>  <SCORE.RESTR.norm>
0.121152

>  <SCORE.SYSTEM>
0

>  <SCORE.SYSTEM.CONST>
0

>  <SCORE.SYSTEM.DIHEDRAL>
0

>  <SCORE.SYSTEM.norm>
0

>  <SCORE.heavy>
50

>  <SCORE.norm>
0.926123

$$$$
