FB1.pdb
  RxDock  10072009133D
librxdock.so/0.1.0
 59 58  0  0  0  0  0  0  0  0999 V2000
    4.1746   -3.5100    5.4134 C   0  0  0  0  0  0
    4.0043   -5.0254    5.3358 C   0  0  0  0  0  0
    3.4523   -5.4671    3.9703 C   0  0  0  0  0  0
    3.3036   -7.0028    3.8318 C   0  0  0  0  0  0
    2.2265   -7.4721    2.7926 C   0  0  0  0  0  0
    0.8264   -7.2418    3.4068 C   0  0  0  0  0  0
    2.3524   -6.7553    1.3825 C   0  0  0  0  0  0
    2.2170   -7.6818    0.0828 C   0  0  0  0  0  0
    2.5500   -9.2356    0.0279 C   0  0  0  0  0  0
    1.6614  -10.1779    1.0496 C   0  0  0  0  0  0
    0.2955  -10.4292    0.4130 C   0  0  0  0  0  0
    2.3181  -11.5685    1.4735 C   0  0  0  0  0  0
    3.5219  -11.7146    2.5449 C   0  0  0  0  0  0
    3.7840  -13.0404    3.3386 C   0  0  0  0  0  0
    2.5283  -13.8309    3.9281 C   0  0  0  0  0  0
    1.4507  -14.5735    3.0438 C   0  0  0  0  0  0
    1.6003  -14.5778    1.4995 C   0  0  0  0  0  0
    2.8765  -15.2991    0.9162 C   0  0  0  0  0  0
    2.6433  -16.2310   -0.2795 C   0  0  0  0  0  0
    2.1869  -17.6908    0.0015 C   0  0  0  0  0  0
    0.7388  -17.9866    0.4923 C   0  0  0  0  0  0
    0.2981  -19.4435    0.4637 C   0  0  0  0  0  0
    0.5020  -17.3901    1.8206 N   0  0  0  0  0  0
    2.2936  -18.3623   -1.2797 O   0  0  0  0  0  0
    3.8162  -14.2903    0.5301 O   0  0  0  0  0  0
    4.7217  -11.4883    1.7860 O   0  0  0  0  0  0
    0.8272   -7.5967   -0.3339 O   0  0  0  0  0  0
    0.5446   -6.7703   -1.3743 C   0  0  0  0  0  0
    0.3462   -5.5721   -1.3080 O   0  0  0  0  0  0
    0.6169   -7.5666   -2.6479 C   0  0  0  0  0  0
    0.2871   -9.0526   -2.4346 C   0  0  0  0  0  0
   -1.1947   -9.2866   -2.1140 C   0  0  0  0  0  0
   -1.6700  -10.6098   -2.6678 C   0  0  0  0  0  0
   -2.2823  -10.7223   -3.7242 O   0  0  0  0  0  0
   -1.3559  -11.6576   -1.8917 O   0  0  0  0  0  0
    0.6590   -9.7597   -3.7452 C   0  0  0  0  0  0
    0.0268   -9.6196   -4.7812 O   0  0  0  0  0  0
    1.7096  -10.5860   -3.6490 O   0  0  0  0  0  0
    1.4732   -5.5631    1.3075 O   0  0  0  0  0  0
    1.9813   -4.4038    0.7456 C   0  0  0  0  0  0
    1.3211   -3.4038    0.4954 O   0  0  0  0  0  0
    3.4864   -4.5026    0.4638 C   0  0  0  0  0  0
    3.9216   -4.2035   -1.0044 C   0  0  0  0  0  0
    4.5537   -2.8325   -1.3065 C   0  0  0  0  0  0
    5.5156   -2.3833   -0.2446 C   0  0  0  0  0  0
    5.3614   -1.4233    0.4979 O   0  0  0  0  0  0
    6.5978   -3.1725   -0.1654 O   0  0  0  0  0  0
    4.8307   -5.2689   -1.6296 C   0  0  0  0  0  0
    5.4577   -6.0726   -0.9680 O   0  0  0  0  0  0
    4.8098   -5.3298   -2.9776 O   0  0  0  0  0  0
    0.0417  -16.4883    1.7046 H   0  0  0  0  0  0
    1.4056  -17.1717    2.2464 H   0  0  0  0  0  0
    3.2579  -18.4653   -1.4246 H   0  0  0  0  0  0
    3.4220  -13.7680   -0.1926 H   0  0  0  0  0  0
    4.7252  -10.5599    1.4988 H   0  0  0  0  0  0
   -1.6590  -12.5255   -2.2209 H   0  0  0  0  0  0
    2.3160  -10.3919   -2.8918 H   0  0  0  0  0  0
    7.1972   -2.7627    0.4934 H   0  0  0  0  0  0
    5.3910   -6.0153   -3.3758 H   0  0  0  0  0  0
  1  2  1  0  0  0
  2  3  1  0  0  0
  3  4  1  0  0  0
  4  5  1  0  0  0
  5  6  1  0  0  0
  5  7  1  0  0  0
  7  8  1  0  0  0
  7 39  1  0  0  0
  8  9  1  0  0  0
  8 27  1  0  0  0
  9 10  1  0  0  0
 10 11  1  0  0  0
 10 12  1  0  0  0
 12 13  1  0  0  0
 13 14  1  0  0  0
 13 26  1  0  0  0
 14 15  1  0  0  0
 15 16  1  0  0  0
 16 17  1  0  0  0
 17 18  1  0  0  0
 18 19  1  0  0  0
 18 25  1  0  0  0
 19 20  1  0  0  0
 20 21  1  0  0  0
 20 24  1  0  0  0
 21 22  1  0  0  0
 21 23  1  0  0  0
 23 51  1  0  0  0
 23 52  1  0  0  0
 24 53  1  0  0  0
 25 54  1  0  0  0
 26 55  1  0  0  0
 27 28  1  0  0  0
 28 29  2  0  0  0
 28 30  1  0  0  0
 30 31  1  0  0  0
 31 32  1  0  0  0
 31 36  1  0  0  0
 32 33  1  0  0  0
 33 34  2  0  0  0
 33 35  1  0  0  0
 35 56  1  0  0  0
 36 37  2  0  0  0
 36 38  1  0  0  0
 38 57  1  0  0  0
 39 40  1  0  0  0
 40 41  2  0  0  0
 40 42  1  0  0  0
 42 43  1  0  0  0
 43 44  1  0  0  0
 43 48  1  0  0  0
 44 45  1  0  0  0
 45 46  2  0  0  0
 45 47  1  0  0  0
 47 58  1  0  0  0
 48 49  2  0  0  0
 48 50  1  0  0  0
 50 59  1  0  0  0
M  END
>  <AUTHOR>
    GENERATED BY OPEN BABEL 2.4.1

>  <CHROM.1>
178.26121448,154.84261819,-74.59348977,135.98530985,-26.07489224,136.61155177
59.97298480,100.79515331,80.16437291,75.48359720,156.33875589,-42.24194336
67.02548619,68.49877772,1.07818960,63.25042447,134.77978545,-83.81644202
-64.13427818,72.35980137,167.77506996,72.56776983,96.45614043,-84.35769018
28.26693250,70.11071726,147.30032431,-70.60336801,-98.64597055,179.40092566
-22.38238892,171.80435021,125.13111063,102.89228537,41.03687124,-19.21680345
-113.66224511,175.30813281,-179.81097410,2.21721561,-9.32107962,0.22290313
-1.16902004,1.05422564,2.80450984

>  <COMPND>
    UNNAMED

>  <MASTER>
        0    0    0    0    0    0    0    0  109    0  109    0

>  <Name>
FB1.pdb

>  <RI>
0

>  <Rbt.Current_Directory>
/home/fc/tossine/FB1_39/p3/1_clust05

>  <Rbt.Executable>
rbdock/0.1.0

>  <Rbt.Library>
librxdock.so/0.1.0

>  <Rbt.Parameter_File>
/cluster/rxdock/data/scripts/dock.prm

>  <Rbt.Receptor>
rx_3.prm

>  <SCORE>
49.3456

>  <SCORE.INTER>
16.25

>  <SCORE.INTER.CONST>
1

>  <SCORE.INTER.POLAR>
-1.028

>  <SCORE.INTER.REPUL>
1.02276

>  <SCORE.INTER.ROT>
32

>  <SCORE.INTER.VDW>
-22.7685

>  <SCORE.INTER.norm>
0.325001

>  <SCORE.INTRA>
26.4802

>  <SCORE.INTRA.DIHEDRAL>
46.1262

>  <SCORE.INTRA.DIHEDRAL.0>
47.3121

>  <SCORE.INTRA.POLAR>
1.47808

>  <SCORE.INTRA.POLAR.0>
-1.47808

>  <SCORE.INTRA.REPUL>
0

>  <SCORE.INTRA.REPUL.0>
0

>  <SCORE.INTRA.VDW>
-1.6083

>  <SCORE.INTRA.VDW.0>
-2.78316

>  <SCORE.INTRA.norm>
0.529605

>  <SCORE.RESTR>
6.61534

>  <SCORE.RESTR.CAVITY>
6.61534

>  <SCORE.RESTR.norm>
0.132307

>  <SCORE.SYSTEM>
0

>  <SCORE.SYSTEM.CONST>
0

>  <SCORE.SYSTEM.DIHEDRAL>
0

>  <SCORE.SYSTEM.norm>
0

>  <SCORE.heavy>
50

>  <SCORE.norm>
0.986912

$$$$
