FB1.pdb
  RxDock  10072008123D
librxdock.so/0.1.0
 59 58  0  0  0  0  0  0  0  0999 V2000
   10.1733  -16.8205    5.6638 C   0  0  0  0  0  0
   10.3772  -18.2672    5.2205 C   0  0  0  0  0  0
    9.5106  -18.6161    3.9992 C   0  0  0  0  0  0
    7.9933  -18.6533    4.3090 C   0  0  0  0  0  0
    7.0825  -19.0796    3.1051 C   0  0  0  0  0  0
    5.7096  -19.5168    3.6660 C   0  0  0  0  0  0
    6.9124  -17.9464    2.0075 C   0  0  0  0  0  0
    5.7095  -16.9091    2.2157 C   0  0  0  0  0  0
    5.7752  -15.3543    1.8896 C   0  0  0  0  0  0
    4.3606  -14.5338    2.1059 C   0  0  0  0  0  0
    4.0534  -14.4825    3.6017 C   0  0  0  0  0  0
    4.3021  -13.0605    1.4971 C   0  0  0  0  0  0
    3.2510  -11.9243    1.9693 C   0  0  0  0  0  0
    2.6273  -10.8897    0.9709 C   0  0  0  0  0  0
    1.6310  -11.4288   -0.1542 C   0  0  0  0  0  0
    0.6334  -10.5153   -0.9696 C   0  0  0  0  0  0
    1.1972   -9.4330   -1.9278 C   0  0  0  0  0  0
    1.8340   -8.1565   -1.2537 C   0  0  0  0  0  0
    0.9652   -7.4293   -0.2198 C   0  0  0  0  0  0
    0.6221   -5.9328   -0.4670 C   0  0  0  0  0  0
    1.7535   -4.8924   -0.7174 C   0  0  0  0  0  0
    2.8866   -4.8658    0.2988 C   0  0  0  0  0  0
    2.2795   -5.0084   -2.0908 N   0  0  0  0  0  0
   -0.1648   -5.9325   -1.6854 O   0  0  0  0  0  0
    3.0560   -8.5537   -0.6221 O   0  0  0  0  0  0
    2.1323  -12.6539    2.5010 O   0  0  0  0  0  0
    4.6053  -17.3998    1.4080 O   0  0  0  0  0  0
    4.7283  -17.2847    0.0600 C   0  0  0  0  0  0
    5.6863  -16.8346   -0.5391 O   0  0  0  0  0  0
    3.5177  -17.9032   -0.5829 C   0  0  0  0  0  0
    2.2393  -17.6972    0.2453 C   0  0  0  0  0  0
    1.3514  -16.5769   -0.3114 C   0  0  0  0  0  0
    2.0191  -15.2291   -0.1661 C   0  0  0  0  0  0
    1.6952  -14.3991    0.6765 O   0  0  0  0  0  0
    3.0072  -15.0242   -1.0495 O   0  0  0  0  0  0
    1.4875  -19.0346    0.2003 C   0  0  0  0  0  0
    0.2862  -19.1314    0.4000 O   0  0  0  0  0  0
    2.2675  -20.1001   -0.0282 O   0  0  0  0  0  0
    8.1994  -17.2574    1.7453 O   0  0  0  0  0  0
    8.6509  -16.3303    2.6698 C   0  0  0  0  0  0
    7.9766  -15.8722    3.5829 O   0  0  0  0  0  0
   10.1119  -15.9286    2.4280 C   0  0  0  0  0  0
   10.4939  -14.4761    2.8509 C   0  0  0  0  0  0
   11.9888  -14.1218    2.9522 C   0  0  0  0  0  0
   12.7821  -14.5797    1.7625 C   0  0  0  0  0  0
   13.1565  -13.8706    0.8387 O   0  0  0  0  0  0
   13.0730  -15.8886    1.8127 O   0  0  0  0  0  0
    9.8222  -13.3735    2.0231 C   0  0  0  0  0  0
    8.6246  -13.3372    1.8199 O   0  0  0  0  0  0
   10.6359  -12.3759    1.6182 O   0  0  0  0  0  0
    1.7272   -4.4179   -2.7111 H   0  0  0  0  0  0
    2.1187   -5.9621   -2.4227 H   0  0  0  0  0  0
   -0.5797   -5.0445   -1.7109 H   0  0  0  0  0  0
    3.5113   -7.7507   -0.3084 H   0  0  0  0  0  0
    1.4228  -12.0183    2.6934 H   0  0  0  0  0  0
    3.4407  -14.1510   -0.9946 H   0  0  0  0  0  0
    1.7933  -20.9680   -0.0048 H   0  0  0  0  0  0
   12.6766  -16.2334    2.6405 H   0  0  0  0  0  0
   10.2039  -11.6723    1.0847 H   0  0  0  0  0  0
  1  2  1  0  0  0
  2  3  1  0  0  0
  3  4  1  0  0  0
  4  5  1  0  0  0
  5  6  1  0  0  0
  5  7  1  0  0  0
  7  8  1  0  0  0
  7 39  1  0  0  0
  8  9  1  0  0  0
  8 27  1  0  0  0
  9 10  1  0  0  0
 10 11  1  0  0  0
 10 12  1  0  0  0
 12 13  1  0  0  0
 13 14  1  0  0  0
 13 26  1  0  0  0
 14 15  1  0  0  0
 15 16  1  0  0  0
 16 17  1  0  0  0
 17 18  1  0  0  0
 18 19  1  0  0  0
 18 25  1  0  0  0
 19 20  1  0  0  0
 20 21  1  0  0  0
 20 24  1  0  0  0
 21 22  1  0  0  0
 21 23  1  0  0  0
 23 51  1  0  0  0
 23 52  1  0  0  0
 24 53  1  0  0  0
 25 54  1  0  0  0
 26 55  1  0  0  0
 27 28  1  0  0  0
 28 29  2  0  0  0
 28 30  1  0  0  0
 30 31  1  0  0  0
 31 32  1  0  0  0
 31 36  1  0  0  0
 32 33  1  0  0  0
 33 34  2  0  0  0
 33 35  1  0  0  0
 35 56  1  0  0  0
 36 37  2  0  0  0
 36 38  1  0  0  0
 38 57  1  0  0  0
 39 40  1  0  0  0
 40 41  2  0  0  0
 40 42  1  0  0  0
 42 43  1  0  0  0
 43 44  1  0  0  0
 43 48  1  0  0  0
 44 45  1  0  0  0
 45 46  2  0  0  0
 45 47  1  0  0  0
 47 58  1  0  0  0
 48 49  2  0  0  0
 48 50  1  0  0  0
 50 59  1  0  0  0
M  END
>  <AUTHOR>
    GENERATED BY OPEN BABEL 2.4.1

>  <CHROM.1>
-68.38950824,-176.93069853,161.56275898,-88.55800511,142.07188390,-76.57232916
176.19406635,-71.66874849,68.77242481,-159.76871228,-144.18820977,66.88952455
-172.76796618,162.78597425,64.96846403,-72.96985112,-52.38823181,-121.42515135
172.52893094,-54.15150633,-51.54093764,165.22946013,88.34430428,1.59814202
34.69185821,101.73188565,-67.14456757,-157.69166657,-104.78743137,178.40661475
176.58164896,-12.29342229,149.62203204,165.64821598,47.13023829,50.58836137
101.81083423,0.33960742,179.75391983,5.29150228,-14.05824968,1.20684793,-0.88127165
-0.27081491,-0.14883586

>  <COMPND>
    UNNAMED

>  <MASTER>
        0    0    0    0    0    0    0    0  109    0  109    0

>  <Name>
FB1.pdb

>  <RI>
0

>  <Rbt.Current_Directory>
/home/fc/tossine/FB1_39/p3/1_clust05

>  <Rbt.Executable>
rbdock/0.1.0

>  <Rbt.Library>
librxdock.so/0.1.0

>  <Rbt.Parameter_File>
/cluster/rxdock/data/scripts/dock.prm

>  <Rbt.Receptor>
rx_1.prm

>  <SCORE>
38.7591

>  <SCORE.INTER>
18.3441

>  <SCORE.INTER.CONST>
1

>  <SCORE.INTER.POLAR>
-0.861843

>  <SCORE.INTER.REPUL>
0.149515

>  <SCORE.INTER.ROT>
32

>  <SCORE.INTER.VDW>
-16.8732

>  <SCORE.INTER.norm>
0.366882

>  <SCORE.INTRA>
12.3188

>  <SCORE.INTRA.DIHEDRAL>
1.36222

>  <SCORE.INTRA.DIHEDRAL.0>
47.3121

>  <SCORE.INTRA.POLAR>
1.47808

>  <SCORE.INTRA.POLAR.0>
-1.47808

>  <SCORE.INTRA.REPUL>
0.0385503

>  <SCORE.INTRA.REPUL.0>
0

>  <SCORE.INTRA.VDW>
6.41951

>  <SCORE.INTRA.VDW.0>
-2.78316

>  <SCORE.INTRA.norm>
0.246377

>  <SCORE.RESTR>
8.09618

>  <SCORE.RESTR.CAVITY>
8.09618

>  <SCORE.RESTR.norm>
0.161924

>  <SCORE.SYSTEM>
0

>  <SCORE.SYSTEM.CONST>
0

>  <SCORE.SYSTEM.DIHEDRAL>
0

>  <SCORE.SYSTEM.norm>
0

>  <SCORE.heavy>
50

>  <SCORE.norm>
0.775182

$$$$
