FB1.pdb
  RxDock  10072008143D
librxdock.so/0.1.0
 59 58  0  0  0  0  0  0  0  0999 V2000
    0.9233   -3.9405   -0.3535 C   0  0  0  0  0  0
    1.5048   -4.6292   -1.5860 C   0  0  0  0  0  0
    2.9411   -4.1623   -1.8745 C   0  0  0  0  0  0
    3.9586   -4.5857   -0.7858 C   0  0  0  0  0  0
    4.2587   -6.1241   -0.7233 C   0  0  0  0  0  0
    5.2858   -6.3728    0.4054 C   0  0  0  0  0  0
    2.9616   -7.0144   -0.5165 C   0  0  0  0  0  0
    3.1083   -8.5856   -0.7925 C   0  0  0  0  0  0
    3.2966   -9.6977    0.3282 C   0  0  0  0  0  0
    2.3416  -11.0319    0.1569 C   0  0  0  0  0  0
    2.6762  -11.7001   -1.1757 C   0  0  0  0  0  0
    2.4219  -12.1094    1.3305 C   0  0  0  0  0  0
    1.5520  -12.0340    2.6930 C   0  0  0  0  0  0
    1.7545  -13.0418    3.8759 C   0  0  0  0  0  0
    2.4928  -14.4250    3.5745 C   0  0  0  0  0  0
    2.1982  -15.3339    2.3168 C   0  0  0  0  0  0
    3.2419  -16.3953    1.8792 C   0  0  0  0  0  0
    4.7221  -15.8879    1.6771 C   0  0  0  0  0  0
    5.8339  -16.9053    1.9619 C   0  0  0  0  0  0
    6.8089  -16.6217    3.1397 C   0  0  0  0  0  0
    7.9780  -17.6017    3.4528 C   0  0  0  0  0  0
    8.8702  -17.9881    2.2814 C   0  0  0  0  0  0
    8.7820  -17.1145    4.5897 N   0  0  0  0  0  0
    7.4520  -15.3692    2.7911 O   0  0  0  0  0  0
    4.8537  -15.4371    0.3246 O   0  0  0  0  0  0
    1.8453  -10.7406    3.2476 O   0  0  0  0  0  0
    1.9043   -8.9880   -1.5001 O   0  0  0  0  0  0
    1.5878   -8.2932   -2.6237 C   0  0  0  0  0  0
    2.3665   -7.9100   -3.4759 O   0  0  0  0  0  0
    0.0916   -8.1603   -2.6955 C   0  0  0  0  0  0
   -0.5574   -9.2544   -3.5582 C   0  0  0  0  0  0
   -1.4924  -10.1637   -2.7504 C   0  0  0  0  0  0
   -0.7252  -10.9517   -1.7141 C   0  0  0  0  0  0
    0.0624  -11.8497   -1.9911 O   0  0  0  0  0  0
   -0.9865  -10.5736   -0.4541 O   0  0  0  0  0  0
   -1.3514   -8.5182   -4.6461 C   0  0  0  0  0  0
   -1.1939   -8.7224   -5.8402 O   0  0  0  0  0  0
   -2.2012   -7.5928   -4.1799 O   0  0  0  0  0  0
    2.3266   -6.7389    0.7953 O   0  0  0  0  0  0
    1.3657   -7.6211    1.2606 C   0  0  0  0  0  0
    0.6092   -8.2668    0.5470 O   0  0  0  0  0  0
    1.3465   -7.7088    2.7923 C   0  0  0  0  0  0
    1.9609   -6.4900    3.5483 C   0  0  0  0  0  0
    0.9964   -5.4697    4.1801 C   0  0  0  0  0  0
   -0.2285   -5.2264    3.3465 C   0  0  0  0  0  0
   -1.0502   -6.0725    3.0218 O   0  0  0  0  0  0
   -0.3586   -3.9397    2.9889 O   0  0  0  0  0  0
    2.9948   -6.8592    4.6193 C   0  0  0  0  0  0
    3.0152   -7.9411    5.1723 O   0  0  0  0  0  0
    3.9571   -5.9385    4.8374 O   0  0  0  0  0  0
    9.6059  -17.7051    4.6937 H   0  0  0  0  0  0
    8.2481  -17.2532    5.4506 H   0  0  0  0  0  0
    6.8059  -14.6792    3.0516 H   0  0  0  0  0  0
    5.7791  -15.1648    0.1834 H   0  0  0  0  0  0
    1.6287  -10.0702    2.5781 H   0  0  0  0  0  0
   -0.2754  -10.0687   -0.0147 H   0  0  0  0  0  0
   -2.6629   -7.0696   -4.8813 H   0  0  0  0  0  0
   -1.0610   -3.9073    2.3056 H   0  0  0  0  0  0
    4.7316   -6.2550    5.3534 H   0  0  0  0  0  0
  1  2  1  0  0  0
  2  3  1  0  0  0
  3  4  1  0  0  0
  4  5  1  0  0  0
  5  6  1  0  0  0
  5  7  1  0  0  0
  7  8  1  0  0  0
  7 39  1  0  0  0
  8  9  1  0  0  0
  8 27  1  0  0  0
  9 10  1  0  0  0
 10 11  1  0  0  0
 10 12  1  0  0  0
 12 13  1  0  0  0
 13 14  1  0  0  0
 13 26  1  0  0  0
 14 15  1  0  0  0
 15 16  1  0  0  0
 16 17  1  0  0  0
 17 18  1  0  0  0
 18 19  1  0  0  0
 18 25  1  0  0  0
 19 20  1  0  0  0
 20 21  1  0  0  0
 20 24  1  0  0  0
 21 22  1  0  0  0
 21 23  1  0  0  0
 23 51  1  0  0  0
 23 52  1  0  0  0
 24 53  1  0  0  0
 25 54  1  0  0  0
 26 55  1  0  0  0
 27 28  1  0  0  0
 28 29  2  0  0  0
 28 30  1  0  0  0
 30 31  1  0  0  0
 31 32  1  0  0  0
 31 36  1  0  0  0
 32 33  1  0  0  0
 33 34  2  0  0  0
 33 35  1  0  0  0
 35 56  1  0  0  0
 36 37  2  0  0  0
 36 38  1  0  0  0
 38 57  1  0  0  0
 39 40  1  0  0  0
 40 41  2  0  0  0
 40 42  1  0  0  0
 42 43  1  0  0  0
 43 44  1  0  0  0
 43 48  1  0  0  0
 44 45  1  0  0  0
 45 46  2  0  0  0
 45 47  1  0  0  0
 47 58  1  0  0  0
 48 49  2  0  0  0
 48 50  1  0  0  0
 50 59  1  0  0  0
M  END
>  <AUTHOR>
    GENERATED BY OPEN BABEL 2.4.1

>  <CHROM.1>
66.36971211,69.24729607,179.92011202,165.59524206,100.01873265,-166.20150335
133.95611454,53.60972084,60.90934851,85.28096268,-174.36371139,-19.11300598
56.48258191,-44.16902790,160.87985862,-52.07137970,149.49943305,-115.50063905
-177.19163798,-178.47293639,50.77057990,80.94582079,-172.60321217,40.65531551
-95.03939909,116.58156590,-64.81474454,125.09322934,-69.20318743,-106.72175685
175.55765024,-31.05080895,21.86238799,102.76181627,-37.21104269,-24.58609300
59.95383605,168.36945263,-165.84459295,2.37564487,-9.88424236,0.69017719
-2.53680279,0.98766770,-2.59757691

>  <COMPND>
    UNNAMED

>  <MASTER>
        0    0    0    0    0    0    0    0  109    0  109    0

>  <Name>
FB1.pdb

>  <RI>
0

>  <Rbt.Current_Directory>
/home/fc/tossine/FB1_39/p3/1_clust05

>  <Rbt.Executable>
rbdock/0.1.0

>  <Rbt.Library>
librxdock.so/0.1.0

>  <Rbt.Parameter_File>
/cluster/rxdock/data/scripts/dock.prm

>  <Rbt.Receptor>
rx_1.prm

>  <SCORE>
39.653

>  <SCORE.INTER>
13.3504

>  <SCORE.INTER.CONST>
1

>  <SCORE.INTER.POLAR>
-3.15414

>  <SCORE.INTER.REPUL>
1.84974

>  <SCORE.INTER.ROT>
32

>  <SCORE.INTER.VDW>
-22.5743

>  <SCORE.INTER.norm>
0.267008

>  <SCORE.INTRA>
23.473

>  <SCORE.INTRA.DIHEDRAL>
48.4523

>  <SCORE.INTRA.DIHEDRAL.0>
47.3121

>  <SCORE.INTRA.POLAR>
0.520056

>  <SCORE.INTRA.POLAR.0>
-1.47808

>  <SCORE.INTRA.REPUL>
0

>  <SCORE.INTRA.REPUL.0>
0

>  <SCORE.INTRA.VDW>
-2.52133

>  <SCORE.INTRA.VDW.0>
-2.78316

>  <SCORE.INTRA.norm>
0.46946

>  <SCORE.RESTR>
2.8296

>  <SCORE.RESTR.CAVITY>
2.8296

>  <SCORE.RESTR.norm>
0.0565919

>  <SCORE.SYSTEM>
0

>  <SCORE.SYSTEM.CONST>
0

>  <SCORE.SYSTEM.DIHEDRAL>
0

>  <SCORE.SYSTEM.norm>
0

>  <SCORE.heavy>
50

>  <SCORE.norm>
0.79306

$$$$
