FB1.pdb
  RxDock  10072009263D
librxdock.so/0.1.0
 59 58  0  0  0  0  0  0  0  0999 V2000
    3.5419   -5.5398    4.5767 C   0  0  0  0  0  0
    3.6908   -6.8847    3.8694 C   0  0  0  0  0  0
    2.6104   -7.8845    4.3139 C   0  0  0  0  0  0
    1.1659   -7.3872    4.0575 C   0  0  0  0  0  0
    0.6836   -7.4949    2.5688 C   0  0  0  0  0  0
    0.1729   -6.1055    2.1222 C   0  0  0  0  0  0
    1.8003   -8.0341    1.5788 C   0  0  0  0  0  0
    1.6305   -9.5333    1.0406 C   0  0  0  0  0  0
    1.3392  -10.8045    1.9503 C   0  0  0  0  0  0
    2.5397  -11.1944    3.0124 C   0  0  0  0  0  0
    1.9514  -11.2178    4.4222 C   0  0  0  0  0  0
    3.3100  -12.5628    2.7315 C   0  0  0  0  0  0
    4.4011  -12.7649    1.5536 C   0  0  0  0  0  0
    5.2827  -14.0554    1.4374 C   0  0  0  0  0  0
    6.7582  -13.9138    0.8443 C   0  0  0  0  0  0
    7.7696  -12.7676    1.2419 C   0  0  0  0  0  0
    9.1919  -12.7539    0.6219 C   0  0  0  0  0  0
   10.2304  -11.7527    1.2608 C   0  0  0  0  0  0
   11.3822  -12.3828    2.0538 C   0  0  0  0  0  0
   12.4961  -13.1308    1.2676 C   0  0  0  0  0  0
   13.7533  -12.3668    0.7567 C   0  0  0  0  0  0
   13.5088  -11.2705   -0.2708 C   0  0  0  0  0  0
   14.5561  -11.8611    1.8865 N   0  0  0  0  0  0
   13.0086  -14.1144    2.2024 O   0  0  0  0  0  0
   10.7851  -10.9591    0.2062 O   0  0  0  0  0  0
    3.6414  -12.7184    0.3341 O   0  0  0  0  0  0
    0.5241   -9.5040    0.0985 O   0  0  0  0  0  0
    0.4353  -10.5355   -0.7809 C   0  0  0  0  0  0
    1.1223  -11.5392   -0.7843 O   0  0  0  0  0  0
   -0.7287  -10.2801   -1.6981 C   0  0  0  0  0  0
   -0.4015   -9.2554   -2.7961 C   0  0  0  0  0  0
   -0.7505   -7.8195   -2.3841 C   0  0  0  0  0  0
   -2.1840   -7.4871   -2.7274 C   0  0  0  0  0  0
   -3.0789   -7.4014   -1.8935 O   0  0  0  0  0  0
   -2.3878   -7.2912   -4.0385 O   0  0  0  0  0  0
    1.1074   -9.3769   -3.0502 C   0  0  0  0  0  0
    1.8662   -8.4197   -3.0307 O   0  0  0  0  0  0
    1.5203  -10.6171   -3.3457 O   0  0  0  0  0  0
    2.0469   -7.0738    0.4757 O   0  0  0  0  0  0
    2.9235   -7.4389   -0.5324 C   0  0  0  0  0  0
    3.5616   -8.4833   -0.5559 O   0  0  0  0  0  0
    3.0144   -6.3799   -1.6390 C   0  0  0  0  0  0
    4.0361   -5.2271   -1.3911 C   0  0  0  0  0  0
    3.5125   -3.9163   -0.7762 C   0  0  0  0  0  0
    3.0746   -4.0720    0.6516 C   0  0  0  0  0  0
    1.9180   -4.1788    1.0356 O   0  0  0  0  0  0
    4.1093   -4.1038    1.5051 O   0  0  0  0  0  0
    5.2790   -5.6375   -0.5917 C   0  0  0  0  0  0
    5.5453   -6.7946   -0.3330 O   0  0  0  0  0  0
    6.1252   -4.6334   -0.2802 O   0  0  0  0  0  0
   14.8998  -10.9286    1.6611 H   0  0  0  0  0  0
   15.3961  -12.4374    1.9741 H   0  0  0  0  0  0
   12.2941  -14.7820    2.2744 H   0  0  0  0  0  0
   11.2805  -10.2220    0.6085 H   0  0  0  0  0  0
    2.9756  -13.4256    0.3675 H   0  0  0  0  0  0
   -3.3063   -7.4246   -4.3419 H   0  0  0  0  0  0
    2.4785  -10.6847   -3.5827 H   0  0  0  0  0  0
    4.9110   -3.8882    0.9835 H   0  0  0  0  0  0
    6.9431   -4.9052    0.1923 H   0  0  0  0  0  0
  1  2  1  0  0  0
  2  3  1  0  0  0
  3  4  1  0  0  0
  4  5  1  0  0  0
  5  6  1  0  0  0
  5  7  1  0  0  0
  7  8  1  0  0  0
  7 39  1  0  0  0
  8  9  1  0  0  0
  8 27  1  0  0  0
  9 10  1  0  0  0
 10 11  1  0  0  0
 10 12  1  0  0  0
 12 13  1  0  0  0
 13 14  1  0  0  0
 13 26  1  0  0  0
 14 15  1  0  0  0
 15 16  1  0  0  0
 16 17  1  0  0  0
 17 18  1  0  0  0
 18 19  1  0  0  0
 18 25  1  0  0  0
 19 20  1  0  0  0
 20 21  1  0  0  0
 20 24  1  0  0  0
 21 22  1  0  0  0
 21 23  1  0  0  0
 23 51  1  0  0  0
 23 52  1  0  0  0
 24 53  1  0  0  0
 25 54  1  0  0  0
 26 55  1  0  0  0
 27 28  1  0  0  0
 28 29  2  0  0  0
 28 30  1  0  0  0
 30 31  1  0  0  0
 31 32  1  0  0  0
 31 36  1  0  0  0
 32 33  1  0  0  0
 33 34  2  0  0  0
 33 35  1  0  0  0
 35 56  1  0  0  0
 36 37  2  0  0  0
 36 38  1  0  0  0
 38 57  1  0  0  0
 39 40  1  0  0  0
 40 41  2  0  0  0
 40 42  1  0  0  0
 42 43  1  0  0  0
 43 44  1  0  0  0
 43 48  1  0  0  0
 44 45  1  0  0  0
 45 46  2  0  0  0
 45 47  1  0  0  0
 47 58  1  0  0  0
 48 49  2  0  0  0
 48 50  1  0  0  0
 50 59  1  0  0  0
M  END
>  <AUTHOR>
    GENERATED BY OPEN BABEL 2.4.1

>  <CHROM.1>
58.53855410,77.36820194,-126.48077162,106.69823452,-49.36367342,-175.26164944
-64.72263987,160.85711425,123.66329492,74.73685944,171.04554354,-147.70272539
-58.83880071,44.06216884,178.55191175,-168.84041305,110.44419369,71.65346679
168.33819605,89.55701909,-63.31468367,71.60989718,-140.07536228,6.77104486
78.19159650,-91.60612560,-87.91024950,-127.74526350,106.02788605,156.88503603
175.20839823,-3.23002662,85.78978989,-95.44347515,68.33336845,9.90337901
-101.16396842,7.81435980,-177.03695583,4.10981008,-9.17323422,0.44221657
-2.74557766,0.21499172,-3.05357772

>  <COMPND>
    UNNAMED

>  <MASTER>
        0    0    0    0    0    0    0    0  109    0  109    0

>  <Name>
FB1.pdb

>  <RI>
0

>  <Rbt.Current_Directory>
/home/fc/tossine/FB1_39/p3/1_clust05

>  <Rbt.Executable>
rbdock/0.1.0

>  <Rbt.Library>
librxdock.so/0.1.0

>  <Rbt.Parameter_File>
/cluster/rxdock/data/scripts/dock.prm

>  <Rbt.Receptor>
rx_3.prm

>  <SCORE>
58.4318

>  <SCORE.INTER>
41.7181

>  <SCORE.INTER.CONST>
1

>  <SCORE.INTER.POLAR>
-2.66199

>  <SCORE.INTER.REPUL>
1.27068

>  <SCORE.INTER.ROT>
32

>  <SCORE.INTER.VDW>
7.01548

>  <SCORE.INTER.norm>
0.834362

>  <SCORE.INTRA>
15.9479

>  <SCORE.INTRA.DIHEDRAL>
14.5029

>  <SCORE.INTRA.DIHEDRAL.0>
47.3121

>  <SCORE.INTRA.POLAR>
0.912355

>  <SCORE.INTRA.POLAR.0>
-1.47808

>  <SCORE.INTRA.REPUL>
0.163386

>  <SCORE.INTRA.REPUL.0>
0

>  <SCORE.INTRA.VDW>
4.77752

>  <SCORE.INTRA.VDW.0>
-2.78316

>  <SCORE.INTRA.norm>
0.318958

>  <SCORE.RESTR>
0.765746

>  <SCORE.RESTR.CAVITY>
0.765746

>  <SCORE.RESTR.norm>
0.0153149

>  <SCORE.SYSTEM>
0

>  <SCORE.SYSTEM.CONST>
0

>  <SCORE.SYSTEM.DIHEDRAL>
0

>  <SCORE.SYSTEM.norm>
0

>  <SCORE.heavy>
50

>  <SCORE.norm>
1.16864

$$$$
