FB1.pdb
  RxDock  10072008453D
librxdock.so/0.1.0
 59 58  0  0  0  0  0  0  0  0999 V2000
    2.9785   -2.0154    2.2812 C   0  0  0  0  0  0
    3.0016   -3.4901    2.6764 C   0  0  0  0  0  0
    3.4842   -4.3818    1.5204 C   0  0  0  0  0  0
    2.5053   -4.4208    0.3204 C   0  0  0  0  0  0
    3.0025   -5.2541   -0.9120 C   0  0  0  0  0  0
    4.3498   -4.6622   -1.3866 C   0  0  0  0  0  0
    3.1384   -6.8066   -0.6135 C   0  0  0  0  0  0
    1.8623   -7.5379    0.0212 C   0  0  0  0  0  0
    1.6159   -9.1088    0.0252 C   0  0  0  0  0  0
    2.9175  -10.0221   -0.4141 C   0  0  0  0  0  0
    4.0219   -9.8230    0.6227 C   0  0  0  0  0  0
    2.6469  -11.5813   -0.6146 C   0  0  0  0  0  0
    2.7768  -12.6838    0.5628 C   0  0  0  0  0  0
    2.1385  -14.1108    0.4517 C   0  0  0  0  0  0
    2.4077  -15.1547    1.6294 C   0  0  0  0  0  0
    1.9162  -14.9614    3.1179 C   0  0  0  0  0  0
    2.3420  -13.6939    3.9052 C   0  0  0  0  0  0
    3.8247  -13.6627    4.4435 C   0  0  0  0  0  0
    4.0241  -14.0684    5.9091 C   0  0  0  0  0  0
    4.1813  -12.9432    6.9709 C   0  0  0  0  0  0
    2.9473  -12.1132    7.4331 C   0  0  0  0  0  0
    2.0220  -11.6064    6.3357 C   0  0  0  0  0  0
    2.1877  -12.8350    8.4717 N   0  0  0  0  0  0
    4.6432  -13.6258    8.1644 O   0  0  0  0  0  0
    4.6119  -14.5302    3.6203 O   0  0  0  0  0  0
    4.1892  -12.9142    0.6991 O   0  0  0  0  0  0
    1.8380   -7.1663    1.4261 O   0  0  0  0  0  0
    2.9605   -7.4153    2.1495 C   0  0  0  0  0  0
    4.1031   -7.1711    1.8116 O   0  0  0  0  0  0
    2.5514   -7.9548    3.4923 C   0  0  0  0  0  0
    1.2763   -8.8101    3.4214 C   0  0  0  0  0  0
    1.5787  -10.3050    3.2562 C   0  0  0  0  0  0
    0.3615  -11.0568    2.7698 C   0  0  0  0  0  0
   -0.5875  -11.3490    3.4893 O   0  0  0  0  0  0
    0.4152  -11.3757    1.4682 O   0  0  0  0  0  0
    0.5317   -8.5676    4.7415 C   0  0  0  0  0  0
    0.8463   -9.1041    5.7930 O   0  0  0  0  0  0
   -0.5276   -7.7534    4.6375 O   0  0  0  0  0  0
    3.6645   -7.5347   -1.7937 O   0  0  0  0  0  0
    2.9824   -7.4247   -2.9939 C   0  0  0  0  0  0
    1.7923   -7.6693   -3.1435 O   0  0  0  0  0  0
    3.8885   -6.9551   -4.1396 C   0  0  0  0  0  0
    3.5374   -5.5647   -4.7546 C   0  0  0  0  0  0
    4.5101   -4.9633   -5.7854 C   0  0  0  0  0  0
    5.0764   -3.6408   -5.3555 C   0  0  0  0  0  0
    5.1739   -3.2477   -4.2011 O   0  0  0  0  0  0
    5.5018   -2.9032   -6.3925 O   0  0  0  0  0  0
    2.1282   -5.4694   -5.3522 C   0  0  0  0  0  0
    1.1539   -5.1521   -4.6988 O   0  0  0  0  0  0
    2.0506   -5.6577   -6.6863 O   0  0  0  0  0  0
    2.8386  -13.3413    9.0704 H   0  0  0  0  0  0
    1.6260  -13.5606    8.0206 H   0  0  0  0  0  0
    4.7391  -12.9154    8.8334 H   0  0  0  0  0  0
    5.5444  -14.4428    3.8908 H   0  0  0  0  0  0
    4.5008  -13.3578   -0.1076 H   0  0  0  0  0  0
   -0.3167  -11.9361    1.1460 H   0  0  0  0  0  0
   -1.1134   -7.7388    5.4346 H   0  0  0  0  0  0
    5.1289   -3.3134   -7.2012 H   0  0  0  0  0  0
    1.1468   -5.5940   -7.0673 H   0  0  0  0  0  0
  1  2  1  0  0  0
  2  3  1  0  0  0
  3  4  1  0  0  0
  4  5  1  0  0  0
  5  6  1  0  0  0
  5  7  1  0  0  0
  7  8  1  0  0  0
  7 39  1  0  0  0
  8  9  1  0  0  0
  8 27  1  0  0  0
  9 10  1  0  0  0
 10 11  1  0  0  0
 10 12  1  0  0  0
 12 13  1  0  0  0
 13 14  1  0  0  0
 13 26  1  0  0  0
 14 15  1  0  0  0
 15 16  1  0  0  0
 16 17  1  0  0  0
 17 18  1  0  0  0
 18 19  1  0  0  0
 18 25  1  0  0  0
 19 20  1  0  0  0
 20 21  1  0  0  0
 20 24  1  0  0  0
 21 22  1  0  0  0
 21 23  1  0  0  0
 23 51  1  0  0  0
 23 52  1  0  0  0
 24 53  1  0  0  0
 25 54  1  0  0  0
 26 55  1  0  0  0
 27 28  1  0  0  0
 28 29  2  0  0  0
 28 30  1  0  0  0
 30 31  1  0  0  0
 31 32  1  0  0  0
 31 36  1  0  0  0
 32 33  1  0  0  0
 33 34  2  0  0  0
 33 35  1  0  0  0
 35 56  1  0  0  0
 36 37  2  0  0  0
 36 38  1  0  0  0
 38 57  1  0  0  0
 39 40  1  0  0  0
 40 41  2  0  0  0
 40 42  1  0  0  0
 42 43  1  0  0  0
 43 44  1  0  0  0
 43 48  1  0  0  0
 44 45  1  0  0  0
 45 46  2  0  0  0
 45 47  1  0  0  0
 47 58  1  0  0  0
 48 49  2  0  0  0
 48 50  1  0  0  0
 50 59  1  0  0  0
M  END
>  <AUTHOR>
    GENERATED BY OPEN BABEL 2.4.1

>  <CHROM.1>
-66.96132601,176.61943741,-58.10285778,52.10929325,161.91793369,-56.33117028
11.69250288,-55.00964996,64.20808937,-89.97068174,162.72234661,176.04436009
-67.83494414,64.05534336,-57.09569998,-75.95800713,-97.62107969,-99.64896133
174.20936829,74.61001063,-45.67361699,-179.82922438,36.10540481,45.72147254
33.58274463,93.52413370,-162.53000188,-78.61991284,-76.37126328,174.34605530
168.21929383,-54.47211285,-115.44729083,172.61386481,-119.78044103,88.14091181
23.88019477,14.26750135,-179.86383714,2.73147190,-8.85904879,0.98218244,0.88962924
1.44709496,-0.17000304

>  <COMPND>
    UNNAMED

>  <MASTER>
        0    0    0    0    0    0    0    0  109    0  109    0

>  <Name>
FB1.pdb

>  <RI>
0

>  <Rbt.Current_Directory>
/home/fc/tossine/FB1_39/p3/1_clust05

>  <Rbt.Executable>
rbdock/0.1.0

>  <Rbt.Library>
librxdock.so/0.1.0

>  <Rbt.Parameter_File>
/cluster/rxdock/data/scripts/dock.prm

>  <Rbt.Receptor>
rx_2.prm

>  <SCORE>
47.4098

>  <SCORE.INTER>
19.8691

>  <SCORE.INTER.CONST>
1

>  <SCORE.INTER.POLAR>
-1.97654

>  <SCORE.INTER.REPUL>
0.804034

>  <SCORE.INTER.ROT>
32

>  <SCORE.INTER.VDW>
-14.8308

>  <SCORE.INTER.norm>
0.397382

>  <SCORE.INTRA>
20.1465

>  <SCORE.INTRA.DIHEDRAL>
30.0941

>  <SCORE.INTRA.DIHEDRAL.0>
47.3121

>  <SCORE.INTRA.POLAR>
1.47808

>  <SCORE.INTRA.POLAR.0>
-1.47808

>  <SCORE.INTRA.REPUL>
0

>  <SCORE.INTRA.REPUL.0>
0

>  <SCORE.INTRA.VDW>
0.0739736

>  <SCORE.INTRA.VDW.0>
-2.78316

>  <SCORE.INTRA.norm>
0.40293

>  <SCORE.RESTR>
7.39419

>  <SCORE.RESTR.CAVITY>
7.39419

>  <SCORE.RESTR.norm>
0.147884

>  <SCORE.SYSTEM>
0

>  <SCORE.SYSTEM.CONST>
0

>  <SCORE.SYSTEM.DIHEDRAL>
0

>  <SCORE.SYSTEM.norm>
0

>  <SCORE.heavy>
50

>  <SCORE.norm>
0.948196

$$$$
