FB1.pdb
  RxDock  10072009483D
librxdock.so/0.1.0
 59 58  0  0  0  0  0  0  0  0999 V2000
   -1.5589   -3.8622    4.0812 C   0  0  0  0  0  0
   -0.7984   -4.6371    3.0076 C   0  0  0  0  0  0
   -0.7849   -6.1471    3.2973 C   0  0  0  0  0  0
    0.3664   -6.9019    2.5870 C   0  0  0  0  0  0
    1.5178   -7.3930    3.5323 C   0  0  0  0  0  0
    0.9224   -8.4068    4.5365 C   0  0  0  0  0  0
    2.7505   -8.0210    2.7553 C   0  0  0  0  0  0
    2.4169   -9.0759    1.5967 C   0  0  0  0  0  0
    2.5792   -8.8051    0.0384 C   0  0  0  0  0  0
    1.1646   -8.6373   -0.7935 C   0  0  0  0  0  0
    0.7483   -7.1679   -0.7511 C   0  0  0  0  0  0
    1.1729   -9.1475   -2.3049 C   0  0  0  0  0  0
   -0.1451   -9.2385   -3.2394 C   0  0  0  0  0  0
   -0.0692   -9.5722   -4.7688 C   0  0  0  0  0  0
   -1.2278   -9.0256   -5.7216 C   0  0  0  0  0  0
   -1.0921   -8.8722   -7.2877 C   0  0  0  0  0  0
   -2.3602   -8.9604   -8.1774 C   0  0  0  0  0  0
   -2.4894   -7.8905   -9.3297 C   0  0  0  0  0  0
   -1.4665   -7.9912  -10.4681 C   0  0  0  0  0  0
    0.0359   -7.7742  -10.1307 C   0  0  0  0  0  0
    1.1391   -8.1161  -11.1755 C   0  0  0  0  0  0
    2.2745   -9.0086  -10.6945 C   0  0  0  0  0  0
    0.5417   -8.6453  -12.4163 N   0  0  0  0  0  0
    0.1600   -6.3464   -9.9073 O   0  0  0  0  0  0
   -3.8033   -7.9991   -9.8880 O   0  0  0  0  0  0
   -0.9341  -10.2934   -2.6639 O   0  0  0  0  0  0
    3.2553  -10.2359    1.8496 O   0  0  0  0  0  0
    2.9283  -11.3857    1.2044 C   0  0  0  0  0  0
    2.3580  -11.4726    0.1336 O   0  0  0  0  0  0
    3.4809  -12.5445    1.9875 C   0  0  0  0  0  0
    2.4872  -13.0791    3.0312 C   0  0  0  0  0  0
    2.1263  -12.0307    4.0914 C   0  0  0  0  0  0
    1.7809  -12.6846    5.4092 C   0  0  0  0  0  0
    2.6105  -12.9526    6.2715 O   0  0  0  0  0  0
    0.4727  -12.9449    5.5498 O   0  0  0  0  0  0
    1.2320  -13.4879    2.2481 C   0  0  0  0  0  0
    1.1517  -14.5280    1.6125 O   0  0  0  0  0  0
    0.2431  -12.5839    2.2774 O   0  0  0  0  0  0
    3.6853   -6.9666    2.2926 O   0  0  0  0  0  0
    4.9212   -7.3513    1.8001 C   0  0  0  0  0  0
    5.5558   -8.3217    2.1926 O   0  0  0  0  0  0
    5.4234   -6.4188    0.6899 C   0  0  0  0  0  0
    4.3430   -5.9297   -0.3241 C   0  0  0  0  0  0
    3.0652   -5.2800    0.2377 C   0  0  0  0  0  0
    3.3366   -4.3434    1.3794 C   0  0  0  0  0  0
    4.3283   -3.6378    1.5032 O   0  0  0  0  0  0
    2.3442   -4.3338    2.2824 O   0  0  0  0  0  0
    4.8748   -5.0045   -1.4256 C   0  0  0  0  0  0
    4.8692   -5.3078   -2.6024 O   0  0  0  0  0  0
    5.2561   -3.7762   -1.0166 O   0  0  0  0  0  0
    0.5615   -9.6638  -12.3885 H   0  0  0  0  0  0
    1.1438   -8.3915  -13.2028 H   0  0  0  0  0  0
   -0.1212   -6.2169   -8.9770 H   0  0  0  0  0  0
   -3.9139   -8.9047  -10.2317 H   0  0  0  0  0  0
   -0.3305  -11.0014   -2.3829 H   0  0  0  0  0  0
    0.1282  -13.6642    4.9865 H   0  0  0  0  0  0
   -0.4757  -12.7408    1.6159 H   0  0  0  0  0  0
    2.5816   -3.6602    2.9541 H   0  0  0  0  0  0
    5.2741   -3.6451   -0.0426 H   0  0  0  0  0  0
  1  2  1  0  0  0
  2  3  1  0  0  0
  3  4  1  0  0  0
  4  5  1  0  0  0
  5  6  1  0  0  0
  5  7  1  0  0  0
  7  8  1  0  0  0
  7 39  1  0  0  0
  8  9  1  0  0  0
  8 27  1  0  0  0
  9 10  1  0  0  0
 10 11  1  0  0  0
 10 12  1  0  0  0
 12 13  1  0  0  0
 13 14  1  0  0  0
 13 26  1  0  0  0
 14 15  1  0  0  0
 15 16  1  0  0  0
 16 17  1  0  0  0
 17 18  1  0  0  0
 18 19  1  0  0  0
 18 25  1  0  0  0
 19 20  1  0  0  0
 20 21  1  0  0  0
 20 24  1  0  0  0
 21 22  1  0  0  0
 21 23  1  0  0  0
 23 51  1  0  0  0
 23 52  1  0  0  0
 24 53  1  0  0  0
 25 54  1  0  0  0
 26 55  1  0  0  0
 27 28  1  0  0  0
 28 29  2  0  0  0
 28 30  1  0  0  0
 30 31  1  0  0  0
 31 32  1  0  0  0
 31 36  1  0  0  0
 32 33  1  0  0  0
 33 34  2  0  0  0
 33 35  1  0  0  0
 35 56  1  0  0  0
 36 37  2  0  0  0
 36 38  1  0  0  0
 38 57  1  0  0  0
 39 40  1  0  0  0
 40 41  2  0  0  0
 40 42  1  0  0  0
 42 43  1  0  0  0
 43 44  1  0  0  0
 43 48  1  0  0  0
 44 45  1  0  0  0
 45 46  2  0  0  0
 45 47  1  0  0  0
 47 58  1  0  0  0
 48 49  2  0  0  0
 48 50  1  0  0  0
 50 59  1  0  0  0
M  END
>  <AUTHOR>
    GENERATED BY OPEN BABEL 2.4.1

>  <CHROM.1>
-158.42020660,108.16856186,62.54426542,-46.43404228,108.48302730,169.16330304
-108.27725675,164.42924113,88.27537620,172.45388819,172.11337737,-153.00114854
-39.27482899,160.07255583,152.58988646,136.29991227,66.95991501,-63.43745284
-59.44733626,168.78551413,-128.60390055,82.85080239,-96.37845004,27.84618078
90.38414587,-61.97718057,-150.83144653,78.19460033,88.37032112,70.74109709
166.61461366,-32.85768868,-39.90038777,52.58905975,41.64101833,115.47090190
33.94307141,-176.58924331,8.30928264,1.52455535,-8.48737609,-1.05543355,-1.00404189
-1.17365049,-0.93869402

>  <COMPND>
    UNNAMED

>  <MASTER>
        0    0    0    0    0    0    0    0  109    0  109    0

>  <Name>
FB1.pdb

>  <RI>
0

>  <Rbt.Current_Directory>
/home/fc/tossine/FB1_39/p3/1_clust05

>  <Rbt.Executable>
rbdock/0.1.0

>  <Rbt.Library>
librxdock.so/0.1.0

>  <Rbt.Parameter_File>
/cluster/rxdock/data/scripts/dock.prm

>  <Rbt.Receptor>
rx_4.prm

>  <SCORE>
46.4071

>  <SCORE.INTER>
12.1727

>  <SCORE.INTER.CONST>
1

>  <SCORE.INTER.POLAR>
-2.73962

>  <SCORE.INTER.REPUL>
0.282074

>  <SCORE.INTER.ROT>
32

>  <SCORE.INTER.VDW>
-17.323

>  <SCORE.INTER.norm>
0.243454

>  <SCORE.INTRA>
25.818

>  <SCORE.INTRA.DIHEDRAL>
48.6471

>  <SCORE.INTRA.DIHEDRAL.0>
47.3121

>  <SCORE.INTRA.POLAR>
1.1748

>  <SCORE.INTRA.POLAR.0>
-1.47808

>  <SCORE.INTRA.REPUL>
0

>  <SCORE.INTRA.REPUL.0>
0

>  <SCORE.INTRA.VDW>
-2.49992

>  <SCORE.INTRA.VDW.0>
-2.78316

>  <SCORE.INTRA.norm>
0.51636

>  <SCORE.RESTR>
8.4164

>  <SCORE.RESTR.CAVITY>
8.4164

>  <SCORE.RESTR.norm>
0.168328

>  <SCORE.SYSTEM>
0

>  <SCORE.SYSTEM.CONST>
0

>  <SCORE.SYSTEM.DIHEDRAL>
0

>  <SCORE.SYSTEM.norm>
0

>  <SCORE.heavy>
50

>  <SCORE.norm>
0.928142

$$$$
