FB1.pdb
  RxDock  10072009253D
librxdock.so/0.1.0
 59 58  0  0  0  0  0  0  0  0999 V2000
    4.1273   -2.5430    1.9133 C   0  0  0  0  0  0
    4.2164   -3.0830    0.4879 C   0  0  0  0  0  0
    4.3301   -4.6163    0.4659 C   0  0  0  0  0  0
    3.2827   -5.3002   -0.4478 C   0  0  0  0  0  0
    3.3732   -6.8652   -0.5017 C   0  0  0  0  0  0
    4.8660   -7.2667   -0.4674 C   0  0  0  0  0  0
    2.5648   -7.5866    0.6576 C   0  0  0  0  0  0
    2.1886   -9.1270    0.4300 C   0  0  0  0  0  0
    1.6193  -10.1046    1.5474 C   0  0  0  0  0  0
    2.7357  -11.1045    2.2368 C   0  0  0  0  0  0
    2.0612  -11.8772    3.3691 C   0  0  0  0  0  0
    3.4669  -12.1260    1.2535 C   0  0  0  0  0  0
    4.6098  -13.1729    1.7186 C   0  0  0  0  0  0
    4.2899  -14.4301    2.5979 C   0  0  0  0  0  0
    5.4981  -15.1590    3.3451 C   0  0  0  0  0  0
    6.6517  -15.9477    2.6092 C   0  0  0  0  0  0
    7.9519  -16.2968    3.3807 C   0  0  0  0  0  0
    9.3100  -15.8521    2.7122 C   0  0  0  0  0  0
    9.4936  -14.3467    2.4831 C   0  0  0  0  0  0
   10.9077  -13.8264    2.0987 C   0  0  0  0  0  0
   11.1368  -12.3193    1.7800 C   0  0  0  0  0  0
   12.5708  -11.8984    1.4904 C   0  0  0  0  0  0
   10.2275  -11.8640    0.7112 N   0  0  0  0  0  0
   11.7270  -14.0921    3.2658 O   0  0  0  0  0  0
   10.3825  -16.3208    3.5367 O   0  0  0  0  0  0
    5.1495  -13.6987    0.4944 O   0  0  0  0  0  0
    1.1790   -9.1486   -0.6153 O   0  0  0  0  0  0
    0.8386  -10.3633   -1.1192 C   0  0  0  0  0  0
    1.4450  -11.4051   -0.9567 O   0  0  0  0  0  0
   -0.4777  -10.2302   -1.8341 C   0  0  0  0  0  0
   -0.3789   -9.3571   -3.0952 C   0  0  0  0  0  0
   -1.5057   -9.6403   -4.0969 C   0  0  0  0  0  0
   -1.5157   -8.6178   -5.2095 C   0  0  0  0  0  0
   -2.4475   -7.8474   -5.4143 O   0  0  0  0  0  0
   -0.4019   -8.6302   -5.9566 O   0  0  0  0  0  0
   -0.4610   -7.9034   -2.6094 C   0  0  0  0  0  0
    0.5095   -7.1636   -2.5517 O   0  0  0  0  0  0
   -1.6808   -7.5236   -2.2046 O   0  0  0  0  0  0
    3.2044   -7.3613    1.9767 O   0  0  0  0  0  0
    2.8598   -6.2258    2.6909 C   0  0  0  0  0  0
    2.3105   -5.2421    2.2123 O   0  0  0  0  0  0
    3.2437   -6.3293    4.1729 C   0  0  0  0  0  0
    2.1292   -6.8626    5.1257 C   0  0  0  0  0  0
    0.6815   -6.4032    4.8740 C   0  0  0  0  0  0
    0.1665   -6.8019    3.5211 C   0  0  0  0  0  0
    0.5740   -7.7404    2.8506 O   0  0  0  0  0  0
   -0.8364   -6.0154    3.1016 O   0  0  0  0  0  0
    2.0997   -8.3881    5.2814 C   0  0  0  0  0  0
    2.4256   -9.1491    4.3918 O   0  0  0  0  0  0
    1.7880   -8.8387    6.5147 O   0  0  0  0  0  0
   10.1037  -10.8552    0.7852 H   0  0  0  0  0  0
    9.2992  -12.2567    0.8829 H   0  0  0  0  0  0
   11.3660  -13.5014    3.9602 H   0  0  0  0  0  0
   10.2826  -17.2843    3.6471 H   0  0  0  0  0  0
    4.4416  -14.1828    0.0371 H   0  0  0  0  0  0
    0.2320   -9.3430   -5.7477 H   0  0  0  0  0  0
   -1.9887   -7.9556   -1.3695 H   0  0  0  0  0  0
   -1.0811   -6.3260    2.2044 H   0  0  0  0  0  0
    1.1471   -8.2855    7.0141 H   0  0  0  0  0  0
  1  2  1  0  0  0
  2  3  1  0  0  0
  3  4  1  0  0  0
  4  5  1  0  0  0
  5  6  1  0  0  0
  5  7  1  0  0  0
  7  8  1  0  0  0
  7 39  1  0  0  0
  8  9  1  0  0  0
  8 27  1  0  0  0
  9 10  1  0  0  0
 10 11  1  0  0  0
 10 12  1  0  0  0
 12 13  1  0  0  0
 13 14  1  0  0  0
 13 26  1  0  0  0
 14 15  1  0  0  0
 15 16  1  0  0  0
 16 17  1  0  0  0
 17 18  1  0  0  0
 18 19  1  0  0  0
 18 25  1  0  0  0
 19 20  1  0  0  0
 20 21  1  0  0  0
 20 24  1  0  0  0
 21 22  1  0  0  0
 21 23  1  0  0  0
 23 51  1  0  0  0
 23 52  1  0  0  0
 24 53  1  0  0  0
 25 54  1  0  0  0
 26 55  1  0  0  0
 27 28  1  0  0  0
 28 29  2  0  0  0
 28 30  1  0  0  0
 30 31  1  0  0  0
 31 32  1  0  0  0
 31 36  1  0  0  0
 32 33  1  0  0  0
 33 34  2  0  0  0
 33 35  1  0  0  0
 35 56  1  0  0  0
 36 37  2  0  0  0
 36 38  1  0  0  0
 38 57  1  0  0  0
 39 40  1  0  0  0
 40 41  2  0  0  0
 40 42  1  0  0  0
 42 43  1  0  0  0
 43 44  1  0  0  0
 43 48  1  0  0  0
 44 45  1  0  0  0
 45 46  2  0  0  0
 45 47  1  0  0  0
 47 58  1  0  0  0
 48 49  2  0  0  0
 48 50  1  0  0  0
 50 59  1  0  0  0
M  END
>  <AUTHOR>
    GENERATED BY OPEN BABEL 2.4.1

>  <CHROM.1>
127.59225682,179.67520779,-37.42164614,160.37760045,168.56302948,87.13757893
-99.36530326,170.81441140,174.76089306,178.88970369,71.10364380,-162.82137415
-63.71237066,-67.64791227,164.21042958,-126.69501390,60.66325329,167.89920587
55.57347932,176.72442597,176.71784277,-66.58750097,156.32521309,-13.60944148
67.07020709,157.84108833,170.56557371,104.83561548,-116.91014554,5.51585953
68.73204814,-17.50419226,-93.25016692,-39.07975726,60.67327049,-31.57355375
24.49719384,177.81699503,33.75866396,3.50210747,-9.69164121,1.08187681,-2.90646095
0.69646712,-2.39819323

>  <COMPND>
    UNNAMED

>  <MASTER>
        0    0    0    0    0    0    0    0  109    0  109    0

>  <Name>
FB1.pdb

>  <RI>
0

>  <Rbt.Current_Directory>
/home/fc/tossine/FB1_39/p3/1_clust05

>  <Rbt.Executable>
rbdock/0.1.0

>  <Rbt.Library>
librxdock.so/0.1.0

>  <Rbt.Parameter_File>
/cluster/rxdock/data/scripts/dock.prm

>  <Rbt.Receptor>
rx_3.prm

>  <SCORE>
31.2734

>  <SCORE.INTER>
9.19412

>  <SCORE.INTER.CONST>
1

>  <SCORE.INTER.POLAR>
-2.20506

>  <SCORE.INTER.REPUL>
0.329724

>  <SCORE.INTER.ROT>
32

>  <SCORE.INTER.VDW>
-22.3573

>  <SCORE.INTER.norm>
0.183882

>  <SCORE.INTRA>
18.3472

>  <SCORE.INTRA.DIHEDRAL>
25.7643

>  <SCORE.INTRA.DIHEDRAL.0>
47.3121

>  <SCORE.INTRA.POLAR>
1.47808

>  <SCORE.INTRA.POLAR.0>
-1.47808

>  <SCORE.INTRA.REPUL>
0

>  <SCORE.INTRA.REPUL.0>
0

>  <SCORE.INTRA.VDW>
0.439621

>  <SCORE.INTRA.VDW.0>
-2.78316

>  <SCORE.INTRA.norm>
0.366945

>  <SCORE.RESTR>
3.73204

>  <SCORE.RESTR.CAVITY>
3.73204

>  <SCORE.RESTR.norm>
0.0746408

>  <SCORE.SYSTEM>
0

>  <SCORE.SYSTEM.CONST>
0

>  <SCORE.SYSTEM.DIHEDRAL>
0

>  <SCORE.SYSTEM.norm>
0

>  <SCORE.heavy>
50

>  <SCORE.norm>
0.625468

$$$$
