FB1.pdb
  RxDock  10072007293D
librxdock.so/0.1.0
 59 58  0  0  0  0  0  0  0  0999 V2000
    2.1480   -4.5370   -0.8265 C   0  0  0  0  0  0
    1.1217   -5.6512   -0.6350 C   0  0  0  0  0  0
    0.8878   -5.9603    0.8530 C   0  0  0  0  0  0
    2.1442   -6.5082    1.5748 C   0  0  0  0  0  0
    2.8250   -7.7370    0.8769 C   0  0  0  0  0  0
    4.1202   -8.0780    1.6494 C   0  0  0  0  0  0
    1.8793   -9.0064    0.7662 C   0  0  0  0  0  0
    1.2518   -9.5649    2.1302 C   0  0  0  0  0  0
    1.2575  -11.0890    2.5834 C   0  0  0  0  0  0
    2.7276  -11.6746    3.0495 C   0  0  0  0  0  0
    2.5375  -13.0934    3.5833 C   0  0  0  0  0  0
    3.8709  -11.6704    1.9370 C   0  0  0  0  0  0
    4.1609  -12.9024    0.9288 C   0  0  0  0  0  0
    4.1452  -14.3965    1.4016 C   0  0  0  0  0  0
    5.5354  -15.1761    1.4946 C   0  0  0  0  0  0
    5.6725  -16.7094    1.8477 C   0  0  0  0  0  0
    7.0686  -17.2933    2.1903 C   0  0  0  0  0  0
    7.9270  -16.4957    3.2468 C   0  0  0  0  0  0
    9.2144  -15.8457    2.7246 C   0  0  0  0  0  0
   10.5761  -16.4804    3.1259 C   0  0  0  0  0  0
   11.8640  -16.1753    2.3050 C   0  0  0  0  0  0
   12.0858  -17.0156    1.0552 C   0  0  0  0  0  0
   11.9621  -14.7359    1.9969 N   0  0  0  0  0  0
   10.8459  -15.9629    4.4538 O   0  0  0  0  0  0
    7.0971  -15.4735    3.8090 O   0  0  0  0  0  0
    3.1298  -12.8138   -0.0691 O   0  0  0  0  0  0
    1.9338   -8.8667    3.2071 O   0  0  0  0  0  0
    1.1848   -8.0303    3.9718 C   0  0  0  0  0  0
    0.1291   -7.5167    3.6538 O   0  0  0  0  0  0
    1.8273   -7.9207    5.3269 C   0  0  0  0  0  0
    2.4589   -6.5409    5.5710 C   0  0  0  0  0  0
    3.3065   -6.0634    4.3848 C   0  0  0  0  0  0
    3.8472   -4.6731    4.6258 C   0  0  0  0  0  0
    4.3224   -4.3061    5.6950 O   0  0  0  0  0  0
    3.7600   -3.8725    3.5533 O   0  0  0  0  0  0
    1.2879   -5.5759    5.8021 C   0  0  0  0  0  0
    0.3937   -5.4050    4.9874 O   0  0  0  0  0  0
    1.3515   -4.8951    6.9547 O   0  0  0  0  0  0
    0.8470   -8.8153   -0.2815 O   0  0  0  0  0  0
   -0.0097   -9.8667   -0.5621 C   0  0  0  0  0  0
    0.0245  -10.9590   -0.0108 O   0  0  0  0  0  0
   -1.0268   -9.5150   -1.6558 C   0  0  0  0  0  0
   -0.4465   -8.8018   -2.9164 C   0  0  0  0  0  0
    0.9338   -8.1304   -2.7965 C   0  0  0  0  0  0
    1.2387   -7.2078   -3.9411 C   0  0  0  0  0  0
    2.3511   -6.8129   -4.2625 O   0  0  0  0  0  0
    0.1381   -6.8534   -4.6219 O   0  0  0  0  0  0
   -0.4211   -9.6663   -4.1831 C   0  0  0  0  0  0
    0.5272  -10.3620   -4.4887 O   0  0  0  0  0  0
   -1.5698   -9.6907   -4.8911 O   0  0  0  0  0  0
   12.8755  -14.5433    1.5882 H   0  0  0  0  0  0
   11.9507  -14.2124    2.8751 H   0  0  0  0  0  0
   11.6312  -16.4643    4.7591 H   0  0  0  0  0  0
    6.4111  -15.9032    4.3524 H   0  0  0  0  0  0
    3.4130  -13.3321   -0.8409 H   0  0  0  0  0  0
    4.0921   -2.9635    3.6838 H   0  0  0  0  0  0
    0.6245   -4.2364    7.0825 H   0  0  0  0  0  0
   -0.5822   -6.7604   -3.9633 H   0  0  0  0  0  0
   -2.3109   -9.1720   -4.5065 H   0  0  0  0  0  0
  1  2  1  0  0  0
  2  3  1  0  0  0
  3  4  1  0  0  0
  4  5  1  0  0  0
  5  6  1  0  0  0
  5  7  1  0  0  0
  7  8  1  0  0  0
  7 39  1  0  0  0
  8  9  1  0  0  0
  8 27  1  0  0  0
  9 10  1  0  0  0
 10 11  1  0  0  0
 10 12  1  0  0  0
 12 13  1  0  0  0
 13 14  1  0  0  0
 13 26  1  0  0  0
 14 15  1  0  0  0
 15 16  1  0  0  0
 16 17  1  0  0  0
 17 18  1  0  0  0
 18 19  1  0  0  0
 18 25  1  0  0  0
 19 20  1  0  0  0
 20 21  1  0  0  0
 20 24  1  0  0  0
 21 22  1  0  0  0
 21 23  1  0  0  0
 23 51  1  0  0  0
 23 52  1  0  0  0
 24 53  1  0  0  0
 25 54  1  0  0  0
 26 55  1  0  0  0
 27 28  1  0  0  0
 28 29  2  0  0  0
 28 30  1  0  0  0
 30 31  1  0  0  0
 31 32  1  0  0  0
 31 36  1  0  0  0
 32 33  1  0  0  0
 33 34  2  0  0  0
 33 35  1  0  0  0
 35 56  1  0  0  0
 36 37  2  0  0  0
 36 38  1  0  0  0
 38 57  1  0  0  0
 39 40  1  0  0  0
 40 41  2  0  0  0
 40 42  1  0  0  0
 42 43  1  0  0  0
 43 44  1  0  0  0
 43 48  1  0  0  0
 44 45  1  0  0  0
 45 46  2  0  0  0
 45 47  1  0  0  0
 47 58  1  0  0  0
 48 49  2  0  0  0
 48 50  1  0  0  0
 50 59  1  0  0  0
M  END
>  <AUTHOR>
    GENERATED BY OPEN BABEL 2.4.1

>  <CHROM.1>
-63.79474782,-52.40900010,175.15830502,-56.05000835,-131.59963773,176.08557786
72.00785628,114.42045758,174.37537307,-90.51738989,-41.82565691,-108.61419466
161.90005993,-175.19573199,-167.69554759,48.64828753,-113.71529988,-107.15670746
68.66827410,160.68191310,-83.66539621,171.81851040,171.40277651,-21.86798920
109.61097789,-46.63673412,176.78842665,-57.64461066,43.19334147,179.26261408
176.77870160,-0.47378365,46.01717351,-18.57377291,-166.08877329,-90.43979416
-161.14974327,36.36778750,-1.68438183,3.34375312,-10.03362105,1.41738280
2.81116593,-0.81238209,0.90071835

>  <COMPND>
    UNNAMED

>  <MASTER>
        0    0    0    0    0    0    0    0  109    0  109    0

>  <Name>
FB1.pdb

>  <RI>
0

>  <Rbt.Current_Directory>
/home/fc/tossine/FB1_39/p3/1_clust05

>  <Rbt.Executable>
rbdock/0.1.0

>  <Rbt.Library>
librxdock.so/0.1.0

>  <Rbt.Parameter_File>
/cluster/rxdock/data/scripts/dock.prm

>  <Rbt.Receptor>
rx_0.prm

>  <SCORE>
41.5391

>  <SCORE.INTER>
15.4347

>  <SCORE.INTER.CONST>
1

>  <SCORE.INTER.POLAR>
-1.7038

>  <SCORE.INTER.REPUL>
1.31798

>  <SCORE.INTER.ROT>
32

>  <SCORE.INTER.VDW>
-22.7623

>  <SCORE.INTER.norm>
0.308693

>  <SCORE.INTRA>
22.0752

>  <SCORE.INTRA.DIHEDRAL>
26.657

>  <SCORE.INTRA.DIHEDRAL.0>
47.3121

>  <SCORE.INTRA.POLAR>
1.47808

>  <SCORE.INTRA.POLAR.0>
-1.47808

>  <SCORE.INTRA.REPUL>
0

>  <SCORE.INTRA.REPUL.0>
0

>  <SCORE.INTRA.VDW>
3.72121

>  <SCORE.INTRA.VDW.0>
-2.78316

>  <SCORE.INTRA.norm>
0.441503

>  <SCORE.RESTR>
4.02924

>  <SCORE.RESTR.CAVITY>
4.02924

>  <SCORE.RESTR.norm>
0.0805849

>  <SCORE.SYSTEM>
0

>  <SCORE.SYSTEM.CONST>
0

>  <SCORE.SYSTEM.DIHEDRAL>
0

>  <SCORE.SYSTEM.norm>
0

>  <SCORE.heavy>
50

>  <SCORE.norm>
0.830782

$$$$
