FB1.pdb
  RxDock  10072009213D
librxdock.so/0.1.0
 59 58  0  0  0  0  0  0  0  0999 V2000
    4.4224   -1.9029    3.3595 C   0  0  0  0  0  0
    3.9335   -3.0958    2.5415 C   0  0  0  0  0  0
    3.3435   -4.1973    3.4375 C   0  0  0  0  0  0
    2.7005   -5.3613    2.6430 C   0  0  0  0  0  0
    2.1621   -6.5440    3.5215 C   0  0  0  0  0  0
    0.7690   -6.1504    4.0645 C   0  0  0  0  0  0
    2.0998   -7.9289    2.7495 C   0  0  0  0  0  0
    1.7523   -9.2291    3.6184 C   0  0  0  0  0  0
    2.4386  -10.6533    3.4487 C   0  0  0  0  0  0
    3.3689  -10.8249    2.0972 C   0  0  0  0  0  0
    4.3733   -9.6746    2.0504 C   0  0  0  0  0  0
    4.1388  -12.2138    1.9452 C   0  0  0  0  0  0
    3.5824  -13.6261    2.5060 C   0  0  0  0  0  0
    4.2930  -14.9894    2.2020 C   0  0  0  0  0  0
    4.3944  -15.4682    0.6822 C   0  0  0  0  0  0
    3.1630  -15.5695   -0.3016 C   0  0  0  0  0  0
    1.8985  -14.7109   -0.0348 C   0  0  0  0  0  0
    2.0909  -13.1452   -0.0584 C   0  0  0  0  0  0
    1.7884  -12.4435   -1.3883 C   0  0  0  0  0  0
    1.5693  -10.9040   -1.3765 C   0  0  0  0  0  0
    1.4917  -10.1054   -2.7113 C   0  0  0  0  0  0
    0.2362  -10.3056   -3.5486 C   0  0  0  0  0  0
    1.7490   -8.6711   -2.4813 N   0  0  0  0  0  0
    0.2718  -10.7220   -0.7542 O   0  0  0  0  0  0
    1.2507  -12.5816    0.9546 O   0  0  0  0  0  0
    3.6180  -13.4953    3.9371 O   0  0  0  0  0  0
    2.0046   -8.8710    5.0043 O   0  0  0  0  0  0
    1.4790   -9.6842    5.9570 C   0  0  0  0  0  0
    1.1530  -10.8468    5.8105 O   0  0  0  0  0  0
    1.4589   -8.9373    7.2621 C   0  0  0  0  0  0
    2.4129   -9.5432    8.3038 C   0  0  0  0  0  0
    2.3337   -8.8300    9.6597 C   0  0  0  0  0  0
    1.5266   -9.6343   10.6522 C   0  0  0  0  0  0
    1.9681  -10.6052   11.2572 O   0  0  0  0  0  0
    0.2738   -9.1830   10.8126 O   0  0  0  0  0  0
    1.9926  -11.0115    8.4572 C   0  0  0  0  0  0
    0.9247  -11.3522    8.9429 O   0  0  0  0  0  0
    2.9170  -11.8960    8.0584 O   0  0  0  0  0  0
    1.2503   -7.8287    1.5378 O   0  0  0  0  0  0
    1.8468   -7.4609    0.3433 C   0  0  0  0  0  0
    2.8793   -7.9478   -0.0984 O   0  0  0  0  0  0
    1.0651   -6.3593   -0.3847 C   0  0  0  0  0  0
    1.7695   -5.7400   -1.6316 C   0  0  0  0  0  0
    1.4693   -4.2697   -1.9761 C   0  0  0  0  0  0
    1.7471   -3.3318   -0.8370 C   0  0  0  0  0  0
    0.9335   -2.9643   -0.0006 O   0  0  0  0  0  0
    3.0266   -2.9290   -0.8043 O   0  0  0  0  0  0
    3.2939   -5.9076   -1.6516 C   0  0  0  0  0  0
    3.8907   -6.4104   -2.5831 O   0  0  0  0  0  0
    3.9507   -5.3608   -0.6072 O   0  0  0  0  0  0
    2.7045   -8.5524   -2.1475 H   0  0  0  0  0  0
    1.1589   -8.3530   -1.7093 H   0  0  0  0  0  0
    0.1867   -9.7519   -0.6402 H   0  0  0  0  0  0
    1.3208  -11.6106    0.9024 H   0  0  0  0  0  0
    4.5436  -13.3676    4.2044 H   0  0  0  0  0  0
   -0.2522   -9.6465   11.4923 H   0  0  0  0  0  0
    2.9848  -12.7027    8.6270 H   0  0  0  0  0  0
    3.1474   -2.4441    0.0393 H   0  0  0  0  0  0
    4.9290   -5.3287   -0.6969 H   0  0  0  0  0  0
  1  2  1  0  0  0
  2  3  1  0  0  0
  3  4  1  0  0  0
  4  5  1  0  0  0
  5  6  1  0  0  0
  5  7  1  0  0  0
  7  8  1  0  0  0
  7 39  1  0  0  0
  8  9  1  0  0  0
  8 27  1  0  0  0
  9 10  1  0  0  0
 10 11  1  0  0  0
 10 12  1  0  0  0
 12 13  1  0  0  0
 13 14  1  0  0  0
 13 26  1  0  0  0
 14 15  1  0  0  0
 15 16  1  0  0  0
 16 17  1  0  0  0
 17 18  1  0  0  0
 18 19  1  0  0  0
 18 25  1  0  0  0
 19 20  1  0  0  0
 20 21  1  0  0  0
 20 24  1  0  0  0
 21 22  1  0  0  0
 21 23  1  0  0  0
 23 51  1  0  0  0
 23 52  1  0  0  0
 24 53  1  0  0  0
 25 54  1  0  0  0
 26 55  1  0  0  0
 27 28  1  0  0  0
 28 29  2  0  0  0
 28 30  1  0  0  0
 30 31  1  0  0  0
 31 32  1  0  0  0
 31 36  1  0  0  0
 32 33  1  0  0  0
 33 34  2  0  0  0
 33 35  1  0  0  0
 35 56  1  0  0  0
 36 37  2  0  0  0
 36 38  1  0  0  0
 38 57  1  0  0  0
 39 40  1  0  0  0
 40 41  2  0  0  0
 40 42  1  0  0  0
 42 43  1  0  0  0
 43 44  1  0  0  0
 43 48  1  0  0  0
 44 45  1  0  0  0
 45 46  2  0  0  0
 45 47  1  0  0  0
 47 58  1  0  0  0
 48 49  2  0  0  0
 48 50  1  0  0  0
 50 59  1  0  0  0
M  END
>  <AUTHOR>
    GENERATED BY OPEN BABEL 2.4.1

>  <CHROM.1>
173.95714082,176.59869339,81.32610657,171.96788318,-139.69961524,89.93658677
-11.31206280,164.24097813,52.56847458,31.41170775,173.23973986,-62.40646794
-62.35732197,-52.42600071,23.69812160,61.63288983,94.77110702,163.07579232
-176.18908594,169.92899169,71.53355928,172.80633044,64.17797763,22.14114011
-113.52480714,-176.75625426,102.40431205,-67.12304961,78.85259482,-176.06016981
141.38261426,47.78976710,171.51542000,-149.77429690,55.66546523,125.57366047
-92.74256085,-171.20148182,-169.71107974,2.28541842,-9.02090644,2.51025955
0.82921565,1.53074769,-0.36576459

>  <COMPND>
    UNNAMED

>  <MASTER>
        0    0    0    0    0    0    0    0  109    0  109    0

>  <Name>
FB1.pdb

>  <RI>
0

>  <Rbt.Current_Directory>
/home/fc/tossine/FB1_39/p3/1_clust05

>  <Rbt.Executable>
rbdock/0.1.0

>  <Rbt.Library>
librxdock.so/0.1.0

>  <Rbt.Parameter_File>
/cluster/rxdock/data/scripts/dock.prm

>  <Rbt.Receptor>
rx_3.prm

>  <SCORE>
48.8034

>  <SCORE.INTER>
26.9824

>  <SCORE.INTER.CONST>
1

>  <SCORE.INTER.POLAR>
-1.27309

>  <SCORE.INTER.REPUL>
1.35274

>  <SCORE.INTER.ROT>
32

>  <SCORE.INTER.VDW>
-12.8528

>  <SCORE.INTER.norm>
0.539648

>  <SCORE.INTRA>
18.7965

>  <SCORE.INTRA.DIHEDRAL>
28.9069

>  <SCORE.INTRA.DIHEDRAL.0>
47.3121

>  <SCORE.INTRA.POLAR>
1.25404

>  <SCORE.INTRA.POLAR.0>
-1.47808

>  <SCORE.INTRA.REPUL>
0.00709514

>  <SCORE.INTRA.REPUL.0>
0

>  <SCORE.INTRA.VDW>
0.0438562

>  <SCORE.INTRA.VDW.0>
-2.78316

>  <SCORE.INTRA.norm>
0.375931

>  <SCORE.RESTR>
3.02444

>  <SCORE.RESTR.CAVITY>
3.02444

>  <SCORE.RESTR.norm>
0.0604888

>  <SCORE.SYSTEM>
0

>  <SCORE.SYSTEM.CONST>
0

>  <SCORE.SYSTEM.DIHEDRAL>
0

>  <SCORE.SYSTEM.norm>
0

>  <SCORE.heavy>
50

>  <SCORE.norm>
0.976067

$$$$
