FB1.pdb
  RxDock  10072008383D
librxdock.so/0.1.0
 59 58  0  0  0  0  0  0  0  0999 V2000
    0.2838  -13.2364    2.5776 C   0  0  0  0  0  0
    1.1430  -12.0946    3.1155 C   0  0  0  0  0  0
    0.3985  -10.7501    3.0672 C   0  0  0  0  0  0
    1.1677   -9.5933    3.7526 C   0  0  0  0  0  0
    1.1188   -8.2232    2.9903 C   0  0  0  0  0  0
    1.9500   -7.1931    3.7893 C   0  0  0  0  0  0
    1.6220   -8.3160    1.4883 C   0  0  0  0  0  0
    2.9902   -9.1077    1.2289 C   0  0  0  0  0  0
    3.3233   -9.9570   -0.0734 C   0  0  0  0  0  0
    2.5605  -11.4164   -0.1708 C   0  0  0  0  0  0
    1.8930  -11.5244   -1.5408 C   0  0  0  0  0  0
    3.4685  -12.7028    0.0847 C   0  0  0  0  0  0
    4.3538  -12.9385    1.4187 C   0  0  0  0  0  0
    5.7110  -13.7219    1.3988 C   0  0  0  0  0  0
    5.7222  -15.2307    1.9207 C   0  0  0  0  0  0
    4.9274  -15.7388    3.1875 C   0  0  0  0  0  0
    3.5057  -15.1857    3.4706 C   0  0  0  0  0  0
    2.3187  -15.8475    2.6692 C   0  0  0  0  0  0
    2.1864  -15.4448    1.1952 C   0  0  0  0  0  0
    3.3654  -15.7679    0.2339 C   0  0  0  0  0  0
    3.9993  -17.1902    0.2092 C   0  0  0  0  0  0
    3.0698  -18.3401   -0.1529 C   0  0  0  0  0  0
    5.2136  -17.2098   -0.6284 N   0  0  0  0  0  0
    2.8182  -15.5776   -1.0958 O   0  0  0  0  0  0
    2.4762  -17.2687    2.7401 O   0  0  0  0  0  0
    4.6894  -11.6181    1.8775 O   0  0  0  0  0  0
    4.0516   -8.1169    1.2935 O   0  0  0  0  0  0
    4.1707   -7.2708    0.2374 C   0  0  0  0  0  0
    4.8024   -7.4765   -0.7814 O   0  0  0  0  0  0
    3.3041   -6.0683    0.4908 C   0  0  0  0  0  0
    3.8610   -4.7917   -0.1593 C   0  0  0  0  0  0
    3.3920   -4.6168   -1.6094 C   0  0  0  0  0  0
    3.9055   -5.7346   -2.4870 C   0  0  0  0  0  0
    3.1968   -6.6361   -2.9213 O   0  0  0  0  0  0
    5.2178   -5.6474   -2.7501 O   0  0  0  0  0  0
    3.3553   -3.6252    0.7007 C   0  0  0  0  0  0
    2.5101   -2.8311    0.3168 O   0  0  0  0  0  0
    3.9545   -3.5179    1.8946 O   0  0  0  0  0  0
    0.5368   -8.7748    0.5874 O   0  0  0  0  0  0
    0.6978   -8.6057   -0.7777 C   0  0  0  0  0  0
    1.5878   -7.9452   -1.2974 O   0  0  0  0  0  0
   -0.3743   -9.3461   -1.5882 C   0  0  0  0  0  0
   -1.0276   -8.5333   -2.7488 C   0  0  0  0  0  0
   -2.1595   -7.5510   -2.3962 C   0  0  0  0  0  0
   -2.3776   -6.5044   -3.4505 C   0  0  0  0  0  0
   -2.3571   -5.2946   -3.2699 O   0  0  0  0  0  0
   -2.5876   -7.0351   -4.6648 O   0  0  0  0  0  0
   -0.0319   -7.7770   -3.6370 C   0  0  0  0  0  0
    0.5610   -6.7832   -3.2661 O   0  0  0  0  0  0
    0.2295   -8.3486   -4.8312 O   0  0  0  0  0  0
    5.6315  -18.1385   -0.5892 H   0  0  0  0  0  0
    5.9099  -16.5897   -0.2089 H   0  0  0  0  0  0
    2.5081  -14.6475   -1.1042 H   0  0  0  0  0  0
    1.6805  -17.6824    2.3575 H   0  0  0  0  0  0
    5.2052  -11.1795    1.1802 H   0  0  0  0  0  0
    5.6528   -4.8323   -2.4342 H   0  0  0  0  0  0
    4.5583   -4.2687    2.1193 H   0  0  0  0  0  0
   -2.7461   -6.2851   -5.2760 H   0  0  0  0  0  0
    0.9246   -7.9045   -5.3659 H   0  0  0  0  0  0
  1  2  1  0  0  0
  2  3  1  0  0  0
  3  4  1  0  0  0
  4  5  1  0  0  0
  5  6  1  0  0  0
  5  7  1  0  0  0
  7  8  1  0  0  0
  7 39  1  0  0  0
  8  9  1  0  0  0
  8 27  1  0  0  0
  9 10  1  0  0  0
 10 11  1  0  0  0
 10 12  1  0  0  0
 12 13  1  0  0  0
 13 14  1  0  0  0
 13 26  1  0  0  0
 14 15  1  0  0  0
 15 16  1  0  0  0
 16 17  1  0  0  0
 17 18  1  0  0  0
 18 19  1  0  0  0
 18 25  1  0  0  0
 19 20  1  0  0  0
 20 21  1  0  0  0
 20 24  1  0  0  0
 21 22  1  0  0  0
 21 23  1  0  0  0
 23 51  1  0  0  0
 23 52  1  0  0  0
 24 53  1  0  0  0
 25 54  1  0  0  0
 26 55  1  0  0  0
 27 28  1  0  0  0
 28 29  2  0  0  0
 28 30  1  0  0  0
 30 31  1  0  0  0
 31 32  1  0  0  0
 31 36  1  0  0  0
 32 33  1  0  0  0
 33 34  2  0  0  0
 33 35  1  0  0  0
 35 56  1  0  0  0
 36 37  2  0  0  0
 36 38  1  0  0  0
 38 57  1  0  0  0
 39 40  1  0  0  0
 40 41  2  0  0  0
 40 42  1  0  0  0
 42 43  1  0  0  0
 43 44  1  0  0  0
 43 48  1  0  0  0
 44 45  1  0  0  0
 45 46  2  0  0  0
 45 47  1  0  0  0
 47 58  1  0  0  0
 48 49  2  0  0  0
 48 50  1  0  0  0
 50 59  1  0  0  0
M  END
>  <AUTHOR>
    GENERATED BY OPEN BABEL 2.4.1

>  <CHROM.1>
173.32108489,138.83033837,-178.99294206,-46.71865686,147.11438916,164.65521570
-74.96408617,-74.12367739,129.48887235,55.58500796,-148.10639474,-102.16676505
-60.94369896,-40.66597839,38.76324194,81.55557340,-75.49518440,61.28418884
172.03714547,48.69175641,60.04818711,58.05892180,177.23788431,-86.66229700
149.71675718,87.36077531,-63.52368939,-109.73848549,107.07683947,-6.64443926
-7.63410066,-10.27013863,134.40630498,-81.38181389,159.80646227,-72.36937663
-124.60165323,178.27755920,-174.96349663,2.30393636,-9.99692768,-0.00252759
1.27465371,0.81594588,3.06269458

>  <COMPND>
    UNNAMED

>  <MASTER>
        0    0    0    0    0    0    0    0  109    0  109    0

>  <Name>
FB1.pdb

>  <RI>
0

>  <Rbt.Current_Directory>
/home/fc/tossine/FB1_39/p3/1_clust05

>  <Rbt.Executable>
rbdock/0.1.0

>  <Rbt.Library>
librxdock.so/0.1.0

>  <Rbt.Parameter_File>
/cluster/rxdock/data/scripts/dock.prm

>  <Rbt.Receptor>
rx_2.prm

>  <SCORE>
34.0795

>  <SCORE.INTER>
14.9996

>  <SCORE.INTER.CONST>
1

>  <SCORE.INTER.POLAR>
-2.59936

>  <SCORE.INTER.REPUL>
0.796484

>  <SCORE.INTER.ROT>
32

>  <SCORE.INTER.VDW>
-17.545

>  <SCORE.INTER.norm>
0.299993

>  <SCORE.INTRA>
17.2897

>  <SCORE.INTRA.DIHEDRAL>
27.7238

>  <SCORE.INTRA.DIHEDRAL.0>
47.3121

>  <SCORE.INTRA.POLAR>
1.47808

>  <SCORE.INTRA.POLAR.0>
-1.47808

>  <SCORE.INTRA.REPUL>
0.0571976

>  <SCORE.INTRA.REPUL.0>
0

>  <SCORE.INTRA.VDW>
-1.88364

>  <SCORE.INTRA.VDW.0>
-2.78316

>  <SCORE.INTRA.norm>
0.345794

>  <SCORE.RESTR>
1.79016

>  <SCORE.RESTR.CAVITY>
1.79016

>  <SCORE.RESTR.norm>
0.0358031

>  <SCORE.SYSTEM>
0

>  <SCORE.SYSTEM.CONST>
0

>  <SCORE.SYSTEM.DIHEDRAL>
0

>  <SCORE.SYSTEM.norm>
0

>  <SCORE.heavy>
50

>  <SCORE.norm>
0.68159

$$$$
