FB1.pdb
  RxDock  10072009183D
librxdock.so/0.1.0
 59 58  0  0  0  0  0  0  0  0999 V2000
   -1.4618   -9.3333   -3.6361 C   0  0  0  0  0  0
   -0.9215  -10.5683   -2.9190 C   0  0  0  0  0  0
   -0.8610  -10.3618   -1.3965 C   0  0  0  0  0  0
    0.0042   -9.1491   -0.9717 C   0  0  0  0  0  0
    1.5059   -9.2185   -1.4197 C   0  0  0  0  0  0
    1.6053   -8.6882   -2.8686 C   0  0  0  0  0  0
    2.4907   -8.4294   -0.4578 C   0  0  0  0  0  0
    2.2326   -6.8578   -0.2856 C   0  0  0  0  0  0
    2.5481   -6.0170    1.0265 C   0  0  0  0  0  0
    2.0062   -6.6865    2.4334 C   0  0  0  0  0  0
    0.6153   -7.2696    2.1890 C   0  0  0  0  0  0
    2.9439   -7.7973    3.0904 C   0  0  0  0  0  0
    2.4665   -8.8154    4.2541 C   0  0  0  0  0  0
    1.5765   -8.3559    5.4594 C   0  0  0  0  0  0
    1.0664   -9.4637    6.4898 C   0  0  0  0  0  0
    1.9196  -10.7114    6.9479 C   0  0  0  0  0  0
    1.8259  -11.2043    8.4161 C   0  0  0  0  0  0
    1.7105  -10.0911    9.5281 C   0  0  0  0  0  0
    1.8412  -10.5657   10.9807 C   0  0  0  0  0  0
    2.0018   -9.4932   12.0953 C   0  0  0  0  0  0
    1.4321   -8.0571   11.8995 C   0  0  0  0  0  0
   -0.0261   -7.9589   11.4736 C   0  0  0  0  0  0
    1.6917   -7.2222   13.0879 N   0  0  0  0  0  0
    1.2787  -10.0324   13.2312 O   0  0  0  0  0  0
    2.7226   -9.1099    9.2775 O   0  0  0  0  0  0
    1.6898   -9.8158    3.5740 O   0  0  0  0  0  0
    3.0058   -6.2025   -1.3274 O   0  0  0  0  0  0
    4.3577   -6.3136   -1.2545 C   0  0  0  0  0  0
    4.9779   -7.2155   -0.7240 O   0  0  0  0  0  0
    4.9709   -5.1816   -2.0316 C   0  0  0  0  0  0
    4.3689   -5.0370   -3.4384 C   0  0  0  0  0  0
    4.9998   -3.8865   -4.2333 C   0  0  0  0  0  0
    4.4397   -3.8211   -5.6352 C   0  0  0  0  0  0
    3.4441   -4.4387   -5.9974 O   0  0  0  0  0  0
    5.1368   -3.0177   -6.4522 O   0  0  0  0  0  0
    4.6312   -6.3721   -4.1488 C   0  0  0  0  0  0
    3.8286   -7.2931   -4.1553 O   0  0  0  0  0  0
    5.8385   -6.4652   -4.7230 O   0  0  0  0  0  0
    2.6256   -9.1155    0.8503 O   0  0  0  0  0  0
    2.1401  -10.4070    0.9702 C   0  0  0  0  0  0
    0.9786  -10.6930    1.2301 O   0  0  0  0  0  0
    3.2283  -11.4636    0.7388 C   0  0  0  0  0  0
    2.8872  -12.9056    1.2275 C   0  0  0  0  0  0
    3.2907  -14.0885    0.3284 C   0  0  0  0  0  0
    2.3797  -14.2655   -0.8519 C   0  0  0  0  0  0
    1.8938  -15.3242   -1.2258 O   0  0  0  0  0  0
    2.1188  -13.1073   -1.4771 O   0  0  0  0  0  0
    3.3717  -13.2293    2.6463 C   0  0  0  0  0  0
    4.1125  -14.1600    2.8947 O   0  0  0  0  0  0
    3.0073  -12.3453    3.5987 O   0  0  0  0  0  0
    1.4339   -6.2581   12.8816 H   0  0  0  0  0  0
    2.7002   -7.1954   13.2542 H   0  0  0  0  0  0
    1.2783   -9.3065   13.8904 H   0  0  0  0  0  0
    2.6193   -8.3929    9.9300 H   0  0  0  0  0  0
    0.8535   -9.4078    3.2934 H   0  0  0  0  0  0
    5.9643   -2.6594   -6.0777 H   0  0  0  0  0  0
    6.3475   -5.6172   -4.7472 H   0  0  0  0  0  0
    1.6417  -13.3347   -2.3030 H   0  0  0  0  0  0
    2.3825  -11.6457    3.3050 H   0  0  0  0  0  0
  1  2  1  0  0  0
  2  3  1  0  0  0
  3  4  1  0  0  0
  4  5  1  0  0  0
  5  6  1  0  0  0
  5  7  1  0  0  0
  7  8  1  0  0  0
  7 39  1  0  0  0
  8  9  1  0  0  0
  8 27  1  0  0  0
  9 10  1  0  0  0
 10 11  1  0  0  0
 10 12  1  0  0  0
 12 13  1  0  0  0
 13 14  1  0  0  0
 13 26  1  0  0  0
 14 15  1  0  0  0
 15 16  1  0  0  0
 16 17  1  0  0  0
 17 18  1  0  0  0
 18 19  1  0  0  0
 18 25  1  0  0  0
 19 20  1  0  0  0
 20 21  1  0  0  0
 20 24  1  0  0  0
 21 22  1  0  0  0
 21 23  1  0  0  0
 23 51  1  0  0  0
 23 52  1  0  0  0
 24 53  1  0  0  0
 25 54  1  0  0  0
 26 55  1  0  0  0
 27 28  1  0  0  0
 28 29  2  0  0  0
 28 30  1  0  0  0
 30 31  1  0  0  0
 31 32  1  0  0  0
 31 36  1  0  0  0
 32 33  1  0  0  0
 33 34  2  0  0  0
 33 35  1  0  0  0
 35 56  1  0  0  0
 36 37  2  0  0  0
 36 38  1  0  0  0
 38 57  1  0  0  0
 39 40  1  0  0  0
 40 41  2  0  0  0
 40 42  1  0  0  0
 42 43  1  0  0  0
 43 44  1  0  0  0
 43 48  1  0  0  0
 44 45  1  0  0  0
 45 46  2  0  0  0
 45 47  1  0  0  0
 47 58  1  0  0  0
 48 49  2  0  0  0
 48 50  1  0  0  0
 50 59  1  0  0  0
M  END
>  <AUTHOR>
    GENERATED BY OPEN BABEL 2.4.1

>  <CHROM.1>
-57.76666695,-59.72753415,84.33169678,-59.96874399,149.10943215,12.55082679
-47.78886615,-64.98125430,-40.90386914,-165.15589966,-41.68889316,175.25210010
-71.10800237,36.86399116,142.82265967,-38.05782028,-170.66354153,168.76053982
176.58154158,26.85799947,51.40593422,-172.67166452,171.75189840,26.26071890
-49.55255199,-179.70666348,176.87141754,92.93481880,12.67032014,6.58970447
-9.60123670,-85.10835884,163.89569735,138.87789560,-76.61452692,-122.71696757
-133.14883482,171.30984439,6.93359619,2.44144446,-8.95411818,1.78278324,0.96772375
-1.34747055,-1.95361977

>  <COMPND>
    UNNAMED

>  <MASTER>
        0    0    0    0    0    0    0    0  109    0  109    0

>  <Name>
FB1.pdb

>  <RI>
0

>  <Rbt.Current_Directory>
/home/fc/tossine/FB1_39/p3/1_clust05

>  <Rbt.Executable>
rbdock/0.1.0

>  <Rbt.Library>
librxdock.so/0.1.0

>  <Rbt.Parameter_File>
/cluster/rxdock/data/scripts/dock.prm

>  <Rbt.Receptor>
rx_3.prm

>  <SCORE>
47.5102

>  <SCORE.INTER>
17.8496

>  <SCORE.INTER.CONST>
1

>  <SCORE.INTER.POLAR>
-1.1115

>  <SCORE.INTER.REPUL>
0.572269

>  <SCORE.INTER.ROT>
32

>  <SCORE.INTER.VDW>
-18.6326

>  <SCORE.INTER.norm>
0.356992

>  <SCORE.INTRA>
22.4591

>  <SCORE.INTRA.DIHEDRAL>
24.5233

>  <SCORE.INTRA.DIHEDRAL.0>
47.3121

>  <SCORE.INTRA.POLAR>
0.273492

>  <SCORE.INTRA.POLAR.0>
-1.47808

>  <SCORE.INTRA.REPUL>
0

>  <SCORE.INTRA.REPUL.0>
0

>  <SCORE.INTRA.VDW>
9.26754

>  <SCORE.INTRA.VDW.0>
-2.78316

>  <SCORE.INTRA.norm>
0.449182

>  <SCORE.RESTR>
7.20148

>  <SCORE.RESTR.CAVITY>
7.20148

>  <SCORE.RESTR.norm>
0.14403

>  <SCORE.SYSTEM>
0

>  <SCORE.SYSTEM.CONST>
0

>  <SCORE.SYSTEM.DIHEDRAL>
0

>  <SCORE.SYSTEM.norm>
0

>  <SCORE.heavy>
50

>  <SCORE.norm>
0.950204

$$$$
