FB1.pdb
  RxDock  10072007283D
librxdock.so/0.1.0
 59 58  0  0  0  0  0  0  0  0999 V2000
    3.2738   -5.7837   -3.9964 C   0  0  0  0  0  0
    3.8721   -6.4693   -2.7703 C   0  0  0  0  0  0
    4.4576   -5.4514   -1.7777 C   0  0  0  0  0  0
    5.1235   -6.1066   -0.5420 C   0  0  0  0  0  0
    4.1368   -6.8482    0.4259 C   0  0  0  0  0  0
    2.9777   -5.8845    0.7696 C   0  0  0  0  0  0
    3.5835   -8.2154   -0.1595 C   0  0  0  0  0  0
    3.3523   -9.4101    0.8822 C   0  0  0  0  0  0
    4.3539  -10.6215    1.1222 C   0  0  0  0  0  0
    3.6358  -12.0918    1.3320 C   0  0  0  0  0  0
    3.0442  -12.5378   -0.0042 C   0  0  0  0  0  0
    4.5627  -13.2495    1.9196 C   0  0  0  0  0  0
    5.8872  -13.8145    1.1813 C   0  0  0  0  0  0
    7.2925  -13.1403    1.3450 C   0  0  0  0  0  0
    8.4240  -13.9327    2.1456 C   0  0  0  0  0  0
    9.8039  -13.3050    2.5889 C   0  0  0  0  0  0
   10.7501  -12.7037    1.5163 C   0  0  0  0  0  0
   12.2393  -12.4327    1.9613 C   0  0  0  0  0  0
   13.0060  -11.3738    1.1593 C   0  0  0  0  0  0
   14.2364  -11.8291    0.3243 C   0  0  0  0  0  0
   14.8872  -10.8683   -0.7144 C   0  0  0  0  0  0
   15.8434  -11.5007   -1.7159 C   0  0  0  0  0  0
   13.8595  -10.0638   -1.4021 N   0  0  0  0  0  0
   15.2744  -12.0797    1.3059 O   0  0  0  0  0  0
   12.2242  -12.0383    3.3375 O   0  0  0  0  0  0
    6.0507  -15.1503    1.6868 O   0  0  0  0  0  0
    3.2188   -8.7893    2.1896 O   0  0  0  0  0  0
    2.1208   -9.1172    2.9190 C   0  0  0  0  0  0
    1.9656  -10.1341    3.5680 O   0  0  0  0  0  0
    1.1584   -7.9624    2.8759 C   0  0  0  0  0  0
    0.5550   -7.6451    4.2534 C   0  0  0  0  0  0
    1.6247   -7.3186    5.3035 C   0  0  0  0  0  0
    1.1285   -7.6192    6.6988 C   0  0  0  0  0  0
    1.3592   -6.9058    7.6691 O   0  0  0  0  0  0
    0.4055   -8.7461    6.7775 O   0  0  0  0  0  0
   -0.3619   -6.4323    4.0430 C   0  0  0  0  0  0
   -0.9883   -6.2407    3.0119 O   0  0  0  0  0  0
   -0.3821   -5.5697    5.0685 O   0  0  0  0  0  0
    2.3940   -7.9887   -1.0159 O   0  0  0  0  0  0
    1.8411   -9.0731   -1.6765 C   0  0  0  0  0  0
    2.1443  -10.2413   -1.4723 O   0  0  0  0  0  0
    0.7885   -8.6522   -2.7105 C   0  0  0  0  0  0
   -0.6962   -8.9223   -2.3141 C   0  0  0  0  0  0
   -1.6752   -7.7340   -2.3238 C   0  0  0  0  0  0
   -1.4646   -6.8101   -3.4885 C   0  0  0  0  0  0
   -0.5654   -5.9872   -3.5930 O   0  0  0  0  0  0
   -2.3781   -6.9866   -4.4553 O   0  0  0  0  0  0
   -1.3646  -10.0661   -3.0869 C   0  0  0  0  0  0
   -1.8521  -11.0359   -2.5405 O   0  0  0  0  0  0
   -1.4749   -9.8786   -4.4188 O   0  0  0  0  0  0
   13.6464   -9.2418   -0.8387 H   0  0  0  0  0  0
   12.9885  -10.5989   -1.4273 H   0  0  0  0  0  0
   16.0003  -12.4975    0.7960 H   0  0  0  0  0  0
   13.1451  -11.8915    3.6220 H   0  0  0  0  0  0
    5.2471  -15.6532    1.4729 H   0  0  0  0  0  0
    0.5636   -9.3933    6.0636 H   0  0  0  0  0  0
   -0.8131   -4.7024    4.8664 H   0  0  0  0  0  0
   -3.0367   -7.6240   -4.1070 H   0  0  0  0  0  0
   -1.0350   -9.0713   -4.7668 H   0  0  0  0  0  0
  1  2  1  0  0  0
  2  3  1  0  0  0
  3  4  1  0  0  0
  4  5  1  0  0  0
  5  6  1  0  0  0
  5  7  1  0  0  0
  7  8  1  0  0  0
  7 39  1  0  0  0
  8  9  1  0  0  0
  8 27  1  0  0  0
  9 10  1  0  0  0
 10 11  1  0  0  0
 10 12  1  0  0  0
 12 13  1  0  0  0
 13 14  1  0  0  0
 13 26  1  0  0  0
 14 15  1  0  0  0
 15 16  1  0  0  0
 16 17  1  0  0  0
 17 18  1  0  0  0
 18 19  1  0  0  0
 18 25  1  0  0  0
 19 20  1  0  0  0
 20 21  1  0  0  0
 20 24  1  0  0  0
 21 22  1  0  0  0
 21 23  1  0  0  0
 23 51  1  0  0  0
 23 52  1  0  0  0
 24 53  1  0  0  0
 25 54  1  0  0  0
 26 55  1  0  0  0
 27 28  1  0  0  0
 28 29  2  0  0  0
 28 30  1  0  0  0
 30 31  1  0  0  0
 31 32  1  0  0  0
 31 36  1  0  0  0
 32 33  1  0  0  0
 33 34  2  0  0  0
 33 35  1  0  0  0
 35 56  1  0  0  0
 36 37  2  0  0  0
 36 38  1  0  0  0
 38 57  1  0  0  0
 39 40  1  0  0  0
 40 41  2  0  0  0
 40 42  1  0  0  0
 42 43  1  0  0  0
 43 44  1  0  0  0
 43 48  1  0  0  0
 44 45  1  0  0  0
 45 46  2  0  0  0
 45 47  1  0  0  0
 47 58  1  0  0  0
 48 49  2  0  0  0
 48 50  1  0  0  0
 50 59  1  0  0  0
M  END
>  <AUTHOR>
    GENERATED BY OPEN BABEL 2.4.1

>  <CHROM.1>
-177.83856401,-67.19573270,-51.05787461,144.31164330,-99.50262661,175.81140550
-139.86362172,127.34748272,70.39426346,-61.87334576,85.61942110,111.32352844
58.85470965,-170.02898372,-57.72952032,-164.97582669,-156.57838478,-115.11424280
178.61339906,168.32690154,-165.21427538,171.47993632,85.10663913,79.24644443
-135.72915962,58.16186819,-154.43728765,33.35157602,-140.21719491,22.50046532
167.67748642,10.35996145,-105.95593674,124.30760231,40.20886626,122.31918880
-76.42784699,6.46176947,5.92164880,4.27620021,-9.45967479,0.66794006,-3.05916008
-0.33126046,1.61121906

>  <COMPND>
    UNNAMED

>  <MASTER>
        0    0    0    0    0    0    0    0  109    0  109    0

>  <Name>
FB1.pdb

>  <RI>
0

>  <Rbt.Current_Directory>
/home/fc/tossine/FB1_39/p3/1_clust05

>  <Rbt.Executable>
rbdock/0.1.0

>  <Rbt.Library>
librxdock.so/0.1.0

>  <Rbt.Parameter_File>
/cluster/rxdock/data/scripts/dock.prm

>  <Rbt.Receptor>
rx_0.prm

>  <SCORE>
56.6167

>  <SCORE.INTER>
27.155

>  <SCORE.INTER.CONST>
1

>  <SCORE.INTER.POLAR>
-1.03923

>  <SCORE.INTER.REPUL>
1.23856

>  <SCORE.INTER.ROT>
32

>  <SCORE.INTER.VDW>
-12.9044

>  <SCORE.INTER.norm>
0.5431

>  <SCORE.INTRA>
29.4572

>  <SCORE.INTRA.DIHEDRAL>
40.8686

>  <SCORE.INTRA.DIHEDRAL.0>
47.3121

>  <SCORE.INTRA.POLAR>
1.47808

>  <SCORE.INTRA.POLAR.0>
-1.47808

>  <SCORE.INTRA.REPUL>
0

>  <SCORE.INTRA.REPUL.0>
0

>  <SCORE.INTRA.VDW>
3.99747

>  <SCORE.INTRA.VDW.0>
-2.78316

>  <SCORE.INTRA.norm>
0.589145

>  <SCORE.RESTR>
0.00443666

>  <SCORE.RESTR.CAVITY>
0.00443666

>  <SCORE.RESTR.norm>
8.87332e-05

>  <SCORE.SYSTEM>
0

>  <SCORE.SYSTEM.CONST>
0

>  <SCORE.SYSTEM.DIHEDRAL>
0

>  <SCORE.SYSTEM.norm>
0

>  <SCORE.heavy>
50

>  <SCORE.norm>
1.13233

$$$$
