FB1.pdb
  RxDock  10072008103D
librxdock.so/0.1.0
 59 58  0  0  0  0  0  0  0  0999 V2000
    0.2106  -10.5358   -2.0469 C   0  0  0  0  0  0
    1.3336  -11.2191   -1.2701 C   0  0  0  0  0  0
    1.7219  -12.5676   -1.8986 C   0  0  0  0  0  0
    2.5905  -13.4538   -0.9713 C   0  0  0  0  0  0
    1.8261  -14.6364   -0.2802 C   0  0  0  0  0  0
    1.5781  -15.7375   -1.3370 C   0  0  0  0  0  0
    2.5809  -15.2244    0.9856 C   0  0  0  0  0  0
    3.9502  -16.0102    0.7139 C   0  0  0  0  0  0
    4.9032  -16.6043    1.8395 C   0  0  0  0  0  0
    5.7431  -15.4818    2.7089 C   0  0  0  0  0  0
    4.7562  -14.7019    3.5760 C   0  0  0  0  0  0
    6.9289  -16.0401    3.6183 C   0  0  0  0  0  0
    8.4581  -16.2049    3.1153 C   0  0  0  0  0  0
    8.9113  -17.3719    2.1725 C   0  0  0  0  0  0
   10.4482  -17.8041    2.1874 C   0  0  0  0  0  0
   11.6416  -16.8312    2.5394 C   0  0  0  0  0  0
   11.7331  -16.2166    3.9611 C   0  0  0  0  0  0
   12.2550  -14.7307    4.0552 C   0  0  0  0  0  0
   11.6731  -13.7405    3.0386 C   0  0  0  0  0  0
   12.0516  -12.2382    3.1727 C   0  0  0  0  0  0
   13.4265  -11.8189    3.7720 C   0  0  0  0  0  0
   13.9997  -10.4935    3.2904 C   0  0  0  0  0  0
   13.3967  -11.8761    5.2459 N   0  0  0  0  0  0
   12.0683  -11.7403    1.8105 O   0  0  0  0  0  0
   11.9747  -14.2467    5.3732 O   0  0  0  0  0  0
    8.7379  -15.0002    2.3823 O   0  0  0  0  0  0
    3.6037  -17.1585   -0.1070 O   0  0  0  0  0  0
    2.7090  -18.0397    0.4110 C   0  0  0  0  0  0
    1.9314  -17.8242    1.3211 O   0  0  0  0  0  0
    2.7655  -19.3062   -0.3977 C   0  0  0  0  0  0
    3.5463  -19.1341   -1.7104 C   0  0  0  0  0  0
    4.9843  -19.6596   -1.6132 C   0  0  0  0  0  0
    5.9691  -18.5256   -1.4475 C   0  0  0  0  0  0
    6.5900  -18.0249   -2.3788 O   0  0  0  0  0  0
    6.1006  -18.1134   -0.1779 O   0  0  0  0  0  0
    2.7684  -19.9255   -2.7708 C   0  0  0  0  0  0
    2.5644  -19.5058   -3.8998 O   0  0  0  0  0  0
    2.2856  -21.0995   -2.3411 O   0  0  0  0  0  0
    2.7324  -14.1964    2.0440 O   0  0  0  0  0  0
    1.6165  -13.4666    2.4185 C   0  0  0  0  0  0
    0.7770  -13.8431    3.2258 O   0  0  0  0  0  0
    1.5391  -12.1108    1.7044 C   0  0  0  0  0  0
    1.9953  -10.8765    2.5428 C   0  0  0  0  0  0
    2.0317   -9.5033    1.8476 C   0  0  0  0  0  0
    3.3634   -9.1955    1.2261 C   0  0  0  0  0  0
    3.8374   -8.0784    1.0709 O   0  0  0  0  0  0
    4.0254  -10.3026    0.8565 O   0  0  0  0  0  0
    1.2455  -10.6935    3.8681 C   0  0  0  0  0  0
    1.7976  -10.7324    4.9500 O   0  0  0  0  0  0
   -0.0617  -10.3773    3.7554 O   0  0  0  0  0  0
   13.0436  -10.9912    5.6075 H   0  0  0  0  0  0
   14.3577  -11.9365    5.5899 H   0  0  0  0  0  0
   11.2277  -11.2439    1.7190 H   0  0  0  0  0  0
   12.1766  -13.2931    5.3964 H   0  0  0  0  0  0
    8.5594  -14.2444    2.9666 H   0  0  0  0  0  0
    6.8237  -17.4766   -0.0195 H   0  0  0  0  0  0
    2.7810  -21.4928   -1.5803 H   0  0  0  0  0  0
    4.9291  -10.0187    0.6035 H   0  0  0  0  0  0
   -0.3984  -10.3064    2.8346 H   0  0  0  0  0  0
  1  2  1  0  0  0
  2  3  1  0  0  0
  3  4  1  0  0  0
  4  5  1  0  0  0
  5  6  1  0  0  0
  5  7  1  0  0  0
  7  8  1  0  0  0
  7 39  1  0  0  0
  8  9  1  0  0  0
  8 27  1  0  0  0
  9 10  1  0  0  0
 10 11  1  0  0  0
 10 12  1  0  0  0
 12 13  1  0  0  0
 13 14  1  0  0  0
 13 26  1  0  0  0
 14 15  1  0  0  0
 15 16  1  0  0  0
 16 17  1  0  0  0
 17 18  1  0  0  0
 18 19  1  0  0  0
 18 25  1  0  0  0
 19 20  1  0  0  0
 20 21  1  0  0  0
 20 24  1  0  0  0
 21 22  1  0  0  0
 21 23  1  0  0  0
 23 51  1  0  0  0
 23 52  1  0  0  0
 24 53  1  0  0  0
 25 54  1  0  0  0
 26 55  1  0  0  0
 27 28  1  0  0  0
 28 29  2  0  0  0
 28 30  1  0  0  0
 30 31  1  0  0  0
 31 32  1  0  0  0
 31 36  1  0  0  0
 32 33  1  0  0  0
 33 34  2  0  0  0
 33 35  1  0  0  0
 35 56  1  0  0  0
 36 37  2  0  0  0
 36 38  1  0  0  0
 38 57  1  0  0  0
 39 40  1  0  0  0
 40 41  2  0  0  0
 40 42  1  0  0  0
 42 43  1  0  0  0
 43 44  1  0  0  0
 43 48  1  0  0  0
 44 45  1  0  0  0
 45 46  2  0  0  0
 45 47  1  0  0  0
 47 58  1  0  0  0
 48 49  2  0  0  0
 48 50  1  0  0  0
 50 59  1  0  0  0
M  END
>  <AUTHOR>
    GENERATED BY OPEN BABEL 2.4.1

>  <CHROM.1>
-165.64605348,103.20622188,74.90792183,-68.30130248,176.35340931,49.32196267
-71.74894681,-59.32548888,68.78712682,90.06799190,-76.08944061,-156.21822906
55.60722930,-28.23582239,63.65900779,-143.17666623,44.48414088,174.33736828
-171.93290769,29.92863793,151.74634361,102.87677746,-86.59662991,19.11489408
-12.67849697,99.60835755,-102.26641757,137.39485414,-96.43848230,171.23986720
-25.03417266,83.38515801,-101.16630702,175.85876245,-91.09730708,118.13665827
-150.85201006,-170.88296332,0.59770124,5.41734849,-14.61564535,1.33436916
2.89256844,0.28425426,-2.74449600

>  <COMPND>
    UNNAMED

>  <MASTER>
        0    0    0    0    0    0    0    0  109    0  109    0

>  <Name>
FB1.pdb

>  <RI>
0

>  <Rbt.Current_Directory>
/home/fc/tossine/FB1_39/p3/1_clust05

>  <Rbt.Executable>
rbdock/0.1.0

>  <Rbt.Library>
librxdock.so/0.1.0

>  <Rbt.Parameter_File>
/cluster/rxdock/data/scripts/dock.prm

>  <Rbt.Receptor>
rx_1.prm

>  <SCORE>
35.9109

>  <SCORE.INTER>
5.49691

>  <SCORE.INTER.CONST>
1

>  <SCORE.INTER.POLAR>
-3.35024

>  <SCORE.INTER.REPUL>
0.248207

>  <SCORE.INTER.ROT>
32

>  <SCORE.INTER.VDW>
-21.7533

>  <SCORE.INTER.norm>
0.109938

>  <SCORE.INTRA>
26.2215

>  <SCORE.INTRA.DIHEDRAL>
41.1623

>  <SCORE.INTRA.DIHEDRAL.0>
47.3121

>  <SCORE.INTRA.POLAR>
0.478077

>  <SCORE.INTRA.POLAR.0>
-1.47808

>  <SCORE.INTRA.REPUL>
0

>  <SCORE.INTRA.REPUL.0>
0

>  <SCORE.INTRA.VDW>
4.01483

>  <SCORE.INTRA.VDW.0>
-2.78316

>  <SCORE.INTRA.norm>
0.524429

>  <SCORE.RESTR>
4.19249

>  <SCORE.RESTR.CAVITY>
4.19249

>  <SCORE.RESTR.norm>
0.0838498

>  <SCORE.SYSTEM>
0

>  <SCORE.SYSTEM.CONST>
0

>  <SCORE.SYSTEM.DIHEDRAL>
0

>  <SCORE.SYSTEM.norm>
0

>  <SCORE.heavy>
50

>  <SCORE.norm>
0.718217

$$$$
