FB1.pdb
  RxDock  10072007283D
librxdock.so/0.1.0
 59 58  0  0  0  0  0  0  0  0999 V2000
   -1.7952   -8.5000   -5.2464 C   0  0  0  0  0  0
   -1.5391   -7.6627   -3.9956 C   0  0  0  0  0  0
   -0.0571   -7.6884   -3.5867 C   0  0  0  0  0  0
    0.3822   -9.0258   -2.9403 C   0  0  0  0  0  0
   -0.1789   -9.2790   -1.4975 C   0  0  0  0  0  0
   -0.8996  -10.6470   -1.4900 C   0  0  0  0  0  0
    0.9319   -9.2165   -0.3661 C   0  0  0  0  0  0
    1.4812   -7.7654    0.0322 C   0  0  0  0  0  0
    2.8535   -7.4809    0.7832 C   0  0  0  0  0  0
    2.8714   -7.8819    2.3833 C   0  0  0  0  0  0
    4.3152   -7.8302    2.8802 C   0  0  0  0  0  0
    1.9450   -7.0024    3.3389 C   0  0  0  0  0  0
    2.2542   -6.7309    4.9039 C   0  0  0  0  0  0
    1.4002   -5.7425    5.7699 C   0  0  0  0  0  0
    1.6240   -5.7333    7.3507 C   0  0  0  0  0  0
    1.4377   -6.9953    8.2819 C   0  0  0  0  0  0
    0.5930   -8.1967    7.7816 C   0  0  0  0  0  0
    0.0875   -9.2100    8.8802 C   0  0  0  0  0  0
    1.1723   -9.9624    9.6610 C   0  0  0  0  0  0
    1.2502   -9.7556   11.2003 C   0  0  0  0  0  0
    2.2544  -10.5794   12.0597 C   0  0  0  0  0  0
    1.9873  -10.6232   13.5577 C   0  0  0  0  0  0
    2.4207  -11.9397   11.5136 N   0  0  0  0  0  0
    1.6599   -8.3741   11.3654 O   0  0  0  0  0  0
   -0.7224   -8.4842    9.8113 O   0  0  0  0  0  0
    2.1030   -8.0121    5.5381 O   0  0  0  0  0  0
    1.5884   -7.0167   -1.2090 O   0  0  0  0  0  0
    1.5745   -5.6616   -1.1151 C   0  0  0  0  0  0
    0.8027   -4.9942   -0.4531 O   0  0  0  0  0  0
    2.7432   -5.1189   -1.8903 C   0  0  0  0  0  0
    4.0939   -5.4791   -1.2513 C   0  0  0  0  0  0
    5.1992   -5.6946   -2.2931 C   0  0  0  0  0  0
    4.8169   -5.0933   -3.6256 C   0  0  0  0  0  0
    4.6877   -3.8885   -3.8141 O   0  0  0  0  0  0
    4.6325   -6.0063   -4.5906 O   0  0  0  0  0  0
    4.4561   -4.3002   -0.3374 C   0  0  0  0  0  0
    5.4316   -3.5884   -0.5220 O   0  0  0  0  0  0
    3.6392   -4.1438    0.7134 O   0  0  0  0  0  0
    0.5276  -10.0024    0.8251 O   0  0  0  0  0  0
    1.3222  -11.0687    1.2118 C   0  0  0  0  0  0
    1.6217  -11.3300    2.3696 O   0  0  0  0  0  0
    1.7975  -11.9062    0.0172 C   0  0  0  0  0  0
    2.7765  -13.0732    0.3548 C   0  0  0  0  0  0
    3.9819  -12.7666    1.2622 C   0  0  0  0  0  0
    5.1608  -13.6564    0.9920 C   0  0  0  0  0  0
    5.1094  -14.7894    0.5335 O   0  0  0  0  0  0
    6.3281  -13.0673    1.2932 O   0  0  0  0  0  0
    2.0999  -14.3325    0.9106 C   0  0  0  0  0  0
    1.1027  -14.2948    1.6040 O   0  0  0  0  0  0
    2.6224  -15.5040    0.4911 O   0  0  0  0  0  0
    2.7007  -11.8753   10.5359 H   0  0  0  0  0  0
    1.5072  -12.3987   11.4964 H   0  0  0  0  0  0
    2.4977   -8.3033   10.8608 H   0  0  0  0  0  0
   -0.9436   -7.6217    9.4143 H   0  0  0  0  0  0
    2.7108   -8.6352    5.1059 H   0  0  0  0  0  0
    4.8478   -6.9255   -4.3412 H   0  0  0  0  0  0
    2.8580   -4.7508    0.7194 H   0  0  0  0  0  0
    7.0341  -13.7066    1.0607 H   0  0  0  0  0  0
    3.5553  -15.4616    0.1845 H   0  0  0  0  0  0
  1  2  1  0  0  0
  2  3  1  0  0  0
  3  4  1  0  0  0
  4  5  1  0  0  0
  5  6  1  0  0  0
  5  7  1  0  0  0
  7  8  1  0  0  0
  7 39  1  0  0  0
  8  9  1  0  0  0
  8 27  1  0  0  0
  9 10  1  0  0  0
 10 11  1  0  0  0
 10 12  1  0  0  0
 12 13  1  0  0  0
 13 14  1  0  0  0
 13 26  1  0  0  0
 14 15  1  0  0  0
 15 16  1  0  0  0
 16 17  1  0  0  0
 17 18  1  0  0  0
 18 19  1  0  0  0
 18 25  1  0  0  0
 19 20  1  0  0  0
 20 21  1  0  0  0
 20 24  1  0  0  0
 21 22  1  0  0  0
 21 23  1  0  0  0
 23 51  1  0  0  0
 23 52  1  0  0  0
 24 53  1  0  0  0
 25 54  1  0  0  0
 26 55  1  0  0  0
 27 28  1  0  0  0
 28 29  2  0  0  0
 28 30  1  0  0  0
 30 31  1  0  0  0
 31 32  1  0  0  0
 31 36  1  0  0  0
 32 33  1  0  0  0
 33 34  2  0  0  0
 33 35  1  0  0  0
 35 56  1  0  0  0
 36 37  2  0  0  0
 36 38  1  0  0  0
 38 57  1  0  0  0
 39 40  1  0  0  0
 40 41  2  0  0  0
 40 42  1  0  0  0
 42 43  1  0  0  0
 43 44  1  0  0  0
 43 48  1  0  0  0
 44 45  1  0  0  0
 45 46  2  0  0  0
 45 47  1  0  0  0
 47 58  1  0  0  0
 48 49  2  0  0  0
 48 50  1  0  0  0
 50 59  1  0  0  0
M  END
>  <AUTHOR>
    GENERATED BY OPEN BABEL 2.4.1

>  <CHROM.1>
-74.21823993,-71.36855236,125.61706952,74.31775601,-160.50978822,119.07934872
-72.77907781,157.51138653,168.21023448,-151.35106774,173.54557346,169.63767613
57.20193337,-58.45502137,-19.68136457,-162.22859538,-62.72425730,118.59451686
14.40753640,175.04325224,-162.43344640,-56.20602747,55.30742005,-46.16981293
-67.46765678,146.61425279,17.67849511,-115.93483731,66.55784518,-5.55695589
-5.64701168,137.73439808,176.08890428,-48.30131932,-151.39298685,-32.97977834
-27.02489696,-178.31939988,23.24373904,2.17328803,-8.76055509,2.22260367
0.22119008,-1.50188631,-2.72751397

>  <COMPND>
    UNNAMED

>  <MASTER>
        0    0    0    0    0    0    0    0  109    0  109    0

>  <Name>
FB1.pdb

>  <RI>
0

>  <Rbt.Current_Directory>
/home/fc/tossine/FB1_39/p3/1_clust05

>  <Rbt.Executable>
rbdock/0.1.0

>  <Rbt.Library>
librxdock.so/0.1.0

>  <Rbt.Parameter_File>
/cluster/rxdock/data/scripts/dock.prm

>  <Rbt.Receptor>
rx_0.prm

>  <SCORE>
43.6122

>  <SCORE.INTER>
13.9194

>  <SCORE.INTER.CONST>
1

>  <SCORE.INTER.POLAR>
-0.8

>  <SCORE.INTER.REPUL>
0.0798879

>  <SCORE.INTER.ROT>
32

>  <SCORE.INTER.VDW>
-21.1601

>  <SCORE.INTER.norm>
0.278387

>  <SCORE.INTRA>
27.5428

>  <SCORE.INTRA.DIHEDRAL>
42.3544

>  <SCORE.INTRA.DIHEDRAL.0>
47.3121

>  <SCORE.INTRA.POLAR>
0.703079

>  <SCORE.INTRA.POLAR.0>
-1.47808

>  <SCORE.INTRA.REPUL>
0

>  <SCORE.INTRA.REPUL.0>
0

>  <SCORE.INTRA.VDW>
3.97515

>  <SCORE.INTRA.VDW.0>
-2.78316

>  <SCORE.INTRA.norm>
0.550856

>  <SCORE.RESTR>
2.15007

>  <SCORE.RESTR.CAVITY>
2.15007

>  <SCORE.RESTR.norm>
0.0430014

>  <SCORE.SYSTEM>
0

>  <SCORE.SYSTEM.CONST>
0

>  <SCORE.SYSTEM.DIHEDRAL>
0

>  <SCORE.SYSTEM.norm>
0

>  <SCORE.heavy>
50

>  <SCORE.norm>
0.872245

$$$$
