FB1.pdb
  RxDock  10072009503D
librxdock.so/0.1.0
 59 58  0  0  0  0  0  0  0  0999 V2000
    3.9811   -3.4612    4.4243 C   0  0  0  0  0  0
    3.5225   -4.4587    5.4854 C   0  0  0  0  0  0
    2.1408   -4.0923    6.0518 C   0  0  0  0  0  0
    1.0154   -4.0987    4.9873 C   0  0  0  0  0  0
    0.5850   -5.5220    4.4881 C   0  0  0  0  0  0
   -0.7638   -5.3883    3.7441 C   0  0  0  0  0  0
    1.6714   -6.2269    3.5712 C   0  0  0  0  0  0
    1.6873   -7.8287    3.5654 C   0  0  0  0  0  0
    1.0193   -8.7544    4.6723 C   0  0  0  0  0  0
    1.7284   -8.6883    6.1603 C   0  0  0  0  0  0
    1.5031   -7.2943    6.7436 C   0  0  0  0  0  0
    1.2582   -9.7910    7.2128 C   0  0  0  0  0  0
    0.8584  -11.3089    6.8195 C   0  0  0  0  0  0
    0.7905  -11.8016    5.3334 C   0  0  0  0  0  0
    2.1612  -12.0142    4.5426 C   0  0  0  0  0  0
    2.9236  -13.3936    4.4407 C   0  0  0  0  0  0
    2.1496  -14.6643    4.0003 C   0  0  0  0  0  0
    1.0712  -14.4753    2.8644 C   0  0  0  0  0  0
    1.6092  -14.1712    1.4606 C   0  0  0  0  0  0
    2.3826  -12.8403    1.2397 C   0  0  0  0  0  0
    3.8772  -12.7145    1.6590 C   0  0  0  0  0  0
    4.8090  -13.8214    1.1859 C   0  0  0  0  0  0
    4.4127  -11.3866    1.3036 N   0  0  0  0  0  0
    2.3784  -12.6469   -0.1978 O   0  0  0  0  0  0
    0.2830  -15.6688    2.8006 O   0  0  0  0  0  0
    1.8627  -12.1284    7.4411 O   0  0  0  0  0  0
    1.0517   -8.2369    2.3237 O   0  0  0  0  0  0
    1.3091   -9.4961    1.8839 C   0  0  0  0  0  0
    2.2291  -10.2081    2.2388 O   0  0  0  0  0  0
    0.2034   -9.9102    0.9525 C   0  0  0  0  0  0
    0.6910  -10.1071   -0.4918 C   0  0  0  0  0  0
   -0.2454  -11.0035   -1.3122 C   0  0  0  0  0  0
    0.4760  -11.6082   -2.4943 C   0  0  0  0  0  0
    0.6844  -12.8101   -2.6193 O   0  0  0  0  0  0
    0.8685  -10.7017   -3.4015 O   0  0  0  0  0  0
    0.7514   -8.7042   -1.1116 C   0  0  0  0  0  0
    0.0543   -8.3609   -2.0544 O   0  0  0  0  0  0
    1.6704   -7.8969   -0.5643 O   0  0  0  0  0  0
    1.6568   -5.6677    2.1975 O   0  0  0  0  0  0
    2.8124   -5.7527    1.4390 C   0  0  0  0  0  0
    3.6752   -6.6098    1.5782 O   0  0  0  0  0  0
    2.9021   -4.6412    0.3851 C   0  0  0  0  0  0
    2.2576   -4.9658   -0.9983 C   0  0  0  0  0  0
    2.9820   -5.9668   -1.9168 C   0  0  0  0  0  0
    4.3811   -5.5425   -2.2589 C   0  0  0  0  0  0
    4.7275   -4.9973   -3.2978 O   0  0  0  0  0  0
    5.2532   -5.8087   -1.2746 O   0  0  0  0  0  0
    0.7867   -5.3950   -0.9314 C   0  0  0  0  0  0
    0.1027   -5.2553    0.0632 O   0  0  0  0  0  0
    0.2612   -5.8449   -2.0901 O   0  0  0  0  0  0
    5.4072  -11.3576    1.5242 H   0  0  0  0  0  0
    3.9865  -10.6879    1.9164 H   0  0  0  0  0  0
    2.8833  -11.8180   -0.3367 H   0  0  0  0  0  0
   -0.4312  -15.5274    2.1522 H   0  0  0  0  0  0
    1.8669  -11.9293    8.3923 H   0  0  0  0  0  0
    1.2559  -11.0706   -4.2184 H   0  0  0  0  0  0
    1.8461   -8.0662    0.3945 H   0  0  0  0  0  0
    6.0900   -5.3550   -1.5098 H   0  0  0  0  0  0
   -0.7130   -5.9765   -2.0861 H   0  0  0  0  0  0
  1  2  1  0  0  0
  2  3  1  0  0  0
  3  4  1  0  0  0
  4  5  1  0  0  0
  5  6  1  0  0  0
  5  7  1  0  0  0
  7  8  1  0  0  0
  7 39  1  0  0  0
  8  9  1  0  0  0
  8 27  1  0  0  0
  9 10  1  0  0  0
 10 11  1  0  0  0
 10 12  1  0  0  0
 12 13  1  0  0  0
 13 14  1  0  0  0
 13 26  1  0  0  0
 14 15  1  0  0  0
 15 16  1  0  0  0
 16 17  1  0  0  0
 17 18  1  0  0  0
 18 19  1  0  0  0
 18 25  1  0  0  0
 19 20  1  0  0  0
 20 21  1  0  0  0
 20 24  1  0  0  0
 21 22  1  0  0  0
 21 23  1  0  0  0
 23 51  1  0  0  0
 23 52  1  0  0  0
 24 53  1  0  0  0
 25 54  1  0  0  0
 26 55  1  0  0  0
 27 28  1  0  0  0
 28 29  2  0  0  0
 28 30  1  0  0  0
 30 31  1  0  0  0
 31 32  1  0  0  0
 31 36  1  0  0  0
 32 33  1  0  0  0
 33 34  2  0  0  0
 33 35  1  0  0  0
 35 56  1  0  0  0
 36 37  2  0  0  0
 36 38  1  0  0  0
 38 57  1  0  0  0
 39 40  1  0  0  0
 40 41  2  0  0  0
 40 42  1  0  0  0
 42 43  1  0  0  0
 43 44  1  0  0  0
 43 48  1  0  0  0
 44 45  1  0  0  0
 45 46  2  0  0  0
 45 47  1  0  0  0
 47 58  1  0  0  0
 48 49  2  0  0  0
 48 50  1  0  0  0
 50 59  1  0  0  0
M  END
>  <AUTHOR>
    GENERATED BY OPEN BABEL 2.4.1

>  <CHROM.1>
61.66877472,72.14123077,165.02204878,152.49386318,-18.35400373,154.98793765
-67.53207702,159.84017792,66.81797252,34.80718684,-4.96832554,72.68602256
56.24034889,93.78531484,50.66821365,38.57543470,69.89176418,-64.07041524
175.31724806,79.76901743,49.59889440,-178.79443997,-175.74592232,-17.73551836
114.37763607,158.54009973,-158.14241012,-116.39391956,114.64454397,-174.03265627
-30.82983091,26.57562651,-89.20650523,-72.61027805,-58.44777565,13.32040470
-99.40507669,-169.70993775,-170.18628901,1.86115544,-8.90107808,1.80160218
0.11964701,1.50087173,1.17792769

>  <COMPND>
    UNNAMED

>  <MASTER>
        0    0    0    0    0    0    0    0  109    0  109    0

>  <Name>
FB1.pdb

>  <RI>
0

>  <Rbt.Current_Directory>
/home/fc/tossine/FB1_39/p3/1_clust05

>  <Rbt.Executable>
rbdock/0.1.0

>  <Rbt.Library>
librxdock.so/0.1.0

>  <Rbt.Parameter_File>
/cluster/rxdock/data/scripts/dock.prm

>  <Rbt.Receptor>
rx_4.prm

>  <SCORE>
29.375

>  <SCORE.INTER>
19.1268

>  <SCORE.INTER.CONST>
1

>  <SCORE.INTER.POLAR>
-1.36886

>  <SCORE.INTER.REPUL>
1.52835

>  <SCORE.INTER.ROT>
32

>  <SCORE.INTER.VDW>
-21.2608

>  <SCORE.INTER.norm>
0.382535

>  <SCORE.INTRA>
4.04987

>  <SCORE.INTRA.DIHEDRAL>
12.061

>  <SCORE.INTRA.DIHEDRAL.0>
47.3121

>  <SCORE.INTRA.POLAR>
0.186019

>  <SCORE.INTRA.POLAR.0>
-1.47808

>  <SCORE.INTRA.REPUL>
0

>  <SCORE.INTRA.REPUL.0>
0

>  <SCORE.INTRA.VDW>
-2.61309

>  <SCORE.INTRA.VDW.0>
-2.78316

>  <SCORE.INTRA.norm>
0.0809974

>  <SCORE.RESTR>
6.19835

>  <SCORE.RESTR.CAVITY>
6.19835

>  <SCORE.RESTR.norm>
0.123967

>  <SCORE.SYSTEM>
0

>  <SCORE.SYSTEM.CONST>
0

>  <SCORE.SYSTEM.DIHEDRAL>
0

>  <SCORE.SYSTEM.norm>
0

>  <SCORE.heavy>
50

>  <SCORE.norm>
0.587499

$$$$
