FB1.pdb
  RxDock  10072008373D
librxdock.so/0.1.0
 59 58  0  0  0  0  0  0  0  0999 V2000
    2.4023   -7.0629    4.9058 C   0  0  0  0  0  0
    1.2783   -7.8707    4.2612 C   0  0  0  0  0  0
    1.7974   -9.1842    3.6533 C   0  0  0  0  0  0
    2.9788   -8.9857    2.6712 C   0  0  0  0  0  0
    3.1094  -10.0873    1.5622 C   0  0  0  0  0  0
    3.7717  -11.3344    2.1922 C   0  0  0  0  0  0
    1.7283  -10.4632    0.8773 C   0  0  0  0  0  0
    1.3664   -9.7084   -0.4885 C   0  0  0  0  0  0
    0.2187  -10.1447   -1.4988 C   0  0  0  0  0  0
   -0.1531   -9.0315   -2.6580 C   0  0  0  0  0  0
    1.1413   -8.3697   -3.1279 C   0  0  0  0  0  0
   -0.9649   -9.5743   -3.9194 C   0  0  0  0  0  0
   -1.2709   -8.7002   -5.2464 C   0  0  0  0  0  0
   -1.7593   -9.3500   -6.5863 C   0  0  0  0  0  0
   -1.9150   -8.4132   -7.8698 C   0  0  0  0  0  0
   -0.7169   -7.9758   -8.8013 C   0  0  0  0  0  0
   -0.2018   -8.9508   -9.8929 C   0  0  0  0  0  0
    1.2566   -8.6938  -10.4372 C   0  0  0  0  0  0
    1.4435   -7.4537  -11.3202 C   0  0  0  0  0  0
    1.2227   -7.5997  -12.8526 C   0  0  0  0  0  0
   -0.1885   -7.9336  -13.4206 C   0  0  0  0  0  0
   -0.5922   -9.4014  -13.4122 C   0  0  0  0  0  0
   -1.2232   -7.0984  -12.7817 N   0  0  0  0  0  0
    1.5473   -6.2949  -13.3967 O   0  0  0  0  0  0
    2.1356   -8.5876   -9.3121 O   0  0  0  0  0  0
   -2.3227   -7.7993   -4.8611 O   0  0  0  0  0  0
    1.0226   -8.3450   -0.1205 O   0  0  0  0  0  0
    2.0479   -7.5194    0.2150 C   0  0  0  0  0  0
    2.0198   -6.6435    1.0584 O   0  0  0  0  0  0
    3.2667   -7.9341   -0.5622 C   0  0  0  0  0  0
    4.0375   -6.7344   -1.1359 C   0  0  0  0  0  0
    3.1429   -5.7998   -1.9602 C   0  0  0  0  0  0
    3.9679   -4.9093   -2.8602 C   0  0  0  0  0  0
    4.3802   -3.8036   -2.5271 O   0  0  0  0  0  0
    4.2104   -5.4454   -4.0655 O   0  0  0  0  0  0
    4.6089   -5.9825    0.0741 C   0  0  0  0  0  0
    5.4332   -6.4690    0.8332 O   0  0  0  0  0  0
    4.0916   -4.7604    0.2605 O   0  0  0  0  0  0
    1.5735  -11.9333    0.7559 O   0  0  0  0  0  0
    1.1797  -12.6491    1.8742 C   0  0  0  0  0  0
    0.7924  -12.1473    2.9214 O   0  0  0  0  0  0
    1.2799  -14.1655    1.6620 C   0  0  0  0  0  0
    2.7266  -14.7465    1.5991 C   0  0  0  0  0  0
    2.8887  -16.2741    1.4953 C   0  0  0  0  0  0
    2.4611  -16.8201    0.1636 C   0  0  0  0  0  0
    3.1270  -17.5542   -0.5537 O   0  0  0  0  0  0
    1.2233  -16.4305   -0.1774 O   0  0  0  0  0  0
    3.6182  -14.1220    0.5187 C   0  0  0  0  0  0
    3.1837  -13.4125   -0.3670 O   0  0  0  0  0  0
    4.9436  -14.3231    0.6738 O   0  0  0  0  0  0
   -0.9897   -6.1157  -12.9170 H   0  0  0  0  0  0
   -1.1807   -7.2425  -11.7703 H   0  0  0  0  0  0
    2.4586   -6.1163  -13.0823 H   0  0  0  0  0  0
    3.0535   -8.6249   -9.6386 H   0  0  0  0  0  0
   -2.6848   -7.3970   -5.6683 H   0  0  0  0  0  0
    4.7242   -4.8827   -4.6760 H   0  0  0  0  0  0
    3.9593   -4.2400   -0.5704 H   0  0  0  0  0  0
    1.0150  -16.8690   -1.0292 H   0  0  0  0  0  0
    5.5156  -13.8867    0.0041 H   0  0  0  0  0  0
  1  2  1  0  0  0
  2  3  1  0  0  0
  3  4  1  0  0  0
  4  5  1  0  0  0
  5  6  1  0  0  0
  5  7  1  0  0  0
  7  8  1  0  0  0
  7 39  1  0  0  0
  8  9  1  0  0  0
  8 27  1  0  0  0
  9 10  1  0  0  0
 10 11  1  0  0  0
 10 12  1  0  0  0
 12 13  1  0  0  0
 13 14  1  0  0  0
 13 26  1  0  0  0
 14 15  1  0  0  0
 15 16  1  0  0  0
 16 17  1  0  0  0
 17 18  1  0  0  0
 18 19  1  0  0  0
 18 25  1  0  0  0
 19 20  1  0  0  0
 20 21  1  0  0  0
 20 24  1  0  0  0
 21 22  1  0  0  0
 21 23  1  0  0  0
 23 51  1  0  0  0
 23 52  1  0  0  0
 24 53  1  0  0  0
 25 54  1  0  0  0
 26 55  1  0  0  0
 27 28  1  0  0  0
 28 29  2  0  0  0
 28 30  1  0  0  0
 30 31  1  0  0  0
 31 32  1  0  0  0
 31 36  1  0  0  0
 32 33  1  0  0  0
 33 34  2  0  0  0
 33 35  1  0  0  0
 35 56  1  0  0  0
 36 37  2  0  0  0
 36 38  1  0  0  0
 38 57  1  0  0  0
 39 40  1  0  0  0
 40 41  2  0  0  0
 40 42  1  0  0  0
 42 43  1  0  0  0
 43 44  1  0  0  0
 43 48  1  0  0  0
 44 45  1  0  0  0
 45 46  2  0  0  0
 45 47  1  0  0  0
 47 58  1  0  0  0
 48 49  2  0  0  0
 48 50  1  0  0  0
 50 59  1  0  0  0
M  END
>  <AUTHOR>
    GENERATED BY OPEN BABEL 2.4.1

>  <CHROM.1>
-53.29560632,-152.77343513,-78.78153557,95.06936643,165.79930226,79.43302571
167.83796145,74.98732009,38.76943618,-172.15206817,164.99380461,-174.97624000
-167.05407663,80.99953927,80.97750503,-159.58473429,-71.03345453,-88.79322870
167.79447037,65.47672914,-82.29266209,55.60716366,56.85253274,-144.92976893
136.86432440,-53.23534159,-161.67313393,63.89283613,-90.57491594,178.63167639
-41.04819132,9.21082830,71.17236411,175.43629156,70.11730370,-12.47573875
128.38241434,-177.10764194,-177.24831087,1.76117872,-9.47506901,-2.68038565
-0.85258729,-1.29777053,-0.57447380

>  <COMPND>
    UNNAMED

>  <MASTER>
        0    0    0    0    0    0    0    0  109    0  109    0

>  <Name>
FB1.pdb

>  <RI>
0

>  <Rbt.Current_Directory>
/home/fc/tossine/FB1_39/p3/1_clust05

>  <Rbt.Executable>
rbdock/0.1.0

>  <Rbt.Library>
librxdock.so/0.1.0

>  <Rbt.Parameter_File>
/cluster/rxdock/data/scripts/dock.prm

>  <Rbt.Receptor>
rx_2.prm

>  <SCORE>
35.6229

>  <SCORE.INTER>
8.31105

>  <SCORE.INTER.CONST>
1

>  <SCORE.INTER.POLAR>
-1.70789

>  <SCORE.INTER.REPUL>
0.602069

>  <SCORE.INTER.ROT>
32

>  <SCORE.INTER.VDW>
-26.2925

>  <SCORE.INTER.norm>
0.166221

>  <SCORE.INTRA>
21.517

>  <SCORE.INTRA.DIHEDRAL>
11.4053

>  <SCORE.INTRA.DIHEDRAL.0>
47.3121

>  <SCORE.INTRA.POLAR>
1.47808

>  <SCORE.INTRA.POLAR.0>
-1.47808

>  <SCORE.INTRA.REPUL>
0

>  <SCORE.INTRA.REPUL.0>
0

>  <SCORE.INTRA.VDW>
10.7889

>  <SCORE.INTRA.VDW.0>
-2.78316

>  <SCORE.INTRA.norm>
0.43034

>  <SCORE.RESTR>
5.79487

>  <SCORE.RESTR.CAVITY>
5.79487

>  <SCORE.RESTR.norm>
0.115897

>  <SCORE.SYSTEM>
0

>  <SCORE.SYSTEM.CONST>
0

>  <SCORE.SYSTEM.DIHEDRAL>
0

>  <SCORE.SYSTEM.norm>
0

>  <SCORE.heavy>
50

>  <SCORE.norm>
0.712458

$$$$
