FB1.pdb
  RxDock  09132001113D
librxdock.so/0.1.0
 59 58  0  0  0  0  0  0  0  0999 V2000
    4.0771   -7.6472    3.6848 C   0  0  0  0  0  0
    5.0651   -8.0867    2.6067 C   0  0  0  0  0  0
    4.3697   -8.3086    1.2534 C   0  0  0  0  0  0
    4.1392   -9.8026    0.9151 C   0  0  0  0  0  0
    3.2390  -10.0649   -0.3424 C   0  0  0  0  0  0
    3.0421  -11.5915   -0.4886 C   0  0  0  0  0  0
    1.8416   -9.3152   -0.2884 C   0  0  0  0  0  0
    1.6771   -8.0191   -1.2154 C   0  0  0  0  0  0
    0.9781   -7.9984   -2.6435 C   0  0  0  0  0  0
    0.5837   -6.4991   -3.2074 C   0  0  0  0  0  0
    1.8729   -5.7104   -3.4314 C   0  0  0  0  0  0
   -0.3057   -6.4574   -4.5311 C   0  0  0  0  0  0
   -1.6191   -7.3716   -4.7712 C   0  0  0  0  0  0
   -1.6093   -8.6261   -5.7105 C   0  0  0  0  0  0
   -0.9552   -8.4819   -7.1598 C   0  0  0  0  0  0
    0.5908   -8.6156   -7.4543 C   0  0  0  0  0  0
    1.3095   -7.5165   -8.2807 C   0  0  0  0  0  0
    2.2693   -8.0126   -9.4305 C   0  0  0  0  0  0
    1.6208   -8.8407  -10.5468 C   0  0  0  0  0  0
    0.3163   -8.3032  -11.2007 C   0  0  0  0  0  0
    0.3796   -7.2245  -12.3222 C   0  0  0  0  0  0
    1.4497   -7.4168  -13.3876 C   0  0  0  0  0  0
   -0.9469   -7.0269  -12.9368 N   0  0  0  0  0  0
   -0.2848   -9.4638  -11.8297 O   0  0  0  0  0  0
    2.8866   -6.8620  -10.0177 O   0  0  0  0  0  0
   -1.9586   -7.8798   -3.4700 O   0  0  0  0  0  0
    0.9252   -7.0524   -0.4327 O   0  0  0  0  0  0
    1.6402   -6.1134    0.2398 C   0  0  0  0  0  0
    2.8230   -5.8696    0.0950 O   0  0  0  0  0  0
    0.7010   -5.3470    1.1297 C   0  0  0  0  0  0
    0.9632   -5.6010    2.6228 C   0  0  0  0  0  0
    0.0205   -4.8006    3.5305 C   0  0  0  0  0  0
   -1.4177   -4.9537    3.0930 C   0  0  0  0  0  0
   -1.8715   -5.9815    2.6017 O   0  0  0  0  0  0
   -2.1577   -3.8534    3.2951 O   0  0  0  0  0  0
    0.7486   -7.1055    2.8388 C   0  0  0  0  0  0
    0.4693   -7.8761    1.9330 O   0  0  0  0  0  0
    0.8444   -7.5000    4.1159 O   0  0  0  0  0  0
    0.7166  -10.2663   -0.4606 O   0  0  0  0  0  0
    0.2111  -10.8996    0.6626 C   0  0  0  0  0  0
   -0.9268  -11.3400    0.7608 O   0  0  0  0  0  0
    1.2439  -10.9952    1.7933 C   0  0  0  0  0  0
    0.7659  -11.7243    3.0873 C   0  0  0  0  0  0
    1.5507  -12.9654    3.5501 C   0  0  0  0  0  0
    1.9298  -13.8756    2.4177 C   0  0  0  0  0  0
    3.0628  -14.0487    1.9900 O   0  0  0  0  0  0
    0.8733  -14.5250    1.9055 O   0  0  0  0  0  0
    0.5999  -10.8120    4.3089 C   0  0  0  0  0  0
    1.3984   -9.9424    4.5970 O   0  0  0  0  0  0
   -0.5535  -10.9636    4.9929 O   0  0  0  0  0  0
   -1.5086   -6.4275  -12.3336 H   0  0  0  0  0  0
   -1.4383   -7.9235  -12.9485 H   0  0  0  0  0  0
    0.4431   -9.8689  -12.3467 H   0  0  0  0  0  0
    2.1849   -6.2987  -10.3932 H   0  0  0  0  0  0
   -2.3733   -7.1605   -2.9650 H   0  0  0  0  0  0
   -1.6793   -3.0947    3.6810 H   0  0  0  0  0  0
    0.9944   -6.7657    4.7618 H   0  0  0  0  0  0
    1.2098  -15.0657    1.1600 H   0  0  0  0  0  0
   -0.6442  -10.4000    5.7931 H   0  0  0  0  0  0
  1  2  1  0  0  0
  2  3  1  0  0  0
  3  4  1  0  0  0
  4  5  1  0  0  0
  5  6  1  0  0  0
  5  7  1  0  0  0
  7  8  1  0  0  0
  7 39  1  0  0  0
  8  9  1  0  0  0
  8 27  1  0  0  0
  9 10  1  0  0  0
 10 11  1  0  0  0
 10 12  1  0  0  0
 12 13  1  0  0  0
 13 14  1  0  0  0
 13 26  1  0  0  0
 14 15  1  0  0  0
 15 16  1  0  0  0
 16 17  1  0  0  0
 17 18  1  0  0  0
 18 19  1  0  0  0
 18 25  1  0  0  0
 19 20  1  0  0  0
 20 21  1  0  0  0
 20 24  1  0  0  0
 21 22  1  0  0  0
 21 23  1  0  0  0
 23 51  1  0  0  0
 23 52  1  0  0  0
 24 53  1  0  0  0
 25 54  1  0  0  0
 26 55  1  0  0  0
 27 28  1  0  0  0
 28 29  2  0  0  0
 28 30  1  0  0  0
 30 31  1  0  0  0
 31 32  1  0  0  0
 31 36  1  0  0  0
 32 33  1  0  0  0
 33 34  2  0  0  0
 33 35  1  0  0  0
 35 56  1  0  0  0
 36 37  2  0  0  0
 36 38  1  0  0  0
 38 57  1  0  0  0
 39 40  1  0  0  0
 40 41  2  0  0  0
 40 42  1  0  0  0
 42 43  1  0  0  0
 43 44  1  0  0  0
 43 48  1  0  0  0
 44 45  1  0  0  0
 45 46  2  0  0  0
 45 47  1  0  0  0
 47 58  1  0  0  0
 48 49  2  0  0  0
 48 50  1  0  0  0
 50 59  1  0  0  0
M  END
>  <AUTHOR>
    GENERATED BY OPEN BABEL 2.4.1

>  <CHROM.1>
-102.74160201,170.92322461,-176.68570723,104.65367241,98.04412773,87.28800438
164.47888870,96.15692993,64.69026087,46.04238960,-104.26442299,-47.38833208
75.60744813,83.59194378,-129.74672540,-133.68576836,60.99981728,48.54965579
-61.22080451,81.80951834,42.87958261,-49.53232659,79.69397756,12.10272799
112.48203270,179.02129283,48.97768913,2.10074778,33.68688913,0.94867298,3.01610496
155.03548941,-178.70018972,121.10909481,-42.08160603,-42.26925924,109.79395312
178.10327463,177.97843290,0.94702384,-8.51615642,-1.63871775,1.39211329,-1.30480524
1.50691417

>  <COMPND>
    UNNAMED

>  <MASTER>
        0    0    0    0    0    0    0    0  109    0  109    0

>  <Name>
FB1.pdb

>  <RI>
0

>  <Rbt.Current_Directory>
/home/fc/tossine/FB1_39/p3/1_clust05

>  <Rbt.Executable>
rbdock/0.1.0

>  <Rbt.Library>
librxdock.so/0.1.0

>  <Rbt.Parameter_File>
/cluster/rxdock/data/scripts/dock.prm

>  <Rbt.Receptor>
rx_4.prm

>  <SCORE>
32.2397

>  <SCORE.INTER>
8.31236

>  <SCORE.INTER.CONST>
1

>  <SCORE.INTER.POLAR>
-1.12508

>  <SCORE.INTER.REPUL>
0.695125

>  <SCORE.INTER.ROT>
32

>  <SCORE.INTER.VDW>
-28.738

>  <SCORE.INTER.norm>
0.166247

>  <SCORE.INTRA>
18.6067

>  <SCORE.INTRA.DIHEDRAL>
23.5193

>  <SCORE.INTRA.DIHEDRAL.0>
47.3121

>  <SCORE.INTRA.POLAR>
1.40193

>  <SCORE.INTRA.POLAR.0>
-1.47808

>  <SCORE.INTRA.REPUL>
0

>  <SCORE.INTRA.REPUL.0>
0

>  <SCORE.INTRA.VDW>
2.08045

>  <SCORE.INTRA.VDW.0>
-2.78316

>  <SCORE.INTRA.norm>
0.372133

>  <SCORE.RESTR>
5.32066

>  <SCORE.RESTR.CAVITY>
5.32066

>  <SCORE.RESTR.norm>
0.106413

>  <SCORE.SYSTEM>
0

>  <SCORE.SYSTEM.CONST>
0

>  <SCORE.SYSTEM.DIHEDRAL>
0

>  <SCORE.SYSTEM.norm>
0

>  <SCORE.heavy>
50

>  <SCORE.norm>
0.644794

$$$$
