FB1.pdb
  RxDock  10072009193D
librxdock.so/0.1.0
 59 58  0  0  0  0  0  0  0  0999 V2000
    2.3791   -3.6861    2.8932 C   0  0  0  0  0  0
    1.4879   -4.0888    1.7207 C   0  0  0  0  0  0
    0.2293   -4.8356    2.1923 C   0  0  0  0  0  0
    0.5394   -6.0916    3.0444 C   0  0  0  0  0  0
    1.2808   -7.2432    2.2798 C   0  0  0  0  0  0
    2.8035   -7.0011    2.3956 C   0  0  0  0  0  0
    0.8962   -8.6944    2.7937 C   0  0  0  0  0  0
    1.8691   -9.8951    2.3718 C   0  0  0  0  0  0
    1.5224  -11.4416    2.4995 C   0  0  0  0  0  0
    2.7878  -12.4663    2.2343 C   0  0  0  0  0  0
    3.1979  -13.0862    3.5691 C   0  0  0  0  0  0
    2.5446  -13.6207    1.1606 C   0  0  0  0  0  0
    3.4101  -14.9859    1.0840 C   0  0  0  0  0  0
    3.2501  -16.1419    2.1300 C   0  0  0  0  0  0
    4.5063  -17.0855    2.4140 C   0  0  0  0  0  0
    5.9934  -16.7278    2.0202 C   0  0  0  0  0  0
    6.8109  -15.7617    2.9179 C   0  0  0  0  0  0
    8.3815  -15.8390    2.7903 C   0  0  0  0  0  0
    9.1095  -14.5112    2.5459 C   0  0  0  0  0  0
   10.6454  -14.5459    2.3054 C   0  0  0  0  0  0
   11.4542  -13.2226    2.1629 C   0  0  0  0  0  0
   12.8418  -13.3395    1.5479 C   0  0  0  0  0  0
   10.6567  -12.1910    1.4728 N   0  0  0  0  0  0
   11.1878  -15.1921    3.4852 O   0  0  0  0  0  0
    8.8940  -16.4240    3.9924 O   0  0  0  0  0  0
    3.0620  -15.5736   -0.1809 O   0  0  0  0  0  0
    2.1585   -9.7066    0.9600 O   0  0  0  0  0  0
    1.1009   -9.7112    0.1075 C   0  0  0  0  0  0
   -0.0361  -10.0517    0.3735 O   0  0  0  0  0  0
    1.5446   -9.1255   -1.2046 C   0  0  0  0  0  0
    0.7287   -7.8855   -1.6036 C   0  0  0  0  0  0
    1.6013   -6.7735   -2.1998 C   0  0  0  0  0  0
    1.0253   -5.4090   -1.9004 C   0  0  0  0  0  0
   -0.1719   -5.1988   -1.7384 O   0  0  0  0  0  0
    1.9521   -4.4423   -1.8261 O   0  0  0  0  0  0
   -0.2907   -8.3683   -2.6446 C   0  0  0  0  0  0
   -0.6870   -7.6688   -3.5643 O   0  0  0  0  0  0
   -0.7509   -9.6092   -2.4338 O   0  0  0  0  0  0
    0.6200   -8.6907    4.2509 O   0  0  0  0  0  0
    1.5840   -9.1986    5.1057 C   0  0  0  0  0  0
    2.3677  -10.0939    4.8181 O   0  0  0  0  0  0
    1.5695   -8.5103    6.4769 C   0  0  0  0  0  0
    1.3850   -9.4532    7.7063 C   0  0  0  0  0  0
    2.2538  -10.7221    7.7815 C   0  0  0  0  0  0
    1.8643  -11.6337    8.9092 C   0  0  0  0  0  0
    0.8831  -11.5009    9.6277 O   0  0  0  0  0  0
    2.7138  -12.6621    9.0545 O   0  0  0  0  0  0
    1.4863   -8.7536    9.0674 C   0  0  0  0  0  0
    2.3430   -7.9312    9.3249 O   0  0  0  0  0  0
    0.4919   -9.0306    9.9366 O   0  0  0  0  0  0
    9.8297  -11.9800    2.0297 H   0  0  0  0  0  0
   10.2941  -12.5865    0.6023 H   0  0  0  0  0  0
   11.9343  -15.7320    3.1496 H   0  0  0  0  0  0
    8.5044  -17.3125    4.0883 H   0  0  0  0  0  0
    3.7897  -15.4032   -0.8021 H   0  0  0  0  0  0
    2.8477   -4.7421   -1.5783 H   0  0  0  0  0  0
   -1.4247   -9.9138   -3.0911 H   0  0  0  0  0  0
    3.2232  -12.7264    8.2192 H   0  0  0  0  0  0
   -0.2516   -9.5584    9.5694 H   0  0  0  0  0  0
  1  2  1  0  0  0
  2  3  1  0  0  0
  3  4  1  0  0  0
  4  5  1  0  0  0
  5  6  1  0  0  0
  5  7  1  0  0  0
  7  8  1  0  0  0
  7 39  1  0  0  0
  8  9  1  0  0  0
  8 27  1  0  0  0
  9 10  1  0  0  0
 10 11  1  0  0  0
 10 12  1  0  0  0
 12 13  1  0  0  0
 13 14  1  0  0  0
 13 26  1  0  0  0
 14 15  1  0  0  0
 15 16  1  0  0  0
 16 17  1  0  0  0
 17 18  1  0  0  0
 18 19  1  0  0  0
 18 25  1  0  0  0
 19 20  1  0  0  0
 20 21  1  0  0  0
 20 24  1  0  0  0
 21 22  1  0  0  0
 21 23  1  0  0  0
 23 51  1  0  0  0
 23 52  1  0  0  0
 24 53  1  0  0  0
 25 54  1  0  0  0
 26 55  1  0  0  0
 27 28  1  0  0  0
 28 29  2  0  0  0
 28 30  1  0  0  0
 30 31  1  0  0  0
 31 32  1  0  0  0
 31 36  1  0  0  0
 32 33  1  0  0  0
 33 34  2  0  0  0
 33 35  1  0  0  0
 35 56  1  0  0  0
 36 37  2  0  0  0
 36 38  1  0  0  0
 38 57  1  0  0  0
 39 40  1  0  0  0
 40 41  2  0  0  0
 40 42  1  0  0  0
 42 43  1  0  0  0
 43 44  1  0  0  0
 43 48  1  0  0  0
 44 45  1  0  0  0
 45 46  2  0  0  0
 45 47  1  0  0  0
 47 58  1  0  0  0
 48 49  2  0  0  0
 48 50  1  0  0  0
 50 59  1  0  0  0
M  END
>  <AUTHOR>
    GENERATED BY OPEN BABEL 2.4.1

>  <CHROM.1>
-56.26900851,-65.26349986,88.60020467,-163.78535710,-166.08013856,-103.73614498
-170.14061982,-59.66693208,108.44524383,-159.18682195,73.32566549,-152.08272614
102.78236651,16.86102543,79.76723929,158.88430952,128.45990186,-175.44298654
59.59212154,-175.19111590,-163.20169120,143.58449778,62.16564228,-11.69946638
-121.06389189,138.83354563,-149.35676111,-147.52253345,-28.63696117,-25.84431900
178.56888161,-30.60479417,123.55251121,47.68573909,-172.58335707,-43.77150697
7.57255071,-17.41336305,-7.48958370,3.21339726,-10.53536193,2.69397548,2.81821162
0.79590555,-1.39522122

>  <COMPND>
    UNNAMED

>  <MASTER>
        0    0    0    0    0    0    0    0  109    0  109    0

>  <Name>
FB1.pdb

>  <RI>
0

>  <Rbt.Current_Directory>
/home/fc/tossine/FB1_39/p3/1_clust05

>  <Rbt.Executable>
rbdock/0.1.0

>  <Rbt.Library>
librxdock.so/0.1.0

>  <Rbt.Parameter_File>
/cluster/rxdock/data/scripts/dock.prm

>  <Rbt.Receptor>
rx_3.prm

>  <SCORE>
45.1126

>  <SCORE.INTER>
13.699

>  <SCORE.INTER.CONST>
1

>  <SCORE.INTER.POLAR>
-2.81839

>  <SCORE.INTER.REPUL>
0.0540166

>  <SCORE.INTER.ROT>
32

>  <SCORE.INTER.VDW>
-14.3885

>  <SCORE.INTER.norm>
0.273981

>  <SCORE.INTRA>
27.7741

>  <SCORE.INTRA.DIHEDRAL>
36.3884

>  <SCORE.INTRA.DIHEDRAL.0>
47.3121

>  <SCORE.INTRA.POLAR>
1.47808

>  <SCORE.INTRA.POLAR.0>
-1.47808

>  <SCORE.INTRA.REPUL>
0

>  <SCORE.INTRA.REPUL.0>
0

>  <SCORE.INTRA.VDW>
4.55448

>  <SCORE.INTRA.VDW.0>
-2.78316

>  <SCORE.INTRA.norm>
0.555482

>  <SCORE.RESTR>
3.63948

>  <SCORE.RESTR.CAVITY>
3.63948

>  <SCORE.RESTR.norm>
0.0727896

>  <SCORE.SYSTEM>
0

>  <SCORE.SYSTEM.CONST>
0

>  <SCORE.SYSTEM.DIHEDRAL>
0

>  <SCORE.SYSTEM.norm>
0

>  <SCORE.heavy>
50

>  <SCORE.norm>
0.902253

$$$$
