FB1.pdb
  RxDock  10072008463D
librxdock.so/0.1.0
 59 58  0  0  0  0  0  0  0  0999 V2000
    2.6311  -11.9267    7.0747 C   0  0  0  0  0  0
    1.5065  -11.0130    6.5935 C   0  0  0  0  0  0
    0.9130  -11.4947    5.2593 C   0  0  0  0  0  0
    1.2485  -10.5684    4.0638 C   0  0  0  0  0  0
    1.0131  -11.2030    2.6488 C   0  0  0  0  0  0
   -0.3775  -11.8789    2.6451 C   0  0  0  0  0  0
    1.1411  -10.1615    1.4585 C   0  0  0  0  0  0
    0.8417  -10.7064   -0.0179 C   0  0  0  0  0  0
    0.2571   -9.8361   -1.2133 C   0  0  0  0  0  0
    0.8565   -8.3030   -1.3208 C   0  0  0  0  0  0
    2.3824   -8.3764   -1.3018 C   0  0  0  0  0  0
    0.3778   -7.4475   -2.5792 C   0  0  0  0  0  0
    1.2363   -6.2447   -3.2386 C   0  0  0  0  0  0
    1.9728   -5.1655   -2.3731 C   0  0  0  0  0  0
    3.0742   -4.2507   -3.0796 C   0  0  0  0  0  0
    4.3898   -4.8054   -3.7551 C   0  0  0  0  0  0
    5.1328   -3.9396   -4.8066 C   0  0  0  0  0  0
    4.5128   -3.9047   -6.2570 C   0  0  0  0  0  0
    4.4483   -5.2445   -7.0007 C   0  0  0  0  0  0
    3.2325   -5.5129   -7.9324 C   0  0  0  0  0  0
    3.3162   -6.5927   -9.0515 C   0  0  0  0  0  0
    2.2928   -7.7177   -8.9854 C   0  0  0  0  0  0
    3.3254   -5.9659  -10.3870 N   0  0  0  0  0  0
    2.1830   -5.9738   -7.0437 O   0  0  0  0  0  0
    3.1863   -3.3753   -6.1577 O   0  0  0  0  0  0
    2.2753   -6.8990   -3.9863 O   0  0  0  0  0  0
    2.1044  -11.2151   -0.5271 O   0  0  0  0  0  0
    2.3750  -12.5277   -0.3055 C   0  0  0  0  0  0
    1.7360  -13.4745   -0.7234 O   0  0  0  0  0  0
    3.6634  -12.6247    0.4639 C   0  0  0  0  0  0
    3.8419  -13.9903    1.1465 C   0  0  0  0  0  0
    5.3054  -14.2851    1.4995 C   0  0  0  0  0  0
    5.4878  -15.7288    1.9065 C   0  0  0  0  0  0
    5.8240  -16.0788    3.0326 O   0  0  0  0  0  0
    5.2445  -16.5984    0.9147 O   0  0  0  0  0  0
    2.9937  -13.9371    2.4246 C   0  0  0  0  0  0
    2.0299  -14.6630    2.6162 O   0  0  0  0  0  0
    3.3674  -12.9914    3.2975 O   0  0  0  0  0  0
    0.3899   -8.9169    1.7530 O   0  0  0  0  0  0
    1.0609   -7.8712    2.3646 C   0  0  0  0  0  0
    0.5213   -6.9719    2.9958 O   0  0  0  0  0  0
    2.5801   -7.9572    2.1669 C   0  0  0  0  0  0
    3.4167   -6.8299    2.8480 C   0  0  0  0  0  0
    3.0287   -5.3678    2.5618 C   0  0  0  0  0  0
    3.0865   -5.0205    1.1022 C   0  0  0  0  0  0
    2.1400   -4.6591    0.4166 O   0  0  0  0  0  0
    4.3252   -5.1281    0.5978 O   0  0  0  0  0  0
    3.5588   -6.9715    4.3685 C   0  0  0  0  0  0
    2.9552   -7.8063    5.0132 O   0  0  0  0  0  0
    4.4852   -6.1742    4.9406 O   0  0  0  0  0  0
    3.4962   -6.6825  -11.0912 H   0  0  0  0  0  0
    4.1309   -5.3392  -10.4481 H   0  0  0  0  0  0
    1.9895   -5.2028   -6.4697 H   0  0  0  0  0  0
    3.2434   -2.4818   -5.7719 H   0  0  0  0  0  0
    1.8544   -7.4484   -4.6685 H   0  0  0  0  0  0
    5.4801  -17.5262    1.1070 H   0  0  0  0  0  0
    2.8038  -12.9363    4.1087 H   0  0  0  0  0  0
    4.2643   -4.8893   -0.3512 H   0  0  0  0  0  0
    5.0192   -5.6356    4.3153 H   0  0  0  0  0  0
  1  2  1  0  0  0
  2  3  1  0  0  0
  3  4  1  0  0  0
  4  5  1  0  0  0
  5  6  1  0  0  0
  5  7  1  0  0  0
  7  8  1  0  0  0
  7 39  1  0  0  0
  8  9  1  0  0  0
  8 27  1  0  0  0
  9 10  1  0  0  0
 10 11  1  0  0  0
 10 12  1  0  0  0
 12 13  1  0  0  0
 13 14  1  0  0  0
 13 26  1  0  0  0
 14 15  1  0  0  0
 15 16  1  0  0  0
 16 17  1  0  0  0
 17 18  1  0  0  0
 18 19  1  0  0  0
 18 25  1  0  0  0
 19 20  1  0  0  0
 20 21  1  0  0  0
 20 24  1  0  0  0
 21 22  1  0  0  0
 21 23  1  0  0  0
 23 51  1  0  0  0
 23 52  1  0  0  0
 24 53  1  0  0  0
 25 54  1  0  0  0
 26 55  1  0  0  0
 27 28  1  0  0  0
 28 29  2  0  0  0
 28 30  1  0  0  0
 30 31  1  0  0  0
 31 32  1  0  0  0
 31 36  1  0  0  0
 32 33  1  0  0  0
 33 34  2  0  0  0
 33 35  1  0  0  0
 35 56  1  0  0  0
 36 37  2  0  0  0
 36 38  1  0  0  0
 38 57  1  0  0  0
 39 40  1  0  0  0
 40 41  2  0  0  0
 40 42  1  0  0  0
 42 43  1  0  0  0
 43 44  1  0  0  0
 43 48  1  0  0  0
 44 45  1  0  0  0
 45 46  2  0  0  0
 45 47  1  0  0  0
 47 58  1  0  0  0
 48 49  2  0  0  0
 48 50  1  0  0  0
 50 59  1  0  0  0
M  END
>  <AUTHOR>
    GENERATED BY OPEN BABEL 2.4.1

>  <CHROM.1>
-110.18238861,163.98906499,47.02938195,-176.94193324,150.22982244,92.20853583
39.92546604,90.94652829,51.25635749,-153.12791639,-43.36582092,165.02147173
61.14958671,-60.94057667,159.25167900,-77.96685684,-61.95309303,144.69233532
59.19625930,159.64125793,121.32694957,64.98182645,173.06682867,62.45934872
161.90069400,159.78975995,-168.52369467,116.21487400,-114.98191381,171.35815866
178.11609225,-158.15685363,-178.89361318,-52.62029514,-58.86886657,-7.53390982
118.07321754,179.68583868,-4.43979707,2.66936110,-8.91847158,-0.29695485
1.77438085,-1.44437758,2.40847238

>  <COMPND>
    UNNAMED

>  <MASTER>
        0    0    0    0    0    0    0    0  109    0  109    0

>  <Name>
FB1.pdb

>  <RI>
0

>  <Rbt.Current_Directory>
/home/fc/tossine/FB1_39/p3/1_clust05

>  <Rbt.Executable>
rbdock/0.1.0

>  <Rbt.Library>
librxdock.so/0.1.0

>  <Rbt.Parameter_File>
/cluster/rxdock/data/scripts/dock.prm

>  <Rbt.Receptor>
rx_2.prm

>  <SCORE>
35.3075

>  <SCORE.INTER>
15.9397

>  <SCORE.INTER.CONST>
1

>  <SCORE.INTER.POLAR>
-2.12483

>  <SCORE.INTER.REPUL>
1.55591

>  <SCORE.INTER.ROT>
32

>  <SCORE.INTER.VDW>
-22.0154

>  <SCORE.INTER.norm>
0.318795

>  <SCORE.INTRA>
13.3013

>  <SCORE.INTRA.DIHEDRAL>
21.4921

>  <SCORE.INTRA.DIHEDRAL.0>
47.3121

>  <SCORE.INTRA.POLAR>
0.994835

>  <SCORE.INTRA.POLAR.0>
-1.47808

>  <SCORE.INTRA.REPUL>
0

>  <SCORE.INTRA.REPUL.0>
0

>  <SCORE.INTRA.VDW>
-0.827177

>  <SCORE.INTRA.VDW.0>
-2.78316

>  <SCORE.INTRA.norm>
0.266026

>  <SCORE.RESTR>
6.06648

>  <SCORE.RESTR.CAVITY>
6.06648

>  <SCORE.RESTR.norm>
0.12133

>  <SCORE.SYSTEM>
0

>  <SCORE.SYSTEM.CONST>
0

>  <SCORE.SYSTEM.DIHEDRAL>
0

>  <SCORE.SYSTEM.norm>
0

>  <SCORE.heavy>
50

>  <SCORE.norm>
0.706151

$$$$
