FB1.pdb
  RxDock  10072008043D
librxdock.so/0.1.0
 59 58  0  0  0  0  0  0  0  0999 V2000
    4.8944  -13.4575    6.5464 C   0  0  0  0  0  0
    3.3918  -13.3566    6.2946 C   0  0  0  0  0  0
    3.0820  -13.0131    4.8282 C   0  0  0  0  0  0
    1.7250  -13.5749    4.3358 C   0  0  0  0  0  0
    1.5379  -13.5822    2.7784 C   0  0  0  0  0  0
    0.0234  -13.6331    2.4716 C   0  0  0  0  0  0
    2.2229  -12.3486    2.0526 C   0  0  0  0  0  0
    3.7950  -12.1499    2.2873 C   0  0  0  0  0  0
    4.9417  -12.9416    1.5216 C   0  0  0  0  0  0
    5.1105  -14.5236    1.9576 C   0  0  0  0  0  0
    4.6436  -15.3994    0.7961 C   0  0  0  0  0  0
    6.5708  -14.9751    2.4145 C   0  0  0  0  0  0
    7.8758  -14.0201    2.3560 C   0  0  0  0  0  0
    9.3343  -14.5921    2.3159 C   0  0  0  0  0  0
   10.4809  -13.7983    3.0933 C   0  0  0  0  0  0
   11.9507  -13.6014    2.5497 C   0  0  0  0  0  0
   12.2083  -12.6112    1.3832 C   0  0  0  0  0  0
   12.9164  -13.1993    0.1019 C   0  0  0  0  0  0
   14.1726  -12.4620   -0.3787 C   0  0  0  0  0  0
   15.2320  -12.0430    0.6798 C   0  0  0  0  0  0
   16.6642  -11.6175    0.2405 C   0  0  0  0  0  0
   17.3647  -12.5273   -0.7590 C   0  0  0  0  0  0
   16.6776  -10.2167   -0.2222 N   0  0  0  0  0  0
   14.6699  -10.8675    1.3170 O   0  0  0  0  0  0
   13.2649  -14.5607    0.3755 O   0  0  0  0  0  0
    7.7323  -13.2724    1.1367 O   0  0  0  0  0  0
    4.0742  -10.7514    2.0067 O   0  0  0  0  0  0
    3.4528   -9.8296    2.7873 C   0  0  0  0  0  0
    3.1429   -9.9676    3.9554 O   0  0  0  0  0  0
    3.2990   -8.5608    1.9949 C   0  0  0  0  0  0
    2.3104   -7.5773    2.6413 C   0  0  0  0  0  0
    2.9959   -6.3030    3.1507 C   0  0  0  0  0  0
    3.7623   -6.5688    4.4256 C   0  0  0  0  0  0
    3.7812   -7.6565    4.9914 O   0  0  0  0  0  0
    4.4263   -5.4970    4.8831 O   0  0  0  0  0  0
    1.2912   -7.2247    1.5490 C   0  0  0  0  0  0
    0.9968   -6.0755    1.2575 O   0  0  0  0  0  0
    0.7105   -8.2854    0.9713 O   0  0  0  0  0  0
    1.8681  -12.3100    0.6130 O   0  0  0  0  0  0
    2.3559  -11.2682   -0.1583 C   0  0  0  0  0  0
    3.5244  -10.9041   -0.1780 O   0  0  0  0  0  0
    1.2603  -10.6043   -1.0029 C   0  0  0  0  0  0
    0.8152  -11.3912   -2.2746 C   0  0  0  0  0  0
   -0.6294  -11.2031   -2.7728 C   0  0  0  0  0  0
   -1.3864  -10.1635   -1.9980 C   0  0  0  0  0  0
   -1.5698   -9.0057   -2.3479 O   0  0  0  0  0  0
   -1.8818  -10.6414   -0.8462 O   0  0  0  0  0  0
    1.7385  -11.2184   -3.4870 C   0  0  0  0  0  0
    1.5737  -11.8149   -4.5328 O   0  0  0  0  0  0
    2.6938  -10.2739   -3.3578 O   0  0  0  0  0  0
   17.2235   -9.6548    0.4296 H   0  0  0  0  0  0
   15.7278   -9.8432   -0.1603 H   0  0  0  0  0  0
   15.3951  -10.5208    1.8785 H   0  0  0  0  0  0
   12.4473  -15.0471    0.5887 H   0  0  0  0  0  0
    8.4604  -12.6303    1.0901 H   0  0  0  0  0  0
    5.3442   -5.6667    5.1699 H   0  0  0  0  0  0
    1.0170   -9.1599    1.3176 H   0  0  0  0  0  0
   -2.7019  -10.1367   -0.6617 H   0  0  0  0  0  0
    3.6005  -10.6143   -3.1898 H   0  0  0  0  0  0
  1  2  1  0  0  0
  2  3  1  0  0  0
  3  4  1  0  0  0
  4  5  1  0  0  0
  5  6  1  0  0  0
  5  7  1  0  0  0
  7  8  1  0  0  0
  7 39  1  0  0  0
  8  9  1  0  0  0
  8 27  1  0  0  0
  9 10  1  0  0  0
 10 11  1  0  0  0
 10 12  1  0  0  0
 12 13  1  0  0  0
 13 14  1  0  0  0
 13 26  1  0  0  0
 14 15  1  0  0  0
 15 16  1  0  0  0
 16 17  1  0  0  0
 17 18  1  0  0  0
 18 19  1  0  0  0
 18 25  1  0  0  0
 19 20  1  0  0  0
 20 21  1  0  0  0
 20 24  1  0  0  0
 21 22  1  0  0  0
 21 23  1  0  0  0
 23 51  1  0  0  0
 23 52  1  0  0  0
 24 53  1  0  0  0
 25 54  1  0  0  0
 26 55  1  0  0  0
 27 28  1  0  0  0
 28 29  2  0  0  0
 28 30  1  0  0  0
 30 31  1  0  0  0
 31 32  1  0  0  0
 31 36  1  0  0  0
 32 33  1  0  0  0
 33 34  2  0  0  0
 33 35  1  0  0  0
 35 56  1  0  0  0
 36 37  2  0  0  0
 36 38  1  0  0  0
 38 57  1  0  0  0
 39 40  1  0  0  0
 40 41  2  0  0  0
 40 42  1  0  0  0
 42 43  1  0  0  0
 43 44  1  0  0  0
 43 48  1  0  0  0
 44 45  1  0  0  0
 45 46  2  0  0  0
 45 47  1  0  0  0
 47 58  1  0  0  0
 48 49  2  0  0  0
 48 50  1  0  0  0
 50 59  1  0  0  0
M  END
>  <AUTHOR>
    GENERATED BY OPEN BABEL 2.4.1

>  <CHROM.1>
150.70491742,-164.60478354,-158.45918987,57.11273401,80.82926970,178.17890388
-72.41278460,61.55069713,110.19641430,-5.12148472,-157.81808028,-143.93199140
175.60402459,-140.61579731,73.29059898,-123.57453731,-126.78776528,45.07137725
59.07908750,164.86167799,-47.54185080,-171.18300206,113.08958711,31.56556459
165.65771637,112.97499603,-75.03208889,-128.96605392,-2.50689255,-134.85758982
-0.40867078,48.87973923,-76.74080307,151.21452644,5.01075869,176.14202544
99.30992414,-149.87112285,104.02434135,5.36839024,-11.32025867,1.28118642
-0.03263341,-0.18887667,1.26406002

>  <COMPND>
    UNNAMED

>  <MASTER>
        0    0    0    0    0    0    0    0  109    0  109    0

>  <Name>
FB1.pdb

>  <RI>
0

>  <Rbt.Current_Directory>
/home/fc/tossine/FB1_39/p3/1_clust05

>  <Rbt.Executable>
rbdock/0.1.0

>  <Rbt.Library>
librxdock.so/0.1.0

>  <Rbt.Parameter_File>
/cluster/rxdock/data/scripts/dock.prm

>  <Rbt.Receptor>
rx_1.prm

>  <SCORE>
165.747

>  <SCORE.INTER>
114.162

>  <SCORE.INTER.CONST>
1

>  <SCORE.INTER.POLAR>
-1.20818

>  <SCORE.INTER.REPUL>
2.5502

>  <SCORE.INTER.ROT>
32

>  <SCORE.INTER.VDW>
68.119

>  <SCORE.INTER.norm>
2.28324

>  <SCORE.INTRA>
50.9683

>  <SCORE.INTRA.DIHEDRAL>
83.1591

>  <SCORE.INTRA.DIHEDRAL.0>
47.3121

>  <SCORE.INTRA.POLAR>
1.47808

>  <SCORE.INTRA.POLAR.0>
-1.47808

>  <SCORE.INTRA.REPUL>
0

>  <SCORE.INTRA.REPUL.0>
0

>  <SCORE.INTRA.VDW>
4.36323

>  <SCORE.INTRA.VDW.0>
-2.78316

>  <SCORE.INTRA.norm>
1.01937

>  <SCORE.RESTR>
0.616683

>  <SCORE.RESTR.CAVITY>
0.616683

>  <SCORE.RESTR.norm>
0.0123337

>  <SCORE.SYSTEM>
0

>  <SCORE.SYSTEM.CONST>
0

>  <SCORE.SYSTEM.DIHEDRAL>
0

>  <SCORE.SYSTEM.norm>
0

>  <SCORE.heavy>
50

>  <SCORE.norm>
3.31494

$$$$
