FB1.pdb
  RxDock  10072009503D
librxdock.so/0.1.0
 59 58  0  0  0  0  0  0  0  0999 V2000
    4.4877   -3.2772    1.4593 C   0  0  0  0  0  0
    4.9074   -3.4129   -0.0025 C   0  0  0  0  0  0
    5.8168   -4.6331   -0.2228 C   0  0  0  0  0  0
    5.0632   -5.9850   -0.1560 C   0  0  0  0  0  0
    3.7725   -6.0675   -1.0435 C   0  0  0  0  0  0
    4.2072   -6.2179   -2.5197 C   0  0  0  0  0  0
    2.7867   -7.2367   -0.6202 C   0  0  0  0  0  0
    1.5441   -6.8376    0.3087 C   0  0  0  0  0  0
    0.7752   -7.8299    1.2845 C   0  0  0  0  0  0
    0.8319   -9.4206    0.8512 C   0  0  0  0  0  0
    0.2001   -9.5695   -0.5319 C   0  0  0  0  0  0
    2.2754  -10.0996    0.8557 C   0  0  0  0  0  0
    2.5365  -11.6786    0.6163 C   0  0  0  0  0  0
    2.0151  -12.4332   -0.6544 C   0  0  0  0  0  0
    2.6170  -13.8761   -0.9786 C   0  0  0  0  0  0
    2.6856  -15.0641    0.0599 C   0  0  0  0  0  0
    3.5035  -14.8908    1.3670 C   0  0  0  0  0  0
    2.8476  -14.0076    2.4978 C   0  0  0  0  0  0
    2.5010  -14.7276    3.8070 C   0  0  0  0  0  0
    3.2344  -14.2891    5.1062 C   0  0  0  0  0  0
    4.7223  -14.6817    5.3460 C   0  0  0  0  0  0
    5.4625  -15.2872    4.1616 C   0  0  0  0  0  0
    5.4783  -13.5516    5.9184 N   0  0  0  0  0  0
    3.2317  -12.8394    5.0585 O   0  0  0  0  0  0
    3.7447  -12.9319    2.7942 O   0  0  0  0  0  0
    3.9670  -11.8141    0.5726 O   0  0  0  0  0  0
    2.0122   -5.7700    1.1769 O   0  0  0  0  0  0
    1.1468   -5.3196    2.1222 C   0  0  0  0  0  0
   -0.0594   -5.2180    2.0034 O   0  0  0  0  0  0
    1.9171   -5.0593    3.3872 C   0  0  0  0  0  0
    1.8036   -6.2138    4.3956 C   0  0  0  0  0  0
    2.9958   -7.1766    4.3246 C   0  0  0  0  0  0
    2.5375   -8.6158    4.3693 C   0  0  0  0  0  0
    1.7541   -9.0526    5.2055 O   0  0  0  0  0  0
    3.0699   -9.3764    3.4013 O   0  0  0  0  0  0
    1.7397   -5.5582    5.7820 C   0  0  0  0  0  0
    1.6718   -4.3495    5.9457 O   0  0  0  0  0  0
    1.8144   -6.4203    6.8053 O   0  0  0  0  0  0
    2.3650   -8.0340   -1.7976 O   0  0  0  0  0  0
    1.6482   -7.4013   -2.7996 C   0  0  0  0  0  0
    1.9617   -7.3958   -3.9829 O   0  0  0  0  0  0
    0.3958   -6.6947   -2.2644 C   0  0  0  0  0  0
   -0.9251   -6.9720   -3.0473 C   0  0  0  0  0  0
   -1.4401   -8.4218   -3.1063 C   0  0  0  0  0  0
   -1.0222   -9.1423   -4.3556 C   0  0  0  0  0  0
   -1.7320   -9.3523   -5.3295 O   0  0  0  0  0  0
    0.2597   -9.5367   -4.3160 O   0  0  0  0  0  0
   -2.1083   -6.0875   -2.6351 C   0  0  0  0  0  0
   -2.4152   -5.0748   -3.2327 O   0  0  0  0  0  0
   -2.8618   -6.5631   -1.6216 O   0  0  0  0  0  0
    6.1109  -13.9023    6.6363 H   0  0  0  0  0  0
    4.8265  -12.9416    6.4169 H   0  0  0  0  0  0
    3.4691  -12.5622    5.9685 H   0  0  0  0  0  0
    4.5998  -13.3145    3.0644 H   0  0  0  0  0  0
    4.2653  -12.1357    1.4398 H   0  0  0  0  0  0
    2.8911  -10.3333    3.4777 H   0  0  0  0  0  0
    2.3190   -7.2481    6.6082 H   0  0  0  0  0  0
    0.4115  -10.0807   -5.1175 H   0  0  0  0  0  0
   -3.4211   -5.8957   -1.1655 H   0  0  0  0  0  0
  1  2  1  0  0  0
  2  3  1  0  0  0
  3  4  1  0  0  0
  4  5  1  0  0  0
  5  6  1  0  0  0
  5  7  1  0  0  0
  7  8  1  0  0  0
  7 39  1  0  0  0
  8  9  1  0  0  0
  8 27  1  0  0  0
  9 10  1  0  0  0
 10 11  1  0  0  0
 10 12  1  0  0  0
 12 13  1  0  0  0
 13 14  1  0  0  0
 13 26  1  0  0  0
 14 15  1  0  0  0
 15 16  1  0  0  0
 16 17  1  0  0  0
 17 18  1  0  0  0
 18 19  1  0  0  0
 18 25  1  0  0  0
 19 20  1  0  0  0
 20 21  1  0  0  0
 20 24  1  0  0  0
 21 22  1  0  0  0
 21 23  1  0  0  0
 23 51  1  0  0  0
 23 52  1  0  0  0
 24 53  1  0  0  0
 25 54  1  0  0  0
 26 55  1  0  0  0
 27 28  1  0  0  0
 28 29  2  0  0  0
 28 30  1  0  0  0
 30 31  1  0  0  0
 31 32  1  0  0  0
 31 36  1  0  0  0
 32 33  1  0  0  0
 33 34  2  0  0  0
 33 35  1  0  0  0
 35 56  1  0  0  0
 36 37  2  0  0  0
 36 38  1  0  0  0
 38 57  1  0  0  0
 39 40  1  0  0  0
 40 41  2  0  0  0
 40 42  1  0  0  0
 42 43  1  0  0  0
 43 44  1  0  0  0
 43 48  1  0  0  0
 44 45  1  0  0  0
 45 46  2  0  0  0
 45 47  1  0  0  0
 47 58  1  0  0  0
 48 49  2  0  0  0
 48 50  1  0  0  0
 50 59  1  0  0  0
M  END
>  <AUTHOR>
    GENERATED BY OPEN BABEL 2.4.1

>  <CHROM.1>
73.28369248,50.23162255,74.81527105,98.17889901,-155.46915476,-62.41637152
-26.43817261,-175.96202894,-59.99793450,173.30285904,55.17524417,165.15346383
100.08221558,51.57998471,-60.83859446,76.00121158,115.82856836,116.37026878
-57.77207886,-74.14960563,10.23151014,165.30841537,139.52299164,-35.49203462
-98.73017033,96.94939828,-135.92515477,5.96965015,-49.55439537,171.88378691
28.32918040,125.63085722,-131.75456965,61.62680712,-95.90246546,96.50625198
-102.23304172,173.67036439,160.93632067,2.04055699,-8.84809125,0.93851006
-2.60685087,1.17560228,-2.84809514

>  <COMPND>
    UNNAMED

>  <MASTER>
        0    0    0    0    0    0    0    0  109    0  109    0

>  <Name>
FB1.pdb

>  <RI>
0

>  <Rbt.Current_Directory>
/home/fc/tossine/FB1_39/p3/1_clust05

>  <Rbt.Executable>
rbdock/0.1.0

>  <Rbt.Library>
librxdock.so/0.1.0

>  <Rbt.Parameter_File>
/cluster/rxdock/data/scripts/dock.prm

>  <Rbt.Receptor>
rx_4.prm

>  <SCORE>
64.1968

>  <SCORE.INTER>
16.4456

>  <SCORE.INTER.CONST>
1

>  <SCORE.INTER.POLAR>
-3.052

>  <SCORE.INTER.REPUL>
1.86577

>  <SCORE.INTER.ROT>
32

>  <SCORE.INTER.VDW>
-19.9064

>  <SCORE.INTER.norm>
0.328913

>  <SCORE.INTRA>
41.8393

>  <SCORE.INTRA.DIHEDRAL>
48.4612

>  <SCORE.INTRA.DIHEDRAL.0>
47.3121

>  <SCORE.INTRA.POLAR>
0.663582

>  <SCORE.INTRA.POLAR.0>
-1.47808

>  <SCORE.INTRA.REPUL>
0

>  <SCORE.INTRA.REPUL.0>
0

>  <SCORE.INTRA.VDW>
15.3525

>  <SCORE.INTRA.VDW.0>
-2.78316

>  <SCORE.INTRA.norm>
0.836785

>  <SCORE.RESTR>
5.91194

>  <SCORE.RESTR.CAVITY>
5.91194

>  <SCORE.RESTR.norm>
0.118239

>  <SCORE.SYSTEM>
0

>  <SCORE.SYSTEM.CONST>
0

>  <SCORE.SYSTEM.DIHEDRAL>
0

>  <SCORE.SYSTEM.norm>
0

>  <SCORE.heavy>
50

>  <SCORE.norm>
1.28394

$$$$
