FB1.pdb
  RxDock  10072009233D
librxdock.so/0.1.0
 59 58  0  0  0  0  0  0  0  0999 V2000
   -0.2654   -9.2259   -4.0205 C   0  0  0  0  0  0
    0.6653   -8.0262   -3.8601 C   0  0  0  0  0  0
    0.6316   -7.4668   -2.4282 C   0  0  0  0  0  0
    1.4321   -8.3201   -1.4129 C   0  0  0  0  0  0
    0.5719   -8.9774   -0.2777 C   0  0  0  0  0  0
   -0.3364  -10.0526   -0.9177 C   0  0  0  0  0  0
    1.4405   -9.5949    0.8979 C   0  0  0  0  0  0
    2.3853  -10.8346    0.5282 C   0  0  0  0  0  0
    3.5112  -11.4407    1.4733 C   0  0  0  0  0  0
    4.9581  -10.6494    1.4338 C   0  0  0  0  0  0
    4.8250   -9.3547    2.2339 C   0  0  0  0  0  0
    6.2232  -11.4711    1.9527 C   0  0  0  0  0  0
    6.9053  -12.6946    1.1425 C   0  0  0  0  0  0
    8.3914  -13.1331    1.3778 C   0  0  0  0  0  0
    9.5130  -11.9991    1.4520 C   0  0  0  0  0  0
   10.5098  -11.6568    0.2757 C   0  0  0  0  0  0
   11.7283  -10.7362    0.5496 C   0  0  0  0  0  0
   13.1542  -11.4034    0.4448 C   0  0  0  0  0  0
   13.3362  -12.7367    1.1806 C   0  0  0  0  0  0
   12.1117  -13.3417    1.9241 C   0  0  0  0  0  0
   12.1374  -14.8176    2.4207 C   0  0  0  0  0  0
   12.4670  -15.0319    3.8913 C   0  0  0  0  0  0
   10.8924  -15.5178    2.0519 N   0  0  0  0  0  0
   11.9810  -12.5428    3.1277 O   0  0  0  0  0  0
   13.4463  -11.6057   -0.9421 O   0  0  0  0  0  0
    6.1159  -13.8474    1.4808 O   0  0  0  0  0  0
    1.4992  -11.9550    0.2600 O   0  0  0  0  0  0
    1.7988  -12.7360   -0.8103 C   0  0  0  0  0  0
    1.2731  -12.6875   -1.9060 O   0  0  0  0  0  0
    2.9671  -13.6111   -0.4487 C   0  0  0  0  0  0
    2.5389  -14.8990    0.2728 C   0  0  0  0  0  0
    3.6931  -15.8973    0.4297 C   0  0  0  0  0  0
    3.3854  -16.9231    1.4957 C   0  0  0  0  0  0
    2.2669  -17.3880    1.6871 O   0  0  0  0  0  0
    4.4575  -17.2819    2.2174 O   0  0  0  0  0  0
    2.0324  -14.4605    1.6538 C   0  0  0  0  0  0
    2.6730  -13.7358    2.3999 O   0  0  0  0  0  0
    0.8456  -14.9792    1.9978 O   0  0  0  0  0  0
    2.1762   -8.5371    1.6327 O   0  0  0  0  0  0
    1.4580   -7.4695    2.1451 C   0  0  0  0  0  0
    0.2394   -7.3636    2.0988 O   0  0  0  0  0  0
    2.3640   -6.4124    2.7902 C   0  0  0  0  0  0
    2.4355   -5.0398    2.0518 C   0  0  0  0  0  0
    1.1265   -4.2520    1.8611 C   0  0  0  0  0  0
    0.2578   -4.8126    0.7723 C   0  0  0  0  0  0
   -0.8183   -5.3714    0.9345 O   0  0  0  0  0  0
    0.7791   -4.6222   -0.4493 O   0  0  0  0  0  0
    3.4731   -4.0635    2.6197 C   0  0  0  0  0  0
    3.8448   -3.0733    2.0213 O   0  0  0  0  0  0
    3.8746   -4.3151    3.8833 O   0  0  0  0  0  0
   11.1036  -16.2293    1.3535 H   0  0  0  0  0  0
   10.2745  -14.8567    1.5758 H   0  0  0  0  0  0
   11.1131  -12.8023    3.5029 H   0  0  0  0  0  0
   12.7145  -12.1156   -1.3359 H   0  0  0  0  0  0
    6.1084  -14.4426    0.7126 H   0  0  0  0  0  0
    5.2096  -17.6303    1.7011 H   0  0  0  0  0  0
    0.4781  -15.6287    1.3483 H   0  0  0  0  0  0
    1.5983   -4.0975   -0.3270 H   0  0  0  0  0  0
    4.5765   -3.7190    4.2272 H   0  0  0  0  0  0
  1  2  1  0  0  0
  2  3  1  0  0  0
  3  4  1  0  0  0
  4  5  1  0  0  0
  5  6  1  0  0  0
  5  7  1  0  0  0
  7  8  1  0  0  0
  7 39  1  0  0  0
  8  9  1  0  0  0
  8 27  1  0  0  0
  9 10  1  0  0  0
 10 11  1  0  0  0
 10 12  1  0  0  0
 12 13  1  0  0  0
 13 14  1  0  0  0
 13 26  1  0  0  0
 14 15  1  0  0  0
 15 16  1  0  0  0
 16 17  1  0  0  0
 17 18  1  0  0  0
 18 19  1  0  0  0
 18 25  1  0  0  0
 19 20  1  0  0  0
 20 21  1  0  0  0
 20 24  1  0  0  0
 21 22  1  0  0  0
 21 23  1  0  0  0
 23 51  1  0  0  0
 23 52  1  0  0  0
 24 53  1  0  0  0
 25 54  1  0  0  0
 26 55  1  0  0  0
 27 28  1  0  0  0
 28 29  2  0  0  0
 28 30  1  0  0  0
 30 31  1  0  0  0
 31 32  1  0  0  0
 31 36  1  0  0  0
 32 33  1  0  0  0
 33 34  2  0  0  0
 33 35  1  0  0  0
 35 56  1  0  0  0
 36 37  2  0  0  0
 36 38  1  0  0  0
 38 57  1  0  0  0
 39 40  1  0  0  0
 40 41  2  0  0  0
 40 42  1  0  0  0
 42 43  1  0  0  0
 43 44  1  0  0  0
 43 48  1  0  0  0
 44 45  1  0  0  0
 45 46  2  0  0  0
 45 47  1  0  0  0
 47 58  1  0  0  0
 48 49  2  0  0  0
 48 50  1  0  0  0
 50 59  1  0  0  0
M  END
>  <AUTHOR>
    GENERATED BY OPEN BABEL 2.4.1

>  <CHROM.1>
76.65956390,-116.06480275,67.87298096,-64.88756575,168.96899436,54.05753759
-82.83323268,137.42496645,75.97186222,72.11828170,157.19945648,-45.76180778
147.61051510,-102.62823738,-168.14438240,113.30131179,-48.05558974,1.83650434
-54.35488737,166.65486347,98.95141732,169.04402617,111.93635122,-100.46273393
85.34479438,170.28910507,161.81344158,-51.04321226,36.68155962,-56.52592018
4.21574794,4.03578494,112.14793660,59.34309136,-76.09510759,165.14314645
111.15249793,-3.54793600,176.68920037,4.60126576,-10.78756920,0.96294591
2.53244559,-0.15642589,0.04415597

>  <COMPND>
    UNNAMED

>  <MASTER>
        0    0    0    0    0    0    0    0  109    0  109    0

>  <Name>
FB1.pdb

>  <RI>
0

>  <Rbt.Current_Directory>
/home/fc/tossine/FB1_39/p3/1_clust05

>  <Rbt.Executable>
rbdock/0.1.0

>  <Rbt.Library>
librxdock.so/0.1.0

>  <Rbt.Parameter_File>
/cluster/rxdock/data/scripts/dock.prm

>  <Rbt.Receptor>
rx_3.prm

>  <SCORE>
115.492

>  <SCORE.INTER>
72.9923

>  <SCORE.INTER.CONST>
1

>  <SCORE.INTER.POLAR>
-2.38893

>  <SCORE.INTER.REPUL>
0.466623

>  <SCORE.INTER.ROT>
32

>  <SCORE.INTER.VDW>
41.3815

>  <SCORE.INTER.norm>
1.45985

>  <SCORE.INTRA>
40.7729

>  <SCORE.INTRA.DIHEDRAL>
59.2275

>  <SCORE.INTRA.DIHEDRAL.0>
47.3121

>  <SCORE.INTRA.POLAR>
1.47808

>  <SCORE.INTRA.POLAR.0>
-1.47808

>  <SCORE.INTRA.REPUL>
0

>  <SCORE.INTRA.REPUL.0>
0

>  <SCORE.INTRA.VDW>
6.13369

>  <SCORE.INTRA.VDW.0>
-2.78316

>  <SCORE.INTRA.norm>
0.815458

>  <SCORE.RESTR>
1.72673

>  <SCORE.RESTR.CAVITY>
1.72673

>  <SCORE.RESTR.norm>
0.0345346

>  <SCORE.SYSTEM>
0

>  <SCORE.SYSTEM.CONST>
0

>  <SCORE.SYSTEM.DIHEDRAL>
0

>  <SCORE.SYSTEM.norm>
0

>  <SCORE.heavy>
50

>  <SCORE.norm>
2.30984

$$$$
