FB1.pdb
  RxDock  10072008133D
librxdock.so/0.1.0
 59 58  0  0  0  0  0  0  0  0999 V2000
    1.8965  -12.1195    6.5395 C   0  0  0  0  0  0
    2.2744  -12.7754    5.2135 C   0  0  0  0  0  0
    3.6290  -13.4977    5.3012 C   0  0  0  0  0  0
    4.0834  -14.1233    3.9589 C   0  0  0  0  0  0
    5.0090  -15.3823    4.0955 C   0  0  0  0  0  0
    4.1944  -16.5136    4.7643 C   0  0  0  0  0  0
    5.6268  -15.8667    2.7165 C   0  0  0  0  0  0
    4.7315  -15.6531    1.4054 C   0  0  0  0  0  0
    4.4028  -14.2464    0.7411 C   0  0  0  0  0  0
    3.0565  -14.2204   -0.2119 C   0  0  0  0  0  0
    1.8856  -14.7907    0.5870 C   0  0  0  0  0  0
    2.6505  -12.8012   -0.8168 C   0  0  0  0  0  0
    2.3104  -11.4967    0.0784 C   0  0  0  0  0  0
    2.6375  -11.4197    1.6091 C   0  0  0  0  0  0
    2.3772  -10.0408    2.3707 C   0  0  0  0  0  0
    1.0734   -9.1653    2.2029 C   0  0  0  0  0  0
    1.0448   -8.0316    1.1440 C   0  0  0  0  0  0
    1.0170   -8.4795   -0.3686 C   0  0  0  0  0  0
    0.0019   -9.5689   -0.7360 C   0  0  0  0  0  0
   -0.2697   -9.8461   -2.2419 C   0  0  0  0  0  0
   -0.5402   -8.6704   -3.2267 C   0  0  0  0  0  0
   -0.8318   -9.0504   -4.6717 C   0  0  0  0  0  0
   -1.5828   -7.7708   -2.6974 N   0  0  0  0  0  0
    0.9473  -10.4691   -2.7263 O   0  0  0  0  0  0
    0.7505   -7.3215   -1.1673 O   0  0  0  0  0  0
    3.0656  -10.4303   -0.5208 O   0  0  0  0  0  0
    5.3765  -16.4097    0.3452 O   0  0  0  0  0  0
    4.6840  -17.4562   -0.1749 C   0  0  0  0  0  0
    3.5158  -17.7217    0.0357 O   0  0  0  0  0  0
    5.5761  -18.1833   -1.1428 C   0  0  0  0  0  0
    4.9950  -19.5381   -1.5778 C   0  0  0  0  0  0
    3.6852  -19.3920   -2.3630 C   0  0  0  0  0  0
    2.6157  -20.3076   -1.8142 C   0  0  0  0  0  0
    2.3184  -21.3838   -2.3213 O   0  0  0  0  0  0
    2.0185  -19.8311   -0.7119 O   0  0  0  0  0  0
    6.0664  -20.1928   -2.4607 C   0  0  0  0  0  0
    6.0951  -21.3910   -2.6969 O   0  0  0  0  0  0
    7.0018  -19.3470   -2.9142 O   0  0  0  0  0  0
    7.0054  -15.3502    2.5366 O   0  0  0  0  0  0
    8.0470  -16.0227    3.1536 C   0  0  0  0  0  0
    7.9074  -16.9036    3.9921 O   0  0  0  0  0  0
    9.4210  -15.5419    2.6687 C   0  0  0  0  0  0
   10.6097  -16.5200    2.9236 C   0  0  0  0  0  0
   11.7579  -16.5458    1.8983 C   0  0  0  0  0  0
   12.3615  -15.1918    1.6595 C   0  0  0  0  0  0
   11.7396  -14.1469    1.5255 O   0  0  0  0  0  0
   13.7023  -15.2270    1.6226 O   0  0  0  0  0  0
   11.2465  -16.4009    4.3138 C   0  0  0  0  0  0
   12.2090  -15.6948    4.5409 O   0  0  0  0  0  0
   10.6016  -17.0525    5.3042 O   0  0  0  0  0  0
   -1.3685   -7.5458   -1.7268 H   0  0  0  0  0  0
   -2.4674   -8.2822   -2.6601 H   0  0  0  0  0  0
    1.6343   -9.7761   -2.6302 H   0  0  0  0  0  0
    1.5508   -7.1190   -1.6860 H   0  0  0  0  0  0
    4.0018  -10.6912   -0.5268 H   0  0  0  0  0  0
    2.3660  -18.9791   -0.3850 H   0  0  0  0  0  0
    7.7170  -19.7743   -3.4477 H   0  0  0  0  0  0
   13.9686  -16.1221    1.9213 H   0  0  0  0  0  0
    9.9029  -17.6780    5.0097 H   0  0  0  0  0  0
  1  2  1  0  0  0
  2  3  1  0  0  0
  3  4  1  0  0  0
  4  5  1  0  0  0
  5  6  1  0  0  0
  5  7  1  0  0  0
  7  8  1  0  0  0
  7 39  1  0  0  0
  8  9  1  0  0  0
  8 27  1  0  0  0
  9 10  1  0  0  0
 10 11  1  0  0  0
 10 12  1  0  0  0
 12 13  1  0  0  0
 13 14  1  0  0  0
 13 26  1  0  0  0
 14 15  1  0  0  0
 15 16  1  0  0  0
 16 17  1  0  0  0
 17 18  1  0  0  0
 18 19  1  0  0  0
 18 25  1  0  0  0
 19 20  1  0  0  0
 20 21  1  0  0  0
 20 24  1  0  0  0
 21 22  1  0  0  0
 21 23  1  0  0  0
 23 51  1  0  0  0
 23 52  1  0  0  0
 24 53  1  0  0  0
 25 54  1  0  0  0
 26 55  1  0  0  0
 27 28  1  0  0  0
 28 29  2  0  0  0
 28 30  1  0  0  0
 30 31  1  0  0  0
 31 32  1  0  0  0
 31 36  1  0  0  0
 32 33  1  0  0  0
 33 34  2  0  0  0
 33 35  1  0  0  0
 35 56  1  0  0  0
 36 37  2  0  0  0
 36 38  1  0  0  0
 38 57  1  0  0  0
 39 40  1  0  0  0
 40 41  2  0  0  0
 40 42  1  0  0  0
 42 43  1  0  0  0
 43 44  1  0  0  0
 43 48  1  0  0  0
 44 45  1  0  0  0
 45 46  2  0  0  0
 45 47  1  0  0  0
 47 58  1  0  0  0
 48 49  2  0  0  0
 48 50  1  0  0  0
 50 59  1  0  0  0
M  END
>  <AUTHOR>
    GENERATED BY OPEN BABEL 2.4.1

>  <CHROM.1>
-177.35295576,-151.92765507,64.82011589,-32.57111485,70.09927697,81.73346051
-158.05431219,115.52886765,52.32756405,-59.01708285,13.19719577,174.76187345
-56.90410166,44.87887117,-92.48871323,70.38049011,47.53524013,167.97025209
112.12985134,-47.66350261,-178.39760483,-64.23448194,48.15991367,10.00234656
168.61483452,64.24043487,-130.59746034,160.71733239,-100.04115191,-2.15070960
177.23095147,-10.83388931,-160.43744137,147.29230906,54.79055637,-93.28778956
-42.82940805,-9.79065958,11.79536146,4.72888543,-14.50101340,0.81224834,-2.64196584
0.59666914,-2.67722981

>  <COMPND>
    UNNAMED

>  <MASTER>
        0    0    0    0    0    0    0    0  109    0  109    0

>  <Name>
FB1.pdb

>  <RI>
0

>  <Rbt.Current_Directory>
/home/fc/tossine/FB1_39/p3/1_clust05

>  <Rbt.Executable>
rbdock/0.1.0

>  <Rbt.Library>
librxdock.so/0.1.0

>  <Rbt.Parameter_File>
/cluster/rxdock/data/scripts/dock.prm

>  <Rbt.Receptor>
rx_1.prm

>  <SCORE>
19.3832

>  <SCORE.INTER>
5.32514

>  <SCORE.INTER.CONST>
1

>  <SCORE.INTER.POLAR>
-4.51517

>  <SCORE.INTER.REPUL>
0.83583

>  <SCORE.INTER.ROT>
32

>  <SCORE.INTER.VDW>
-20.9024

>  <SCORE.INTER.norm>
0.106503

>  <SCORE.INTRA>
6.69834

>  <SCORE.INTRA.DIHEDRAL>
12.0375

>  <SCORE.INTRA.DIHEDRAL.0>
47.3121

>  <SCORE.INTRA.POLAR>
0.0620793

>  <SCORE.INTRA.POLAR.0>
-1.47808

>  <SCORE.INTRA.REPUL>
0

>  <SCORE.INTRA.REPUL.0>
0

>  <SCORE.INTRA.VDW>
0.468526

>  <SCORE.INTRA.VDW.0>
-2.78316

>  <SCORE.INTRA.norm>
0.133967

>  <SCORE.RESTR>
7.35974

>  <SCORE.RESTR.CAVITY>
7.35974

>  <SCORE.RESTR.norm>
0.147195

>  <SCORE.SYSTEM>
0

>  <SCORE.SYSTEM.CONST>
0

>  <SCORE.SYSTEM.DIHEDRAL>
0

>  <SCORE.SYSTEM.norm>
0

>  <SCORE.heavy>
50

>  <SCORE.norm>
0.387664

$$$$
