FB1.pdb
  RxDock  10072008453D
librxdock.so/0.1.0
 59 58  0  0  0  0  0  0  0  0999 V2000
    1.2590  -11.3182   -3.2519 C   0  0  0  0  0  0
    1.1635  -10.8804   -1.7923 C   0  0  0  0  0  0
    2.2483  -11.5429   -0.9270 C   0  0  0  0  0  0
    1.6939  -12.2029    0.3601 C   0  0  0  0  0  0
    1.0921  -11.2041    1.4093 C   0  0  0  0  0  0
   -0.0167  -11.9382    2.1981 C   0  0  0  0  0  0
    2.1756  -10.5893    2.3921 C   0  0  0  0  0  0
    2.0328   -9.0339    2.7482 C   0  0  0  0  0  0
    2.8844   -8.2654    3.8493 C   0  0  0  0  0  0
    3.9545   -7.1576    3.2585 C   0  0  0  0  0  0
    4.9616   -7.8831    2.3677 C   0  0  0  0  0  0
    3.3248   -5.9272    2.4619 C   0  0  0  0  0  0
    4.0037   -5.2454    1.1608 C   0  0  0  0  0  0
    4.0719   -5.9689   -0.2277 C   0  0  0  0  0  0
    5.2827   -5.6162   -1.2068 C   0  0  0  0  0  0
    5.1846   -5.6325   -2.7831 C   0  0  0  0  0  0
    4.4559   -4.4751   -3.5158 C   0  0  0  0  0  0
    4.8304   -4.2534   -5.0323 C   0  0  0  0  0  0
    4.2639   -5.2732   -6.0281 C   0  0  0  0  0  0
    4.5128   -5.0390   -7.5452 C   0  0  0  0  0  0
    3.9518   -6.0357   -8.6022 C   0  0  0  0  0  0
    2.5261   -6.5228   -8.3845 C   0  0  0  0  0  0
    4.1252   -5.5058   -9.9681 N   0  0  0  0  0  0
    3.8585   -3.7772   -7.8345 O   0  0  0  0  0  0
    4.3804   -2.9485   -5.4122 O   0  0  0  0  0  0
    3.2358   -4.0531    0.9253 O   0  0  0  0  0  0
    2.2989   -8.3091    1.5168 O   0  0  0  0  0  0
    1.3029   -7.5188    1.0387 C   0  0  0  0  0  0
    0.5287   -6.8563    1.7028 O   0  0  0  0  0  0
    1.3770   -7.5159   -0.4633 C   0  0  0  0  0  0
    1.1316   -6.1225   -1.0638 C   0  0  0  0  0  0
    1.5863   -6.0231   -2.5256 C   0  0  0  0  0  0
    0.8525   -7.0189   -3.3936 C   0  0  0  0  0  0
    1.0571   -8.2275   -3.3608 O   0  0  0  0  0  0
   -0.0512   -6.4540   -4.2079 O   0  0  0  0  0  0
   -0.3812   -5.8818   -0.9667 C   0  0  0  0  0  0
   -1.1540   -6.1160   -1.8834 O   0  0  0  0  0  0
   -0.7823   -5.3447    0.1937 O   0  0  0  0  0  0
    2.3305  -11.4243    3.6081 O   0  0  0  0  0  0
    2.9656  -12.6494    3.4898 C   0  0  0  0  0  0
    2.8455  -13.5753    4.2814 O   0  0  0  0  0  0
    3.8520  -12.7292    2.2399 C   0  0  0  0  0  0
    4.3632  -14.1540    1.8619 C   0  0  0  0  0  0
    3.8182  -14.8002    0.5751 C   0  0  0  0  0  0
    2.4980  -15.4864    0.7770 C   0  0  0  0  0  0
    1.4350  -15.1509    0.2730 O   0  0  0  0  0  0
    2.5940  -16.5579    1.5789 O   0  0  0  0  0  0
    5.8900  -14.2956    1.8282 C   0  0  0  0  0  0
    6.4781  -15.2274    2.3406 O   0  0  0  0  0  0
    6.5418  -13.3685    1.0955 O   0  0  0  0  0  0
    3.4877   -4.7228  -10.1060 H   0  0  0  0  0  0
    3.8177   -6.2166  -10.6357 H   0  0  0  0  0  0
    4.3795   -3.1101   -7.3397 H   0  0  0  0  0  0
    3.4593   -2.8444   -5.1100 H   0  0  0  0  0  0
    2.3434   -4.3201    0.6481 H   0  0  0  0  0  0
   -0.4657   -7.0583   -4.8532 H   0  0  0  0  0  0
   -0.1437   -5.4584    0.9407 H   0  0  0  0  0  0
    3.1411  -16.2869    2.3461 H   0  0  0  0  0  0
    7.5162  -13.4860    1.0406 H   0  0  0  0  0  0
  1  2  1  0  0  0
  2  3  1  0  0  0
  3  4  1  0  0  0
  4  5  1  0  0  0
  5  6  1  0  0  0
  5  7  1  0  0  0
  7  8  1  0  0  0
  7 39  1  0  0  0
  8  9  1  0  0  0
  8 27  1  0  0  0
  9 10  1  0  0  0
 10 11  1  0  0  0
 10 12  1  0  0  0
 12 13  1  0  0  0
 13 14  1  0  0  0
 13 26  1  0  0  0
 14 15  1  0  0  0
 15 16  1  0  0  0
 16 17  1  0  0  0
 17 18  1  0  0  0
 18 19  1  0  0  0
 18 25  1  0  0  0
 19 20  1  0  0  0
 20 21  1  0  0  0
 20 24  1  0  0  0
 21 22  1  0  0  0
 21 23  1  0  0  0
 23 51  1  0  0  0
 23 52  1  0  0  0
 24 53  1  0  0  0
 25 54  1  0  0  0
 26 55  1  0  0  0
 27 28  1  0  0  0
 28 29  2  0  0  0
 28 30  1  0  0  0
 30 31  1  0  0  0
 31 32  1  0  0  0
 31 36  1  0  0  0
 32 33  1  0  0  0
 33 34  2  0  0  0
 33 35  1  0  0  0
 35 56  1  0  0  0
 36 37  2  0  0  0
 36 38  1  0  0  0
 38 57  1  0  0  0
 39 40  1  0  0  0
 40 41  2  0  0  0
 40 42  1  0  0  0
 42 43  1  0  0  0
 43 44  1  0  0  0
 43 48  1  0  0  0
 44 45  1  0  0  0
 45 46  2  0  0  0
 45 47  1  0  0  0
 47 58  1  0  0  0
 48 49  2  0  0  0
 48 50  1  0  0  0
 50 59  1  0  0  0
M  END
>  <AUTHOR>
    GENERATED BY OPEN BABEL 2.4.1

>  <CHROM.1>
-129.94265080,-66.10993513,150.65687846,139.36148282,171.56382837,71.93639577
111.42930709,119.79257414,-61.11599190,-143.30013518,70.65621060,-151.00736346
-67.53319626,-148.32763518,75.58527996,158.21742115,74.52062919,175.40897743
-48.10419733,-179.52673949,43.03677891,66.81247682,-70.73414783,36.69243930
-138.94540389,163.87250417,59.75090976,-95.00857460,-72.05223118,173.14839853
-20.28500514,-158.95568190,-167.55777658,111.71201967,-83.86961709,134.03719757
114.40493713,45.40789945,-177.23079984,2.76424809,-8.76353875,-0.81935578
-1.56794697,1.36031253,-0.75220460

>  <COMPND>
    UNNAMED

>  <MASTER>
        0    0    0    0    0    0    0    0  109    0  109    0

>  <Name>
FB1.pdb

>  <RI>
0

>  <Rbt.Current_Directory>
/home/fc/tossine/FB1_39/p3/1_clust05

>  <Rbt.Executable>
rbdock/0.1.0

>  <Rbt.Library>
librxdock.so/0.1.0

>  <Rbt.Parameter_File>
/cluster/rxdock/data/scripts/dock.prm

>  <Rbt.Receptor>
rx_2.prm

>  <SCORE>
42.4805

>  <SCORE.INTER>
14.0639

>  <SCORE.INTER.CONST>
1

>  <SCORE.INTER.POLAR>
-0.850989

>  <SCORE.INTER.REPUL>
0.290817

>  <SCORE.INTER.ROT>
32

>  <SCORE.INTER.VDW>
-21.8968

>  <SCORE.INTER.norm>
0.281279

>  <SCORE.INTRA>
25.0905

>  <SCORE.INTRA.DIHEDRAL>
40.2243

>  <SCORE.INTRA.DIHEDRAL.0>
47.3121

>  <SCORE.INTRA.POLAR>
0.512009

>  <SCORE.INTRA.POLAR.0>
-1.47808

>  <SCORE.INTRA.REPUL>
0

>  <SCORE.INTRA.REPUL.0>
0

>  <SCORE.INTRA.VDW>
3.2375

>  <SCORE.INTRA.VDW.0>
-2.78316

>  <SCORE.INTRA.norm>
0.50181

>  <SCORE.RESTR>
3.32607

>  <SCORE.RESTR.CAVITY>
3.32607

>  <SCORE.RESTR.norm>
0.0665213

>  <SCORE.SYSTEM>
0

>  <SCORE.SYSTEM.CONST>
0

>  <SCORE.SYSTEM.DIHEDRAL>
0

>  <SCORE.SYSTEM.norm>
0

>  <SCORE.heavy>
50

>  <SCORE.norm>
0.84961

$$$$
