FB1.pdb
  RxDock  10072009443D
librxdock.so/0.1.0
 59 58  0  0  0  0  0  0  0  0999 V2000
   -2.1685   -6.8648   -2.7535 C   0  0  0  0  0  0
   -0.8135   -7.4423   -3.1557 C   0  0  0  0  0  0
    0.3499   -6.6381   -2.5524 C   0  0  0  0  0  0
    1.7291   -7.3215   -2.7272 C   0  0  0  0  0  0
    2.8380   -6.8386   -1.7284 C   0  0  0  0  0  0
    3.4494   -5.5291   -2.2779 C   0  0  0  0  0  0
    2.3111   -6.6402   -0.2449 C   0  0  0  0  0  0
    2.3226   -7.9281    0.7077 C   0  0  0  0  0  0
    1.1297   -8.3721    1.6606 C   0  0  0  0  0  0
    1.5819   -9.2349    2.9919 C   0  0  0  0  0  0
    1.6770   -8.2793    4.1800 C   0  0  0  0  0  0
    0.6535  -10.4743    3.3752 C   0  0  0  0  0  0
    0.7300  -11.9221    2.6566 C   0  0  0  0  0  0
    0.0841  -13.2057    3.2821 C   0  0  0  0  0  0
    0.1480  -13.3903    4.8667 C   0  0  0  0  0  0
   -0.5677  -12.4362    5.9021 C   0  0  0  0  0  0
    0.1300  -11.1209    6.3386 C   0  0  0  0  0  0
    1.4616  -11.2712    7.1713 C   0  0  0  0  0  0
    2.6354  -11.9538    6.4581 C   0  0  0  0  0  0
    3.8089  -12.4958    7.3227 C   0  0  0  0  0  0
    3.5490  -13.5536    8.4358 C   0  0  0  0  0  0
    2.9935  -14.8952    7.9790 C   0  0  0  0  0  0
    4.7476  -13.7376    9.2760 N   0  0  0  0  0  0
    4.6888  -13.1549    6.3765 O   0  0  0  0  0  0
    1.8765   -9.9635    7.5808 O   0  0  0  0  0  0
    0.0644  -11.7440    1.3948 O   0  0  0  0  0  0
    2.5350   -9.0740   -0.1608 O   0  0  0  0  0  0
    3.3249  -10.0711    0.3158 C   0  0  0  0  0  0
    3.8920  -10.0877    1.3916 O   0  0  0  0  0  0
    3.3034  -11.2072   -0.6692 C   0  0  0  0  0  0
    2.0508  -12.0868   -0.5285 C   0  0  0  0  0  0
    1.3747  -12.3682   -1.8765 C   0  0  0  0  0  0
    0.4684  -11.2284   -2.2802 C   0  0  0  0  0  0
    0.8679  -10.0909   -2.5045 O   0  0  0  0  0  0
   -0.8227  -11.5794   -2.3727 O   0  0  0  0  0  0
    2.5274  -13.4014    0.1045 C   0  0  0  0  0  0
    3.7035  -13.7272    0.1596 O   0  0  0  0  0  0
    1.5401  -14.1903    0.5505 O   0  0  0  0  0  0
    2.9533   -5.4686    0.3992 O   0  0  0  0  0  0
    2.1544   -4.5841    1.1046 C   0  0  0  0  0  0
    0.9851   -4.3381    0.8391 O   0  0  0  0  0  0
    2.8995   -3.9318    2.2766 C   0  0  0  0  0  0
    2.8334   -4.6999    3.6331 C   0  0  0  0  0  0
    1.4456   -5.0685    4.1887 C   0  0  0  0  0  0
    1.4862   -5.5082    5.6238 C   0  0  0  0  0  0
    2.4627   -5.4558    6.3588 O   0  0  0  0  0  0
    0.3007   -5.9666    6.0538 O   0  0  0  0  0  0
    3.6955   -5.9671    3.6910 C   0  0  0  0  0  0
    3.8658   -6.6942    2.7324 O   0  0  0  0  0  0
    4.3474   -6.1716    4.8548 O   0  0  0  0  0  0
    4.9870  -12.8499    9.7154 H   0  0  0  0  0  0
    5.5417  -13.9539    8.6693 H   0  0  0  0  0  0
    5.4992  -13.3545    6.8909 H   0  0  0  0  0  0
    2.0407   -9.4319    6.7802 H   0  0  0  0  0  0
    0.1771  -12.5591    0.8777 H   0  0  0  0  0  0
   -1.4267  -10.8715   -2.6689 H   0  0  0  0  0  0
    1.8331  -15.0898    0.8400 H   0  0  0  0  0  0
   -0.2884   -6.0009    5.2708 H   0  0  0  0  0  0
    4.0781   -5.5842    5.5956 H   0  0  0  0  0  0
  1  2  1  0  0  0
  2  3  1  0  0  0
  3  4  1  0  0  0
  4  5  1  0  0  0
  5  6  1  0  0  0
  5  7  1  0  0  0
  7  8  1  0  0  0
  7 39  1  0  0  0
  8  9  1  0  0  0
  8 27  1  0  0  0
  9 10  1  0  0  0
 10 11  1  0  0  0
 10 12  1  0  0  0
 12 13  1  0  0  0
 13 14  1  0  0  0
 13 26  1  0  0  0
 14 15  1  0  0  0
 15 16  1  0  0  0
 16 17  1  0  0  0
 17 18  1  0  0  0
 18 19  1  0  0  0
 18 25  1  0  0  0
 19 20  1  0  0  0
 20 21  1  0  0  0
 20 24  1  0  0  0
 21 22  1  0  0  0
 21 23  1  0  0  0
 23 51  1  0  0  0
 23 52  1  0  0  0
 24 53  1  0  0  0
 25 54  1  0  0  0
 26 55  1  0  0  0
 27 28  1  0  0  0
 28 29  2  0  0  0
 28 30  1  0  0  0
 30 31  1  0  0  0
 31 32  1  0  0  0
 31 36  1  0  0  0
 32 33  1  0  0  0
 33 34  2  0  0  0
 33 35  1  0  0  0
 35 56  1  0  0  0
 36 37  2  0  0  0
 36 38  1  0  0  0
 38 57  1  0  0  0
 39 40  1  0  0  0
 40 41  2  0  0  0
 40 42  1  0  0  0
 42 43  1  0  0  0
 43 44  1  0  0  0
 43 48  1  0  0  0
 44 45  1  0  0  0
 45 46  2  0  0  0
 45 47  1  0  0  0
 47 58  1  0  0  0
 48 49  2  0  0  0
 48 50  1  0  0  0
 50 59  1  0  0  0
M  END
>  <AUTHOR>
    GENERATED BY OPEN BABEL 2.4.1

>  <CHROM.1>
170.03431218,-159.25205334,-82.39369032,86.87514992,-134.80377210,134.59382049
-152.73218959,142.20496807,97.36097410,80.34290923,163.87675031,-37.48285364
173.28111654,64.50689365,-83.77028039,-66.17438792,63.16066131,-162.66674995
-60.90531785,58.27759542,62.07682586,170.22763524,60.14686868,-1.38538016
-80.58485269,132.22454460,-82.94666905,-15.07651913,63.02061554,-177.51444870
171.70376979,-31.03412846,-89.15413419,-53.96752893,-166.58019677,-35.30864270
7.80647083,6.75206612,10.68742461,1.91728423,-9.40900683,2.35582770,2.31619504
-1.37819673,-0.26815960

>  <COMPND>
    UNNAMED

>  <MASTER>
        0    0    0    0    0    0    0    0  109    0  109    0

>  <Name>
FB1.pdb

>  <RI>
0

>  <Rbt.Current_Directory>
/home/fc/tossine/FB1_39/p3/1_clust05

>  <Rbt.Executable>
rbdock/0.1.0

>  <Rbt.Library>
librxdock.so/0.1.0

>  <Rbt.Parameter_File>
/cluster/rxdock/data/scripts/dock.prm

>  <Rbt.Receptor>
rx_4.prm

>  <SCORE>
26.1421

>  <SCORE.INTER>
12.4299

>  <SCORE.INTER.CONST>
1

>  <SCORE.INTER.POLAR>
-2.24848

>  <SCORE.INTER.REPUL>
0.32107

>  <SCORE.INTER.ROT>
32

>  <SCORE.INTER.VDW>
-18.9306

>  <SCORE.INTER.norm>
0.248599

>  <SCORE.INTRA>
5.08777

>  <SCORE.INTRA.DIHEDRAL>
15.9484

>  <SCORE.INTRA.DIHEDRAL.0>
47.3121

>  <SCORE.INTRA.POLAR>
0.157337

>  <SCORE.INTRA.POLAR.0>
-1.47808

>  <SCORE.INTRA.REPUL>
0

>  <SCORE.INTRA.REPUL.0>
0

>  <SCORE.INTRA.VDW>
-3.42139

>  <SCORE.INTRA.VDW.0>
-2.78316

>  <SCORE.INTRA.norm>
0.101755

>  <SCORE.RESTR>
8.6244

>  <SCORE.RESTR.CAVITY>
8.6244

>  <SCORE.RESTR.norm>
0.172488

>  <SCORE.SYSTEM>
0

>  <SCORE.SYSTEM.CONST>
0

>  <SCORE.SYSTEM.DIHEDRAL>
0

>  <SCORE.SYSTEM.norm>
0

>  <SCORE.heavy>
50

>  <SCORE.norm>
0.522842

$$$$
