FB1.pdb
  RxDock  10072009243D
librxdock.so/0.1.0
 59 58  0  0  0  0  0  0  0  0999 V2000
   -0.6004   -5.5686    2.1832 C   0  0  0  0  0  0
    0.4313   -6.5057    2.8064 C   0  0  0  0  0  0
    1.7131   -6.5846    1.9608 C   0  0  0  0  0  0
    2.7815   -7.5413    2.5465 C   0  0  0  0  0  0
    4.1784   -7.4881    1.8351 C   0  0  0  0  0  0
    5.2428   -8.0358    2.8138 C   0  0  0  0  0  0
    4.2174   -8.2732    0.4567 C   0  0  0  0  0  0
    3.7556   -9.8069    0.4819 C   0  0  0  0  0  0
    4.2683  -10.9001    1.5165 C   0  0  0  0  0  0
    3.4379  -12.3254    1.4970 C   0  0  0  0  0  0
    3.1234  -12.6838    0.0455 C   0  0  0  0  0  0
    4.1476  -13.5624    2.2117 C   0  0  0  0  0  0
    5.4460  -14.3280    1.6230 C   0  0  0  0  0  0
    6.5364  -13.5966    0.7673 C   0  0  0  0  0  0
    7.8346  -13.0391    1.5110 C   0  0  0  0  0  0
    9.0063  -13.9478    2.0548 C   0  0  0  0  0  0
   10.2179  -13.2891    2.7658 C   0  0  0  0  0  0
   11.1528  -12.3838    1.8738 C   0  0  0  0  0  0
   12.3879  -13.0669    1.2734 C   0  0  0  0  0  0
   13.6880  -12.2293    1.1115 C   0  0  0  0  0  0
   14.8322  -12.7172    0.1744 C   0  0  0  0  0  0
   14.5056  -12.7938   -1.3105 C   0  0  0  0  0  0
   16.0660  -11.9416    0.4036 N   0  0  0  0  0  0
   13.2462  -10.9711    0.5409 O   0  0  0  0  0  0
   10.3628  -11.8515    0.8050 O   0  0  0  0  0  0
    6.1435  -14.8169    2.7811 O   0  0  0  0  0  0
    2.3129   -9.7940    0.6575 O   0  0  0  0  0  0
    1.5547   -9.7578   -0.4691 C   0  0  0  0  0  0
    1.4061  -10.6648   -1.2658 O   0  0  0  0  0  0
    0.8406   -8.4353   -0.5200 C   0  0  0  0  0  0
   -0.0080   -8.2711   -1.7909 C   0  0  0  0  0  0
   -0.5977   -6.8615   -1.9270 C   0  0  0  0  0  0
   -2.0755   -6.9163   -2.2374 C   0  0  0  0  0  0
   -2.8218   -7.7999   -1.8300 O   0  0  0  0  0  0
   -2.4985   -5.9005   -3.0042 O   0  0  0  0  0  0
    0.9336   -8.5625   -2.9675 C   0  0  0  0  0  0
    0.7670   -9.4938   -3.7403 O   0  0  0  0  0  0
    1.9868   -7.7378   -3.0503 O   0  0  0  0  0  0
    3.5369   -7.5069   -0.6154 O   0  0  0  0  0  0
    4.1892   -6.4130   -1.1593 C   0  0  0  0  0  0
    4.4426   -6.2739   -2.3487 O   0  0  0  0  0  0
    4.5685   -5.3722   -0.0976 C   0  0  0  0  0  0
    3.3945   -4.4998    0.4457 C   0  0  0  0  0  0
    3.6149   -3.7276    1.7593 C   0  0  0  0  0  0
    4.8106   -2.8205    1.7130 C   0  0  0  0  0  0
    5.5166   -2.6200    0.7343 O   0  0  0  0  0  0
    5.0357   -2.2080    2.8853 O   0  0  0  0  0  0
    2.8134   -3.5087   -0.5703 C   0  0  0  0  0  0
    2.9952   -2.3091   -0.5009 O   0  0  0  0  0  0
    2.1693   -4.0639   -1.6182 O   0  0  0  0  0  0
   16.7872  -12.2630   -0.2406 H   0  0  0  0  0  0
   16.4250  -12.1663    1.3343 H   0  0  0  0  0  0
   14.0231  -10.3782    0.6195 H   0  0  0  0  0  0
   10.0866  -12.5912    0.2332 H   0  0  0  0  0  0
    5.5701  -15.4624    3.2272 H   0  0  0  0  0  0
   -1.9315   -5.1056   -2.9926 H   0  0  0  0  0  0
    2.2348   -7.3026   -2.1972 H   0  0  0  0  0  0
    5.6516   -1.4675    2.7021 H   0  0  0  0  0  0
    1.7873   -3.4265   -2.2617 H   0  0  0  0  0  0
  1  2  1  0  0  0
  2  3  1  0  0  0
  3  4  1  0  0  0
  4  5  1  0  0  0
  5  6  1  0  0  0
  5  7  1  0  0  0
  7  8  1  0  0  0
  7 39  1  0  0  0
  8  9  1  0  0  0
  8 27  1  0  0  0
  9 10  1  0  0  0
 10 11  1  0  0  0
 10 12  1  0  0  0
 12 13  1  0  0  0
 13 14  1  0  0  0
 13 26  1  0  0  0
 14 15  1  0  0  0
 15 16  1  0  0  0
 16 17  1  0  0  0
 17 18  1  0  0  0
 18 19  1  0  0  0
 18 25  1  0  0  0
 19 20  1  0  0  0
 20 21  1  0  0  0
 20 24  1  0  0  0
 21 22  1  0  0  0
 21 23  1  0  0  0
 23 51  1  0  0  0
 23 52  1  0  0  0
 24 53  1  0  0  0
 25 54  1  0  0  0
 26 55  1  0  0  0
 27 28  1  0  0  0
 28 29  2  0  0  0
 28 30  1  0  0  0
 30 31  1  0  0  0
 31 32  1  0  0  0
 31 36  1  0  0  0
 32 33  1  0  0  0
 33 34  2  0  0  0
 33 35  1  0  0  0
 35 56  1  0  0  0
 36 37  2  0  0  0
 36 38  1  0  0  0
 38 57  1  0  0  0
 39 40  1  0  0  0
 40 41  2  0  0  0
 40 42  1  0  0  0
 42 43  1  0  0  0
 43 44  1  0  0  0
 43 48  1  0  0  0
 44 45  1  0  0  0
 45 46  2  0  0  0
 45 47  1  0  0  0
 47 58  1  0  0  0
 48 49  2  0  0  0
 48 50  1  0  0  0
 50 59  1  0  0  0
M  END
>  <AUTHOR>
    GENERATED BY OPEN BABEL 2.4.1

>  <CHROM.1>
-179.18558967,-171.29500820,158.40158256,-54.28855858,-49.05255406,75.17186770
169.44203003,89.69347442,39.99765991,-71.32050631,31.22489420,94.89465991
63.80551590,73.45702328,-179.83469926,-66.88379304,-94.45102842,-145.85574922
-65.97646983,-163.15054420,64.57613192,168.10266273,-178.33404838,71.06636816
177.82425987,-172.98866548,-131.22459495,117.09282490,32.24071988,-21.86869433
23.23232383,123.13467188,-75.06836777,163.37588895,55.89066445,-107.79655878
4.30000633,-164.39997005,179.21225955,4.76046217,-8.81325642,0.28037293,-2.59303684
0.16414759,-3.13526079

>  <COMPND>
    UNNAMED

>  <MASTER>
        0    0    0    0    0    0    0    0  109    0  109    0

>  <Name>
FB1.pdb

>  <RI>
0

>  <Rbt.Current_Directory>
/home/fc/tossine/FB1_39/p3/1_clust05

>  <Rbt.Executable>
rbdock/0.1.0

>  <Rbt.Library>
librxdock.so/0.1.0

>  <Rbt.Parameter_File>
/cluster/rxdock/data/scripts/dock.prm

>  <Rbt.Receptor>
rx_3.prm

>  <SCORE>
51.8261

>  <SCORE.INTER>
29.4115

>  <SCORE.INTER.CONST>
1

>  <SCORE.INTER.POLAR>
-2.02617

>  <SCORE.INTER.REPUL>
0.418196

>  <SCORE.INTER.ROT>
32

>  <SCORE.INTER.VDW>
-3.19049

>  <SCORE.INTER.norm>
0.58823

>  <SCORE.INTRA>
22.2846

>  <SCORE.INTRA.DIHEDRAL>
39.7076

>  <SCORE.INTRA.DIHEDRAL.0>
47.3121

>  <SCORE.INTRA.POLAR>
0.657688

>  <SCORE.INTRA.POLAR.0>
-1.47808

>  <SCORE.INTRA.REPUL>
0

>  <SCORE.INTRA.REPUL.0>
0

>  <SCORE.INTRA.VDW>
0.194685

>  <SCORE.INTRA.VDW.0>
-2.78316

>  <SCORE.INTRA.norm>
0.445693

>  <SCORE.RESTR>
0.129948

>  <SCORE.RESTR.CAVITY>
0.129948

>  <SCORE.RESTR.norm>
0.00259897

>  <SCORE.SYSTEM>
0

>  <SCORE.SYSTEM.CONST>
0

>  <SCORE.SYSTEM.DIHEDRAL>
0

>  <SCORE.SYSTEM.norm>
0

>  <SCORE.heavy>
50

>  <SCORE.norm>
1.03652

$$$$
