FB1.pdb
  RxDock  10072007313D
librxdock.so/0.1.0
 59 58  0  0  0  0  0  0  0  0999 V2000
   -1.4889   -4.8984    3.3059 C   0  0  0  0  0  0
   -0.7930   -6.2539    3.2075 C   0  0  0  0  0  0
   -0.4191   -6.8040    4.5938 C   0  0  0  0  0  0
    0.0337   -8.2852    4.5688 C   0  0  0  0  0  0
    1.3974   -8.5479    3.8396 C   0  0  0  0  0  0
    1.8014  -10.0206    4.0813 C   0  0  0  0  0  0
    1.3598   -8.2171    2.2881 C   0  0  0  0  0  0
    2.4111   -7.1341    1.7514 C   0  0  0  0  0  0
    2.6218   -6.7417    0.2250 C   0  0  0  0  0  0
    1.2468   -6.7124   -0.6860 C   0  0  0  0  0  0
    0.3304   -5.6157   -0.1459 C   0  0  0  0  0  0
    1.4478   -6.5163   -2.2563 C   0  0  0  0  0  0
    0.3687   -6.9711   -3.3732 C   0  0  0  0  0  0
    0.1098   -8.4755   -3.7278 C   0  0  0  0  0  0
   -0.3219   -8.8381   -5.2215 C   0  0  0  0  0  0
   -1.7885   -8.6792   -5.7861 C   0  0  0  0  0  0
   -2.0249   -8.7087   -7.3192 C   0  0  0  0  0  0
   -2.5714   -7.3816   -7.9745 C   0  0  0  0  0  0
   -3.5131   -6.5346   -7.1094 C   0  0  0  0  0  0
   -4.9086   -6.1623   -7.6858 C   0  0  0  0  0  0
   -5.0291   -5.2259   -8.9243 C   0  0  0  0  0  0
   -4.3500   -3.8678   -8.8156 C   0  0  0  0  0  0
   -4.6141   -5.9260  -10.1548 N   0  0  0  0  0  0
   -5.4787   -7.4256   -8.1134 O   0  0  0  0  0  0
   -1.4471   -6.5765   -8.3452 O   0  0  0  0  0  0
   -0.8923   -6.4767   -2.8916 O   0  0  0  0  0  0
    2.0701   -5.8798    2.4015 O   0  0  0  0  0  0
    2.9997   -4.8902    2.3590 C   0  0  0  0  0  0
    4.0069   -4.8781    1.6772 O   0  0  0  0  0  0
    2.5264   -3.7550    3.2243 C   0  0  0  0  0  0
    2.6180   -4.0780    4.7242 C   0  0  0  0  0  0
    1.2680   -4.4979    5.3195 C   0  0  0  0  0  0
    1.4133   -4.9034    6.7678 C   0  0  0  0  0  0
    2.4711   -4.8457    7.3855 O   0  0  0  0  0  0
    0.2691   -5.3337    7.3197 O   0  0  0  0  0  0
    3.6269   -5.2283    4.8471 C   0  0  0  0  0  0
    3.3213   -6.4019    4.7003 O   0  0  0  0  0  0
    4.8669   -4.8432    5.1789 O   0  0  0  0  0  0
    1.3784   -9.4578    1.4755 O   0  0  0  0  0  0
    2.5932  -10.0877    1.2621 C   0  0  0  0  0  0
    3.5849   -9.9445    1.9653 O   0  0  0  0  0  0
    2.5682  -11.0021    0.0302 C   0  0  0  0  0  0
    2.7661  -12.5239    0.3120 C   0  0  0  0  0  0
    2.0425  -13.1348    1.5260 C   0  0  0  0  0  0
    2.4424  -14.5573    1.7924 C   0  0  0  0  0  0
    3.5607  -14.9362    2.1121 O   0  0  0  0  0  0
    1.4163  -15.4119    1.6614 O   0  0  0  0  0  0
    2.4862  -13.4364   -0.8885 C   0  0  0  0  0  0
    2.8194  -14.6045   -0.9218 O   0  0  0  0  0  0
    1.7452  -12.8869   -1.8735 O   0  0  0  0  0  0
   -3.5969   -5.9834  -10.1795 H   0  0  0  0  0  0
   -4.8649   -5.3478  -10.9600 H   0  0  0  0  0  0
   -4.8578   -7.7582   -8.7954 H   0  0  0  0  0  0
   -1.7777   -5.7945   -8.8245 H   0  0  0  0  0  0
   -1.5918   -6.8216   -3.4714 H   0  0  0  0  0  0
    0.3235   -5.5611    8.2677 H   0  0  0  0  0  0
    5.5876   -5.3758    4.7596 H   0  0  0  0  0  0
    0.7274  -14.9468    1.1413 H   0  0  0  0  0  0
    1.5802  -13.4684   -2.6487 H   0  0  0  0  0  0
  1  2  1  0  0  0
  2  3  1  0  0  0
  3  4  1  0  0  0
  4  5  1  0  0  0
  5  6  1  0  0  0
  5  7  1  0  0  0
  7  8  1  0  0  0
  7 39  1  0  0  0
  8  9  1  0  0  0
  8 27  1  0  0  0
  9 10  1  0  0  0
 10 11  1  0  0  0
 10 12  1  0  0  0
 12 13  1  0  0  0
 13 14  1  0  0  0
 13 26  1  0  0  0
 14 15  1  0  0  0
 15 16  1  0  0  0
 16 17  1  0  0  0
 17 18  1  0  0  0
 18 19  1  0  0  0
 18 25  1  0  0  0
 19 20  1  0  0  0
 20 21  1  0  0  0
 20 24  1  0  0  0
 21 22  1  0  0  0
 21 23  1  0  0  0
 23 51  1  0  0  0
 23 52  1  0  0  0
 24 53  1  0  0  0
 25 54  1  0  0  0
 26 55  1  0  0  0
 27 28  1  0  0  0
 28 29  2  0  0  0
 28 30  1  0  0  0
 30 31  1  0  0  0
 31 32  1  0  0  0
 31 36  1  0  0  0
 32 33  1  0  0  0
 33 34  2  0  0  0
 33 35  1  0  0  0
 35 56  1  0  0  0
 36 37  2  0  0  0
 36 38  1  0  0  0
 38 57  1  0  0  0
 39 40  1  0  0  0
 40 41  2  0  0  0
 40 42  1  0  0  0
 42 43  1  0  0  0
 43 44  1  0  0  0
 43 48  1  0  0  0
 44 45  1  0  0  0
 45 46  2  0  0  0
 45 47  1  0  0  0
 47 58  1  0  0  0
 48 49  2  0  0  0
 48 50  1  0  0  0
 50 59  1  0  0  0
M  END
>  <AUTHOR>
    GENERATED BY OPEN BABEL 2.4.1

>  <CHROM.1>
168.73797389,67.66641979,171.87515045,121.92714898,174.90625031,-80.40543318
36.68357194,164.70812260,64.01216037,157.13528086,-71.93162030,-148.78708490
-172.91739435,-79.77916417,164.36645738,-115.43529188,-33.02960291,-125.29803208
174.81765817,-65.87735069,-55.26917219,-60.88755013,-76.33018583,11.04665848
72.42989801,-99.87628335,175.89974541,-84.27790631,2.73798225,-177.12607169
-144.77643887,21.47181488,-115.74427374,41.79302642,-172.87586785,166.20668626
63.93567909,18.29507888,178.98950876,0.67236406,-7.90422861,-0.15300954,0.47777152
-1.08704833,0.56592261

>  <COMPND>
    UNNAMED

>  <MASTER>
        0    0    0    0    0    0    0    0  109    0  109    0

>  <Name>
FB1.pdb

>  <RI>
0

>  <Rbt.Current_Directory>
/home/fc/tossine/FB1_39/p3/1_clust05

>  <Rbt.Executable>
rbdock/0.1.0

>  <Rbt.Library>
librxdock.so/0.1.0

>  <Rbt.Parameter_File>
/cluster/rxdock/data/scripts/dock.prm

>  <Rbt.Receptor>
rx_0.prm

>  <SCORE>
57.1621

>  <SCORE.INTER>
23.9709

>  <SCORE.INTER.CONST>
1

>  <SCORE.INTER.POLAR>
-1.43496

>  <SCORE.INTER.REPUL>
1.05735

>  <SCORE.INTER.ROT>
32

>  <SCORE.INTER.VDW>
-13.837

>  <SCORE.INTER.norm>
0.479418

>  <SCORE.INTRA>
20.5988

>  <SCORE.INTRA.DIHEDRAL>
23.4461

>  <SCORE.INTRA.DIHEDRAL.0>
47.3121

>  <SCORE.INTRA.POLAR>
1.44836

>  <SCORE.INTRA.POLAR.0>
-1.47808

>  <SCORE.INTRA.REPUL>
0

>  <SCORE.INTRA.REPUL.0>
0

>  <SCORE.INTRA.VDW>
3.95131

>  <SCORE.INTRA.VDW.0>
-2.78316

>  <SCORE.INTRA.norm>
0.411976

>  <SCORE.RESTR>
12.5924

>  <SCORE.RESTR.CAVITY>
12.5924

>  <SCORE.RESTR.norm>
0.251849

>  <SCORE.SYSTEM>
0

>  <SCORE.SYSTEM.CONST>
0

>  <SCORE.SYSTEM.DIHEDRAL>
0

>  <SCORE.SYSTEM.norm>
0

>  <SCORE.heavy>
50

>  <SCORE.norm>
1.14324

$$$$
