FB1.pdb
  RxDock  10072008413D
librxdock.so/0.1.0
 59 58  0  0  0  0  0  0  0  0999 V2000
    5.8889   -5.7248   -4.3885 C   0  0  0  0  0  0
    4.5458   -5.4913   -5.0762 C   0  0  0  0  0  0
    3.3704   -5.6454   -4.0971 C   0  0  0  0  0  0
    3.3739   -4.5957   -2.9578 C   0  0  0  0  0  0
    3.9696   -5.0986   -1.5967 C   0  0  0  0  0  0
    4.8757   -3.9852   -1.0224 C   0  0  0  0  0  0
    2.8646   -5.5309   -0.5431 C   0  0  0  0  0  0
    2.3553   -7.0484   -0.6069 C   0  0  0  0  0  0
    1.3262   -7.7116    0.4077 C   0  0  0  0  0  0
    1.2323   -9.3569    0.3332 C   0  0  0  0  0  0
    2.6508   -9.9217    0.2782 C   0  0  0  0  0  0
    0.4184  -10.0685    1.5062 C   0  0  0  0  0  0
   -0.0209  -11.6259    1.4909 C   0  0  0  0  0  0
    0.9851  -12.7857    1.8055 C   0  0  0  0  0  0
    1.9369  -12.6380    3.0789 C   0  0  0  0  0  0
    3.5140  -12.7021    3.0218 C   0  0  0  0  0  0
    4.2324  -14.0601    3.2388 C   0  0  0  0  0  0
    4.8836  -14.7253    1.9650 C   0  0  0  0  0  0
    3.9120  -15.3051    0.9296 C   0  0  0  0  0  0
    3.8148  -16.8513    0.7944 C   0  0  0  0  0  0
    2.4417  -17.5381    0.5332 C   0  0  0  0  0  0
    1.2606  -17.0207    1.3422 C   0  0  0  0  0  0
    2.1274  -17.5532   -0.9082 N   0  0  0  0  0  0
    4.6213  -17.1700   -0.3683 O   0  0  0  0  0  0
    5.7001  -13.7410    1.3214 O   0  0  0  0  0  0
   -1.0422  -11.7317    2.4970 O   0  0  0  0  0  0
    1.7332   -7.2138   -1.9100 O   0  0  0  0  0  0
    0.6305   -6.4632   -2.1668 C   0  0  0  0  0  0
    0.1930   -5.5660   -1.4717 O   0  0  0  0  0  0
    0.0899   -6.8568   -3.5137 C   0  0  0  0  0  0
   -0.4478   -8.2966   -3.5362 C   0  0  0  0  0  0
   -1.3463   -8.6082   -2.3325 C   0  0  0  0  0  0
   -1.5138  -10.0987   -2.1487 C   0  0  0  0  0  0
   -1.2371  -10.6894   -1.1104 O   0  0  0  0  0  0
   -1.9985  -10.7197   -3.2342 O   0  0  0  0  0  0
   -1.2501   -8.4269   -4.8383 C   0  0  0  0  0  0
   -2.4022   -8.0373   -4.9536 O   0  0  0  0  0  0
   -0.5983   -9.0505   -5.8294 O   0  0  0  0  0  0
    3.2518   -5.1335    0.8324 O   0  0  0  0  0  0
    2.3576   -5.3702    1.8632 C   0  0  0  0  0  0
    1.1525   -5.1648    1.8005 O   0  0  0  0  0  0
    3.0455   -5.9280    3.1162 C   0  0  0  0  0  0
    2.2552   -7.0289    3.8894 C   0  0  0  0  0  0
    2.7530   -8.4824    3.7884 C   0  0  0  0  0  0
    1.9196   -9.4445    4.5847 C   0  0  0  0  0  0
    1.0144  -10.1392    4.1435 O   0  0  0  0  0  0
    2.2827   -9.4915    5.8756 O   0  0  0  0  0  0
    2.0332   -6.7286    5.3769 C   0  0  0  0  0  0
    1.1559   -7.2545    6.0330 O   0  0  0  0  0  0
    2.9476   -5.9159    5.9467 O   0  0  0  0  0  0
    2.7673  -18.1885   -1.3830 H   0  0  0  0  0  0
    2.3350  -16.6307   -1.2974 H   0  0  0  0  0  0
    4.9834  -18.0616   -0.1804 H   0  0  0  0  0  0
    6.2146  -14.1832    0.6212 H   0  0  0  0  0  0
   -0.6511  -11.4792    3.3502 H   0  0  0  0  0  0
   -2.3595  -11.6132   -3.0766 H   0  0  0  0  0  0
    0.3741   -9.1538   -5.6794 H   0  0  0  0  0  0
    1.6908  -10.1407    6.3108 H   0  0  0  0  0  0
    2.8167   -5.7438    6.9055 H   0  0  0  0  0  0
  1  2  1  0  0  0
  2  3  1  0  0  0
  3  4  1  0  0  0
  4  5  1  0  0  0
  5  6  1  0  0  0
  5  7  1  0  0  0
  7  8  1  0  0  0
  7 39  1  0  0  0
  8  9  1  0  0  0
  8 27  1  0  0  0
  9 10  1  0  0  0
 10 11  1  0  0  0
 10 12  1  0  0  0
 12 13  1  0  0  0
 13 14  1  0  0  0
 13 26  1  0  0  0
 14 15  1  0  0  0
 15 16  1  0  0  0
 16 17  1  0  0  0
 17 18  1  0  0  0
 18 19  1  0  0  0
 18 25  1  0  0  0
 19 20  1  0  0  0
 20 21  1  0  0  0
 20 24  1  0  0  0
 21 22  1  0  0  0
 21 23  1  0  0  0
 23 51  1  0  0  0
 23 52  1  0  0  0
 24 53  1  0  0  0
 25 54  1  0  0  0
 26 55  1  0  0  0
 27 28  1  0  0  0
 28 29  2  0  0  0
 28 30  1  0  0  0
 30 31  1  0  0  0
 31 32  1  0  0  0
 31 36  1  0  0  0
 32 33  1  0  0  0
 33 34  2  0  0  0
 33 35  1  0  0  0
 35 56  1  0  0  0
 36 37  2  0  0  0
 36 38  1  0  0  0
 38 57  1  0  0  0
 39 40  1  0  0  0
 40 41  2  0  0  0
 40 42  1  0  0  0
 42 43  1  0  0  0
 43 44  1  0  0  0
 43 48  1  0  0  0
 44 45  1  0  0  0
 45 46  2  0  0  0
 45 47  1  0  0  0
 47 58  1  0  0  0
 48 49  2  0  0  0
 48 50  1  0  0  0
 50 59  1  0  0  0
M  END
>  <AUTHOR>
    GENERATED BY OPEN BABEL 2.4.1

>  <CHROM.1>
63.71901679,-98.73462032,137.04359822,87.73365796,175.97797668,176.36333556
-166.65401340,-63.26349205,45.27711387,168.61848683,77.56910914,46.38158973
-60.89003389,-123.04308230,-92.33975375,107.81593527,-71.46128894,-108.73859980
171.01389375,142.00271299,-43.24568529,148.77461425,68.93539049,8.25441389
66.27118343,46.54353277,-162.74630339,-81.61517320,123.65228498,-162.97767805
-13.93892072,-42.86223969,-141.42144208,106.85504829,179.44610053,158.97786480
97.11208485,-179.86743376,-178.46400039,1.85961435,-9.47887883,0.27359654
1.93850286,-1.32271720,-0.02208666

>  <COMPND>
    UNNAMED

>  <MASTER>
        0    0    0    0    0    0    0    0  109    0  109    0

>  <Name>
FB1.pdb

>  <RI>
0

>  <Rbt.Current_Directory>
/home/fc/tossine/FB1_39/p3/1_clust05

>  <Rbt.Executable>
rbdock/0.1.0

>  <Rbt.Library>
librxdock.so/0.1.0

>  <Rbt.Parameter_File>
/cluster/rxdock/data/scripts/dock.prm

>  <Rbt.Receptor>
rx_2.prm

>  <SCORE>
45.8671

>  <SCORE.INTER>
23.7128

>  <SCORE.INTER.CONST>
1

>  <SCORE.INTER.POLAR>
-1.56376

>  <SCORE.INTER.REPUL>
2.04966

>  <SCORE.INTER.ROT>
32

>  <SCORE.INTER.VDW>
-18.6186

>  <SCORE.INTER.norm>
0.474257

>  <SCORE.INTRA>
17.5959

>  <SCORE.INTRA.DIHEDRAL>
34.0341

>  <SCORE.INTRA.DIHEDRAL.0>
47.3121

>  <SCORE.INTRA.POLAR>
0.991026

>  <SCORE.INTRA.POLAR.0>
-1.47808

>  <SCORE.INTRA.REPUL>
0

>  <SCORE.INTRA.REPUL.0>
0

>  <SCORE.INTRA.VDW>
-2.79067

>  <SCORE.INTRA.VDW.0>
-2.78316

>  <SCORE.INTRA.norm>
0.351918

>  <SCORE.RESTR>
4.55837

>  <SCORE.RESTR.CAVITY>
4.55837

>  <SCORE.RESTR.norm>
0.0911673

>  <SCORE.SYSTEM>
0

>  <SCORE.SYSTEM.CONST>
0

>  <SCORE.SYSTEM.DIHEDRAL>
0

>  <SCORE.SYSTEM.norm>
0

>  <SCORE.heavy>
50

>  <SCORE.norm>
0.917342

$$$$
