FB1.pdb
  RxDock  10072007273D
librxdock.so/0.1.0
 59 58  0  0  0  0  0  0  0  0999 V2000
    0.8904   -6.8132    7.1143 C   0  0  0  0  0  0
    1.4991   -7.3045    5.8031 C   0  0  0  0  0  0
    0.6145   -8.3648    5.1267 C   0  0  0  0  0  0
    1.3190   -9.7325    4.9453 C   0  0  0  0  0  0
    0.4808  -10.8113    4.1746 C   0  0  0  0  0  0
   -0.9035  -10.9268    4.8537 C   0  0  0  0  0  0
    0.3290  -10.5069    2.6247 C   0  0  0  0  0  0
    1.3270   -9.4224    1.9970 C   0  0  0  0  0  0
    2.7169   -8.9825    2.6318 C   0  0  0  0  0  0
    3.8526   -8.4776    1.5471 C   0  0  0  0  0  0
    4.3626   -9.6945    0.7768 C   0  0  0  0  0  0
    3.3901   -7.3490    0.5189 C   0  0  0  0  0  0
    4.3681   -6.6558   -0.5682 C   0  0  0  0  0  0
    4.0953   -6.7272   -2.1098 C   0  0  0  0  0  0
    2.8449   -5.9256   -2.6956 C   0  0  0  0  0  0
    2.8274   -4.3663   -2.9465 C   0  0  0  0  0  0
    2.8334   -3.3969   -1.7350 C   0  0  0  0  0  0
    1.8448   -3.7377   -0.5537 C   0  0  0  0  0  0
    1.9756   -2.8795    0.7107 C   0  0  0  0  0  0
    1.7491   -3.5600    2.0905 C   0  0  0  0  0  0
    0.5475   -4.5265    2.3085 C   0  0  0  0  0  0
    0.5404   -5.7981    1.4716 C   0  0  0  0  0  0
    0.3757   -4.8367    3.7405 N   0  0  0  0  0  0
    2.9300   -4.3768    2.2958 O   0  0  0  0  0  0
    0.5068   -3.6173   -1.0487 O   0  0  0  0  0  0
    4.3431   -5.2547   -0.2472 O   0  0  0  0  0  0
    1.6743   -9.9087    0.6721 O   0  0  0  0  0  0
    0.6821   -9.9341   -0.2553 C   0  0  0  0  0  0
   -0.5093  -10.0340   -0.0317 O   0  0  0  0  0  0
    1.2930   -9.7151   -1.6119 C   0  0  0  0  0  0
    0.3558  -10.1339   -2.7559 C   0  0  0  0  0  0
    0.1932   -9.0364   -3.8154 C   0  0  0  0  0  0
   -0.9417   -9.3552   -4.7607 C   0  0  0  0  0  0
   -1.9544   -9.9599   -4.4252 O   0  0  0  0  0  0
   -0.7378   -8.9106   -6.0096 O   0  0  0  0  0  0
    0.9901  -11.3818   -3.3854 C   0  0  0  0  0  0
    1.8042  -11.3296   -4.2948 O   0  0  0  0  0  0
    0.5398  -12.5419   -2.8880 O   0  0  0  0  0  0
    0.3036  -11.7608    1.8328 O   0  0  0  0  0  0
    1.2296  -12.7468    2.1300 C   0  0  0  0  0  0
    0.9616  -13.8159    2.6626 O   0  0  0  0  0  0
    2.6537  -12.3548    1.7146 C   0  0  0  0  0  0
    3.3946  -13.3721    0.7923 C   0  0  0  0  0  0
    3.8559  -14.7050    1.4095 C   0  0  0  0  0  0
    5.1410  -14.5826    2.1764 C   0  0  0  0  0  0
    5.3486  -15.0282    3.2967 O   0  0  0  0  0  0
    6.0893  -13.9293    1.4879 O   0  0  0  0  0  0
    2.6564  -13.7073   -0.5096 C   0  0  0  0  0  0
    2.0234  -14.7329   -0.6645 O   0  0  0  0  0  0
    2.6636  -12.7358   -1.4463 O   0  0  0  0  0  0
    1.2816   -4.7855    4.2044 H   0  0  0  0  0  0
    0.0882   -5.8137    3.8309 H   0  0  0  0  0  0
    3.0746   -4.8222    1.4344 H   0  0  0  0  0  0
   -0.1064   -3.7363   -0.3001 H   0  0  0  0  0  0
    5.0548   -4.8193   -0.7456 H   0  0  0  0  0  0
   -1.4890   -9.0295   -6.6220 H   0  0  0  0  0  0
   -0.1249  -12.4460   -2.1615 H   0  0  0  0  0  0
    6.9253  -14.0372    1.9887 H   0  0  0  0  0  0
    2.3069  -12.9967   -2.3243 H   0  0  0  0  0  0
  1  2  1  0  0  0
  2  3  1  0  0  0
  3  4  1  0  0  0
  4  5  1  0  0  0
  5  6  1  0  0  0
  5  7  1  0  0  0
  7  8  1  0  0  0
  7 39  1  0  0  0
  8  9  1  0  0  0
  8 27  1  0  0  0
  9 10  1  0  0  0
 10 11  1  0  0  0
 10 12  1  0  0  0
 12 13  1  0  0  0
 13 14  1  0  0  0
 13 26  1  0  0  0
 14 15  1  0  0  0
 15 16  1  0  0  0
 16 17  1  0  0  0
 17 18  1  0  0  0
 18 19  1  0  0  0
 18 25  1  0  0  0
 19 20  1  0  0  0
 20 21  1  0  0  0
 20 24  1  0  0  0
 21 22  1  0  0  0
 21 23  1  0  0  0
 23 51  1  0  0  0
 23 52  1  0  0  0
 24 53  1  0  0  0
 25 54  1  0  0  0
 26 55  1  0  0  0
 27 28  1  0  0  0
 28 29  2  0  0  0
 28 30  1  0  0  0
 30 31  1  0  0  0
 31 32  1  0  0  0
 31 36  1  0  0  0
 32 33  1  0  0  0
 33 34  2  0  0  0
 33 35  1  0  0  0
 35 56  1  0  0  0
 36 37  2  0  0  0
 36 38  1  0  0  0
 38 57  1  0  0  0
 39 40  1  0  0  0
 40 41  2  0  0  0
 40 42  1  0  0  0
 42 43  1  0  0  0
 43 44  1  0  0  0
 43 48  1  0  0  0
 44 45  1  0  0  0
 45 46  2  0  0  0
 45 47  1  0  0  0
 47 58  1  0  0  0
 48 49  2  0  0  0
 48 50  1  0  0  0
 50 59  1  0  0  0
M  END
>  <AUTHOR>
    GENERATED BY OPEN BABEL 2.4.1

>  <CHROM.1>
-119.41213769,-176.18530335,-52.41232304,15.73528386,20.89372609,-44.80375040
151.31484855,67.51541187,-72.06294612,176.38307682,120.20251665,69.02738333
168.16547652,77.80777173,-69.40251551,-45.48668285,172.76895430,-144.19386618
-174.22143449,-44.74237831,63.20552720,-44.65332594,-29.27153037,-26.52463680
162.88803384,129.02049293,-168.06465996,-89.00732562,32.71980172,-174.61223299
-1.62327203,109.29767334,-125.99837098,-71.25364422,-80.63780771,-101.51464871
132.52474677,-170.08989176,171.45068244,1.82438006,-9.19949520,0.46051822
-2.22792930,1.42112921,-2.57039839

>  <COMPND>
    UNNAMED

>  <MASTER>
        0    0    0    0    0    0    0    0  109    0  109    0

>  <Name>
FB1.pdb

>  <RI>
0

>  <Rbt.Current_Directory>
/home/fc/tossine/FB1_39/p3/1_clust05

>  <Rbt.Executable>
rbdock/0.1.0

>  <Rbt.Library>
librxdock.so/0.1.0

>  <Rbt.Parameter_File>
/cluster/rxdock/data/scripts/dock.prm

>  <Rbt.Receptor>
rx_0.prm

>  <SCORE>
45.359

>  <SCORE.INTER>
18.0029

>  <SCORE.INTER.CONST>
1

>  <SCORE.INTER.POLAR>
-1.66938

>  <SCORE.INTER.REPUL>
1.81176

>  <SCORE.INTER.ROT>
32

>  <SCORE.INTER.VDW>
-22.78

>  <SCORE.INTER.norm>
0.360059

>  <SCORE.INTRA>
21.7486

>  <SCORE.INTRA.DIHEDRAL>
37.4332

>  <SCORE.INTRA.DIHEDRAL.0>
47.3121

>  <SCORE.INTRA.POLAR>
0.150562

>  <SCORE.INTRA.POLAR.0>
-1.47808

>  <SCORE.INTRA.REPUL>
0.0905329

>  <SCORE.INTRA.REPUL.0>
0

>  <SCORE.INTRA.VDW>
2.0674

>  <SCORE.INTRA.VDW.0>
-2.78316

>  <SCORE.INTRA.norm>
0.434971

>  <SCORE.RESTR>
5.60749

>  <SCORE.RESTR.CAVITY>
5.60749

>  <SCORE.RESTR.norm>
0.11215

>  <SCORE.SYSTEM>
0

>  <SCORE.SYSTEM.CONST>
0

>  <SCORE.SYSTEM.DIHEDRAL>
0

>  <SCORE.SYSTEM.norm>
0

>  <SCORE.heavy>
50

>  <SCORE.norm>
0.90718

$$$$
