@<TRIPOS>MOLECULE
dna.pdb
 1946 2179 0 0 0
SMALL
GASTEIGER

@<TRIPOS>ATOM
      1  O5'        4.5040  -10.8610    9.8010 O.3     1  DA1        -0.2176
      2  C5'        4.8880  -10.0690   10.9040 C.3     1  DA1         0.2140
      3  C4'        6.2370   -9.4480   10.6180 C.3     1  DA1         0.1776
      4  O4'        7.2350  -10.5050   10.6180 O.3     1  DA1        -0.3326
      5  C3'        6.3430   -8.7850    9.2450 C.3     1  DA1         0.1559
      6  O3'        5.8930   -7.4200    9.2360 O.3     1  DA1        -0.3138
      7  C2'        7.8370   -8.8960    8.9730 C.3     1  DA1         0.0865
      8  C1'        8.1660  -10.2660    9.5760 C.3     1  DA1         0.2094
      9  N9         8.0920  -11.3420    8.5810 N.ar    1  DA1        -0.2714
     10  C8         7.2630  -12.4330    8.6180 C.ar    1  DA1         0.1815
     11  N7         7.4560  -13.2770    7.6320 N.ar    1  DA1        -0.2193
     12  C5         8.4800  -12.7010    6.8970 C.ar    1  DA1         0.1518
     13  C6         9.1470  -13.1040    5.7270 C.ar    1  DA1         0.1919
     14  N6         8.8670  -14.2300    5.0670 N.pl3   1  DA1        -0.1054
     15  N1        10.1220  -12.2990    5.2530 N.ar    1  DA1        -0.2040
     16  C2        10.4020  -11.1710    5.9160 C.ar    1  DA1         0.2016
     17  N3         9.8470  -10.6870    7.0240 N.ar    1  DA1        -0.2048
     18  C4         8.8810  -11.5090    7.4690 C.ar    1  DA1         0.1691
     19  P          5.0650   -6.8050    7.8520 P.3     2  DT2         0.2141
     20  OP1        4.5840   -5.4590    8.2250 O.3     2  DT2        -0.4373
     21  OP2        4.0600   -7.7690    7.3370 O.2     2  DT2        -0.5172
     22  O5'        6.2430   -6.6930    6.7590 O.3     2  DT2        -0.3114
     23  C5'        7.3980   -5.8550    6.9130 C.3     2  DT2         0.1811
     24  C4'        8.5450   -6.2640    5.9920 C.3     2  DT2         0.1746
     25  O4'        8.9440   -7.6530    6.1870 O.3     2  DT2        -0.3327
     26  C3'        8.2700   -6.2050    4.4990 C.3     2  DT2         0.1558
     27  O3'        8.3920   -4.8790    3.9690 O.3     2  DT2        -0.3138
     28  C2'        9.3840   -7.1120    3.9660 C.3     2  DT2         0.0866
     29  C1'        9.4230   -8.2400    4.9980 C.3     2  DT2         0.2106
     30  N1         8.5020   -9.3630    4.5240 N.ar    2  DT2        -0.2559
     31  C2         9.1000  -10.3680    3.7870 C.ar    2  DT2         0.3545
     32  O2        10.2560  -10.3140    3.4060 O.2     2  DT2        -0.2443
     33  N3         8.2930  -11.4440    3.5100 N.ar    2  DT2        -0.1533
     34  C4         6.9770  -11.6130    3.8870 C.ar    2  DT2         0.2804
     35  O4         6.3810  -12.6380    3.5630 O.2     2  DT2        -0.2654
     36  C5         6.4270  -10.5260    4.6480 C.ar    2  DT2         0.0534
     37  C6         7.1900   -9.4680    4.9320 C.ar    2  DT2         0.0824
     38  C7         5.0010  -10.6150    5.1050 C.3     2  DT2         0.0377
     39  P          7.3890   -4.3880    2.8100 P.3     3  DA3         0.2141
     40  OP1        7.6010   -2.9320    3.0450 O.3     3  DA3        -0.4373
     41  OP2        6.0600   -5.0620    2.9020 O.2     3  DA3        -0.5172
     42  O5'        8.1080   -4.8190    1.4720 O.3     3  DA3        -0.3114
     43  C5'        9.3960   -4.3820    1.3120 C.3     3  DA3         0.1811
     44  C4'       10.0820   -5.2990    0.3390 C.3     3  DA3         0.1746
     45  O4'        9.7830   -6.6240    0.8270 O.3     3  DA3        -0.3327
     46  C3'        9.5250   -5.4360   -1.0610 C.3     3  DA3         0.1558
     47  O3'        9.7760   -4.3220   -1.8970 O.3     3  DA3        -0.3138
     48  C2'       10.1900   -6.7550   -1.4930 C.3     3  DA3         0.0865
     49  C1'        9.9960   -7.5480   -0.2270 C.3     3  DA3         0.2094
     50  N9         8.9280   -8.3900   -0.2960 N.ar    3  DA3        -0.2714
     51  C8         7.8310   -8.2280    0.5090 C.ar    3  DA3         0.1815
     52  N7         6.9400   -9.1840    0.3880 N.ar    3  DA3        -0.2193
     53  C5         7.4890  -10.0300   -0.5620 C.ar    3  DA3         0.1518
     54  C6         7.0340  -11.2310   -1.1340 C.ar    3  DA3         0.1919
     55  N6         5.8750  -11.8100   -0.8140 N.pl3   3  DA3        -0.1054
     56  N1         7.8230  -11.8240   -2.0560 N.ar    3  DA3        -0.2040
     57  C2         8.9850  -11.2440   -2.3750 C.ar    3  DA3         0.2016
     58  N3         9.5200  -10.1180   -1.9070 N.ar    3  DA3        -0.2048
     59  C4         8.7120   -9.5530   -0.9940 C.ar    3  DA3         0.1691
     60  P          8.5480   -3.7920   -2.6370 P.3     4  DC4         0.2141
     61  OP1        9.2690   -2.7070   -3.3610 O.2     4  DC4        -0.5172
     62  OP2        7.0620   -3.7850   -2.5670 O.3     4  DC4        -0.4373
     63  O5'        9.0100   -5.1820   -3.2480 O.3     4  DC4        -0.3114
     64  C5'       10.3570   -5.3780   -3.7050 C.3     4  DC4         0.1811
     65  C4'       10.3910   -6.4890   -4.7130 C.3     4  DC4         0.1746
     66  O4'       10.2220   -7.7720   -4.0520 O.3     4  DC4        -0.3327
     67  C3'        9.2460   -6.4430   -5.7050 C.3     4  DC4         0.1558
     68  O3'        9.4900   -5.5440   -6.7610 O.3     4  DC4        -0.3138
     69  C2'        9.1610   -7.8860   -6.1630 C.3     4  DC4         0.0866
     70  C1'        9.4260   -8.6220   -4.8580 C.3     4  DC4         0.2106
     71  N1         8.2530   -8.9350   -4.0640 N.ar    4  DC4        -0.2556
     72  C2         7.5390  -10.0320   -4.5600 C.ar    4  DC4         0.3531
     73  O2         8.0930  -10.7880   -5.3760 O.2     4  DC4        -0.2443
     74  N3         6.2680  -10.2350   -4.1380 N.ar    4  DC4        -0.1739
     75  C4         5.7130   -9.3970   -3.2630 C.ar    4  DC4         0.1759
     76  N4         4.4580   -9.6380   -2.8760 N.pl3   4  DC4        -0.1070
     77  C5         6.4200   -8.2800   -2.7490 C.ar    4  DC4         0.0566
     78  C6         7.6750   -8.0820   -3.1670 C.ar    4  DC4         0.0849
     79  P          8.0710   -4.7870   -7.6410 P.3     5  DC5         0.2141
     80  OP1        8.6080   -3.5330   -8.2270 O.2     5  DC5        -0.5172
     81  OP2        7.0510   -4.7170   -6.5490 O.3     5  DC5        -0.4373
     82  O5'        7.4380   -5.6750   -8.8080 O.3     5  DC5        -0.3114
     83  C5'        8.2660   -6.3130   -9.7850 C.3     5  DC5         0.1811
     84  C4'        7.5870   -7.5460  -10.3430 C.3     5  DC5         0.1746
     85  O4'        7.4660   -8.5570   -9.3080 O.3     5  DC5        -0.3327
     86  C3'        6.1790   -7.3750  -10.9020 C.3     5  DC5         0.1558
     87  O3'        6.2540   -6.8980  -12.2490 O.3     5  DC5        -0.3138
     88  C2'        5.5960   -8.7830  -10.7820 C.3     5  DC5         0.0866
     89  C1'        6.2790   -9.3080   -9.5100 C.3     5  DC5         0.2106
     90  N1         5.3330   -9.3590   -8.4930 N.ar    5  DC5        -0.2556
     91  C2         4.3590  -10.3620   -8.4260 C.ar    5  DC5         0.3531
     92  O2         4.3590  -11.2540   -9.2910 O.2     5  DC5        -0.2443
     93  N3         3.4470  -10.3300   -7.4250 N.ar    5  DC5        -0.1739
     94  C4         3.4850   -9.3520   -6.5190 C.ar    5  DC5         0.1759
     95  N4         2.5660   -9.3620   -5.5500 N.pl3   5  DC5        -0.1070
     96  C5         4.4640   -8.3270   -6.5690 C.ar    5  DC5         0.0566
     97  C6         5.3620   -8.3620   -7.5600 C.ar    5  DC5         0.0849
     98  P          4.9370   -7.0820  -13.2990 P.3     6  DA6         0.2141
     99  OP1        4.8060   -5.6220  -13.5560 O.2     6  DA6        -0.5172
    100  OP2        4.2340   -7.6940  -12.1400 O.3     6  DA6        -0.4373
    101  O5'        4.5770   -7.9040  -14.6030 O.3     6  DA6        -0.3114
    102  C5'        5.5550   -8.0670  -15.6100 C.3     6  DA6         0.1811
    103  C4'        5.6070   -9.4950  -16.0470 C.3     6  DA6         0.1746
    104  O4'        6.2570  -10.3130  -15.0510 O.3     6  DA6        -0.3327
    105  C3'        4.2520  -10.1460  -16.1420 C.3     6  DA6         0.1558
    106  O3'        3.5930   -9.7620  -17.3160 O.3     6  DA6        -0.3138
    107  C2'        4.6080  -11.6160  -16.1530 C.3     6  DA6         0.0865
    108  C1'        5.7600  -11.6370  -15.1470 C.3     6  DA6         0.2094
    109  N9         5.2410  -12.1230  -13.8530 N.ar    6  DA6        -0.2714
    110  C8         5.2230  -11.3820  -12.6990 C.ar    6  DA6         0.1815
    111  N7         4.7940  -12.0460  -11.6520 N.ar    6  DA6        -0.2193
    112  C5         4.5100  -13.3070  -12.1510 C.ar    6  DA6         0.1518
    113  C6         4.0190  -14.4760  -11.5440 C.ar    6  DA6         0.1919
    114  N6         3.7160  -14.5650  -10.2470 N.pl3   6  DA6        -0.1054
    115  N1         3.8480  -15.5640  -12.3260 N.ar    6  DA6        -0.2040
    116  C2         4.1530  -15.4740  -13.6260 C.ar    6  DA6         0.2016
    117  N3         4.6220  -14.4330  -14.3100 N.ar    6  DA6        -0.2048
    118  C4         4.7790  -13.3690  -13.5050 C.ar    6  DA6         0.1691
    119  P          2.1540   -9.1730  -17.2300 P.3     7  DG7         0.2141
    120  OP1        1.8510   -8.4430  -18.5100 O.2     7  DG7        -0.5172
    121  OP2        2.1210   -8.3450  -15.9670 O.3     7  DG7        -0.4373
    122  O5'        1.2020  -10.4530  -16.9340 O.3     7  DG7        -0.3114
    123  C5'        1.5540  -11.5180  -17.8840 C.3     7  DG7         0.1811
    124  C4'        1.3450  -12.8150  -17.1280 C.3     7  DG7         0.1746
    125  O4'        2.1760  -12.8830  -15.9860 O.3     7  DG7        -0.3327
    126  C3'       -0.0630  -12.9880  -16.5770 C.3     7  DG7         0.1558
    127  O3'       -0.9990  -13.3120  -17.5910 O.3     7  DG7        -0.3138
    128  C2'        0.1650  -14.0730  -15.5420 C.3     7  DG7         0.0865
    129  C1'        1.5300  -13.6670  -14.9940 C.3     7  DG7         0.2094
    130  N9         1.2910  -12.9650  -13.8030 N.ar    7  DG7        -0.2713
    131  C8         1.7230  -11.6650  -13.7000 C.ar    7  DG7         0.1816
    132  N7         1.5660  -11.1630  -12.5050 N.ar    7  DG7        -0.2173
    133  C5         0.9980  -12.1900  -11.7740 C.ar    7  DG7         0.1748
    134  C6         0.5960  -12.2430  -10.4150 C.ar    7  DG7         0.3023
    135  O6         0.6690  -11.3520   -9.5590 O.2     7  DG7        -0.2633
    136  N1         0.0620  -13.4830  -10.0770 N.ar    7  DG7        -0.1709
    137  C2        -0.0680  -14.5430  -10.9430 C.ar    7  DG7         0.2606
    138  N2        -0.6060  -15.6600  -10.4330 N.pl3   7  DG7        -0.0859
    139  N3         0.3000  -14.5090  -12.2080 N.ar    7  DG7        -0.1918
    140  C4         0.8200  -13.3130  -12.5590 C.ar    7  DG7         0.1722
    141  P         -2.6410  -12.9490  -17.4260 P.3     8  DC8         0.2141
    142  OP1       -2.6410  -12.3680  -18.7850 O.2     8  DC8        -0.5172
    143  OP2       -3.1750  -12.1660  -16.2900 O.3     8  DC8        -0.4373
    144  O5'       -3.5250  -14.2860  -17.4160 O.3     8  DC8        -0.3115
    145  C5'       -3.2280  -15.4560  -16.6600 C.3     8  DC8         0.1785
    146  C4'       -4.2070  -15.7010  -15.5300 C.3     8  DC8         0.1473
    147  O4'       -3.5220  -15.6250  -14.2500 O.3     8  DC8        -0.3353
    148  C3'       -5.3710  -14.7250  -15.4060 C.3     8  DC8         0.0368
    149  O3'       -6.4790  -15.0780  -16.2120 O.3     8  DC8        -0.1145
    150  C2'       -5.7260  -14.7740  -13.9300 C.3     8  DC8         0.0566
    151  C1'       -4.3780  -15.0770  -13.2670 C.3     8  DC8         0.2081
    152  N1        -3.7360  -13.9810  -12.6270 N.ar    8  DC8        -0.2557
    153  C2        -3.8600  -13.7290  -11.2550 C.ar    8  DC8         0.3531
    154  O2        -4.3300  -14.6170  -10.5250 O.2     8  DC8        -0.2443
    155  N3        -3.4650  -12.5290  -10.7670 N.ar    8  DC8        -0.1739
    156  C4        -2.9670  -11.6050  -11.5890 C.ar    8  DC8         0.1759
    157  N4        -2.5920  -10.4370  -11.0630 N.pl3   8  DC8        -0.1070
    158  C5        -2.8330  -11.8410  -12.9820 C.ar    8  DC8         0.0566
    159  C6        -3.2240  -13.0270  -13.4600 C.ar    8  DC8         0.0849
    160  P         -7.4230  -14.1480  -16.3560 P.3     9  DT9         0.5327
    161  OP1       -7.0010  -15.1870  -17.3940 O.3     9  DT9        -0.1145
    162  OP2       -8.0270  -12.8790  -16.8190 O.2     9  DT9        -0.2224
    163  O5'       -8.5240  -14.5690  -15.2970 O.3     9  DT9        -0.2675
    164  C5'       -8.6260  -15.8160  -14.7350 C.3     9  DT9         0.1857
    165  C4'       -8.7720  -15.7190  -13.2200 C.3     9  DT9         0.1748
    166  O4'       -7.5210  -15.2090  -12.6630 O.3     9  DT9        -0.3327
    167  C3'       -9.8120  -14.9630  -12.3520 C.3     9  DT9         0.1558
    168  O3'      -11.1160  -15.5260  -12.2680 O.3     9  DT9        -0.3138
    169  C2'       -9.1860  -15.2770  -10.9980 C.3     9  DT9         0.0866
    170  C1'       -7.6930  -15.0730  -11.2880 C.3     9  DT9         0.2106
    171  N1        -7.3210  -13.7130  -10.9320 N.ar    9  DT9        -0.2559
    172  C2        -6.9960  -13.2430   -9.6740 C.ar    9  DT9         0.3545
    173  O2        -7.2680  -13.8440   -8.6500 O.2     9  DT9        -0.2443
    174  N3        -6.3380  -12.0370   -9.6550 N.ar    9  DT9        -0.1533
    175  C4        -5.9800  -11.2700  -10.7450 C.ar    9  DT9         0.2804
    176  O4        -5.3900  -10.2070  -10.5690 O.2     9  DT9        -0.2654
    177  C5        -6.3530  -11.8250  -12.0160 C.ar    9  DT9         0.0534
    178  C6        -6.9940  -12.9960  -12.0620 C.ar    9  DT9         0.0824
    179  C7        -6.0080  -11.0650  -13.2620 C.3     9  DT9         0.0377
    180  P        -12.2560  -14.6370  -11.5720 P.3    10  DT10        0.2141
    181  OP1      -13.7400  -14.5130  -11.6560 O.2    10  DT10       -0.5172
    182  OP2      -11.4290  -13.4190  -11.6550 O.3    10  DT10       -0.4373
    183  O5'      -11.9630  -15.3940  -10.2020 O.3    10  DT10       -0.3114
    184  C5'      -10.8740  -15.0130   -9.3810 C.3    10  DT10        0.1811
    185  C4'      -11.2760  -15.0140   -7.9290 C.3    10  DT10        0.1746
    186  O4'      -10.0870  -14.6740   -7.1650 O.3    10  DT10       -0.3327
    187  C3'      -12.3470  -14.0050   -7.5020 C.3    10  DT10        0.1558
    188  O3'      -13.6680  -14.5710   -7.5700 O.3    10  DT10       -0.3138
    189  C2'      -11.9170  -13.6680   -6.0790 C.3    10  DT10        0.0866
    190  C1'      -10.3930  -13.6640   -6.2290 C.3    10  DT10        0.2106
    191  N1        -9.8320  -12.4890   -6.7300 N.ar   10  DT10       -0.2559
    192  C2        -9.1750  -11.6230   -5.8760 C.ar   10  DT10        0.3545
    193  O2        -8.9560  -11.8830   -4.7060 O.2    10  DT10       -0.2443
    194  N3        -8.7820  -10.4340   -6.4420 N.ar   10  DT10       -0.1533
    195  C4        -8.9760  -10.0330   -7.7480 C.ar   10  DT10        0.2804
    196  O4        -8.5650   -8.9340   -8.1100 O.2    10  DT10       -0.2654
    197  C5        -9.6660  -10.9860   -8.5710 C.ar   10  DT10        0.0534
    198  C6       -10.0590  -12.1500   -8.0460 C.ar   10  DT10        0.0824
    199  C7        -9.9260  -10.6420  -10.0080 C.3    10  DT10        0.0377
    200  P        -15.0050  -13.6050   -7.5550 P.3    11  DA11        0.2141
    201  OP1      -16.3130  -14.2920   -7.5090 O.3    11  DA11       -0.4373
    202  OP2      -14.6390  -12.7910   -8.7330 O.2    11  DA11       -0.5172
    203  O5'      -14.9100  -12.7080   -6.2390 O.3    11  DA11       -0.3114
    204  C5'      -15.2340  -13.3250   -5.0020 C.3    11  DA11        0.1811
    205  C4'      -14.8910  -12.3980   -3.8480 C.3    11  DA11        0.1746
    206  O4'      -13.4460  -12.2680   -3.7650 O.3    11  DA11       -0.3327
    207  C3'      -15.4220  -10.9730   -3.9490 C.3    11  DA11        0.1558
    208  O3'      -16.7640  -10.8970   -3.4670 O.3    11  DA11       -0.3138
    209  C2'      -14.4660  -10.3490   -2.9500 C.3    11  DA11        0.0865
    210  C1'      -13.1200  -10.9820   -3.2990 C.3    11  DA11        0.2094
    211  N9       -12.3740  -10.2670   -4.3470 N.ar   11  DA11       -0.2714
    212  C8       -12.3900  -10.5650   -5.6850 C.ar   11  DA11        0.1815
    213  N7       -11.6010   -9.8040   -6.4060 N.ar   11  DA11       -0.2193
    214  C5       -11.0290   -8.9470   -5.4790 C.ar   11  DA11        0.1518
    215  C6       -10.1000   -7.9000   -5.6070 C.ar   11  DA11        0.1919
    216  N6        -9.5620   -7.5260   -6.7700 N.pl3  11  DA11       -0.1054
    217  N1        -9.7380   -7.2430   -4.4840 N.ar   11  DA11       -0.2040
    218  C2       -10.2760   -7.6200   -3.3180 C.ar   11  DA11        0.2016
    219  N3       -11.1570   -8.5870   -3.0720 N.ar   11  DA11       -0.2048
    220  C4       -11.4970   -9.2190   -4.2070 C.ar   11  DA11        0.1691
    221  P        -17.9860   -9.8370   -4.1320 P.3    12  DT12        0.2141
    222  OP1      -19.3480  -10.2850   -3.7680 O.3    12  DT12       -0.4373
    223  OP2      -17.6800   -9.4030   -5.5120 O.2    12  DT12       -0.5172
    224  O5'      -17.5800   -8.5840   -3.2310 O.3    12  DT12       -0.3114
    225  C5'      -17.3480   -8.8250   -1.8540 C.3    12  DT12        0.1811
    226  C4'      -16.2920   -7.9080   -1.2970 C.3    12  DT12        0.1746
    227  O4'      -15.0320   -8.1160   -1.9900 O.3    12  DT12       -0.3327
    228  C3'      -16.5370   -6.4230   -1.4900 C.3    12  DT12        0.1558
    229  O3'      -17.5220   -5.8870   -0.6270 O.3    12  DT12       -0.3138
    230  C2'      -15.1420   -5.8580   -1.2810 C.3    12  DT12        0.0866
    231  C1'      -14.3180   -6.8980   -2.0380 C.3    12  DT12        0.2106
    232  N1       -14.1820   -6.4580   -3.4020 N.ar   12  DT12       -0.2559
    233  C2       -13.2960   -5.4330   -3.6710 C.ar   12  DT12        0.3545
    234  O2       -12.6600   -4.8590   -2.8050 O.2    12  DT12       -0.2443
    235  N3       -13.1790   -5.0990   -4.9990 N.ar   12  DT12       -0.1533
    236  C4       -13.8460   -5.6750   -6.0600 C.ar   12  DT12        0.2804
    237  O4       -13.6350   -5.2680   -7.2000 O.2    12  DT12       -0.2654
    238  C5       -14.7490   -6.7310   -5.6990 C.ar   12  DT12        0.0534
    239  C6       -14.8810   -7.0760   -4.4150 C.ar   12  DT12        0.0824
    240  C7       -15.5220   -7.4200   -6.7840 C.3    12  DT12        0.0377
    241  P        -18.4970   -4.8650   -1.2420 P.3    13  DT13        0.2141
    242  OP1      -19.7010   -4.7660   -0.3840 O.3    13  DT13       -0.4373
    243  OP2      -18.6470   -5.1730   -2.6850 O.2    13  DT13       -0.5172
    244  O5'      -17.6530   -3.5200   -1.0750 O.3    13  DT13       -0.3114
    245  C5'      -16.8820   -3.3350    0.1020 C.3    13  DT13        0.1811
    246  C4'      -16.1650   -2.0030    0.1100 C.3    13  DT13        0.1746
    247  O4'      -15.0730   -2.0150   -0.8550 O.3    13  DT13       -0.3327
    248  C3'      -17.0780   -0.8570   -0.3050 C.3    13  DT13        0.1558
    249  O3'      -17.2670    0.1630    0.6770 O.3    13  DT13       -0.3138
    250  C2'      -16.7460   -0.5400   -1.7650 C.3    13  DT13        0.0866
    251  C1'      -15.3250   -1.0880   -1.8890 C.3    13  DT13        0.2106
    252  N1       -15.0400   -1.6970   -3.0800 N.ar   13  DT13       -0.2559
    253  C2       -14.2930   -1.0040   -4.0140 C.ar   13  DT13        0.3545
    254  O2       -13.4410   -0.1880   -3.7100 O.2    13  DT13       -0.2443
    255  N3       -14.5810   -1.3010   -5.3240 N.ar   13  DT13       -0.1533
    256  C4       -15.5200   -2.2000   -5.7840 C.ar   13  DT13        0.2804
    257  O4       -15.6640   -2.3590   -6.9940 O.2    13  DT13       -0.2654
    258  C5       -16.2550   -2.8780   -4.7540 C.ar   13  DT13        0.0534
    259  C6       -15.9950   -2.6090   -3.4710 C.ar   13  DT13        0.0824
    260  C7       -17.3010   -3.8760   -5.1540 C.3    13  DT13        0.0377
    261  P        -18.2180    1.6200    0.3290 P.3    14  DC14        0.2141
    262  OP1      -19.1210    1.9180    1.4870 O.3    14  DC14       -0.4373
    263  OP2      -18.8020    1.0910   -0.9440 O.2    14  DC14       -0.5172
    264  O5'      -17.4470    2.9590   -0.0500 O.3    14  DC14       -0.3114
    265  C5'      -16.4180    3.4540    0.7880 C.3    14  DC14        0.1811
    266  C4'      -15.4230    4.2400   -0.0120 C.3    14  DC14        0.1746
    267  O4'      -14.6700    3.3730   -0.9040 O.3    14  DC14       -0.3327
    268  C3'      -16.0060    5.2960   -0.9230 C.3    14  DC14        0.1558
    269  O3'      -16.3350    6.4810   -0.2220 O.3    14  DC14       -0.3138
    270  C2'      -14.8780    5.5120   -1.9230 C.3    14  DC14        0.0866
    271  C1'      -14.3160    4.0930   -2.0750 C.3    14  DC14        0.2106
    272  N1       -14.8730    3.3850   -3.2080 N.ar   14  DC14       -0.2556
    273  C2       -14.4380    3.6730   -4.5060 C.ar   14  DC14        0.3531
    274  O2       -13.5240    4.5010   -4.6610 O.2    14  DC14       -0.2443
    275  N3       -15.0250    3.0450   -5.5530 N.ar   14  DC14       -0.1739
    276  C4       -16.0030    2.1640   -5.3390 C.ar   14  DC14        0.1759
    277  N4       -16.5510    1.5690   -6.4020 N.pl3  14  DC14       -0.1070
    278  C5       -16.4580    1.8580   -4.0310 C.ar   14  DC14        0.0566
    279  C6       -15.8760    2.4810   -3.0000 C.ar   14  DC14        0.0849
    280  P        -17.5240    7.5320   -0.8440 P.3    15  DA15        0.2141
    281  OP1      -17.6510    8.7140    0.0370 O.3    15  DA15       -0.4373
    282  OP2      -18.6550    6.5990   -1.1140 O.2    15  DA15       -0.5172
    283  O5'      -17.0080    8.0450   -2.2550 O.3    15  DA15       -0.3114
    284  C5'      -15.9670    9.0250   -2.3160 C.3    15  DA15        0.1811
    285  C4'      -15.2790    9.0290   -3.6790 C.3    15  DA15        0.1746
    286  O4'      -14.9180    7.6870   -4.0760 O.3    15  DA15       -0.3327
    287  C3'      -16.1560    9.4760   -4.8380 C.3    15  DA15        0.1558
    288  O3'      -16.2330   10.8780   -4.8850 O.3    15  DA15       -0.3138
    289  C2'      -15.4430    8.8830   -6.0430 C.3    15  DA15        0.0865
    290  C1'      -15.0730    7.5090   -5.4790 C.3    15  DA15        0.2094
    291  N9       -16.1490    6.5580   -5.7240 N.ar   15  DA15       -0.2714
    292  C8       -16.8750    5.9310   -4.7450 C.ar   15  DA15        0.1815
    293  N7       -17.6920    5.0100   -5.2000 N.ar   15  DA15       -0.2193
    294  C5       -17.4890    5.0360   -6.5710 C.ar   15  DA15        0.1518
    295  C6       -18.0550    4.2960   -7.6240 C.ar   15  DA15        0.1919
    296  N6       -18.9790    3.3490   -7.4500 N.pl3  15  DA15       -0.1054
    297  N1       -17.6340    4.5690   -8.8780 N.ar   15  DA15       -0.2040
    298  C2       -16.7080    5.5180   -9.0520 C.ar   15  DA15        0.2016
    299  N3       -16.1020    6.2780   -8.1430 N.ar   15  DA15       -0.2048
    300  C4       -16.5430    5.9840   -6.9080 C.ar   15  DA15        0.1691
    301  P        -17.5450   11.4740   -5.2470 P.3    16  DA16        0.2141
    302  OP1      -17.1280   12.9260   -5.2890 O.2    16  DA16       -0.5172
    303  OP2      -18.9220   11.2870   -4.7130 O.3    16  DA16       -0.4373
    304  O5'      -17.2640   10.7850   -6.6630 O.3    16  DA16       -0.3114
    305  C5'      -16.5360   11.6360   -7.5990 C.3    16  DA16        0.1811
    306  C4'      -16.8360   11.1250   -8.9830 C.3    16  DA16        0.1746
    307  O4'      -16.6150    9.7230   -9.0170 O.3    16  DA16       -0.3327
    308  C3'      -18.2390   11.3070   -9.4990 C.3    16  DA16        0.1558
    309  O3'      -18.5860   12.6060   -9.9970 O.3    16  DA16       -0.3138
    310  C2'      -18.3070   10.2430  -10.5970 C.3    16  DA16        0.0865
    311  C1'      -17.4870    9.1150   -9.9860 C.3    16  DA16        0.2094
    312  N9       -18.5190    8.2720   -9.2090 N.ar   16  DA16       -0.2714
    313  C8       -18.7880    8.2740   -7.8650 C.ar   16  DA16        0.1815
    314  N7       -19.6110    7.3240   -7.4890 N.ar   16  DA16       -0.2193
    315  C5       -19.9030    6.6530   -8.6660 C.ar   16  DA16        0.1518
    316  C6       -20.7210    5.5440   -8.9440 C.ar   16  DA16        0.1919
    317  N6       -21.4200    4.8890   -8.0140 N.pl3  16  DA16       -0.1054
    318  N1       -20.7950    5.1260  -10.2260 N.ar   16  DA16       -0.2040
    319  C2       -20.0930    5.7830  -11.1570 C.ar   16  DA16        0.2016
    320  N3       -19.2910    6.8360  -11.0180 N.ar   16  DA16       -0.2048
    321  C4       -19.2400    7.2270   -9.7340 C.ar   16  DA16        0.1691
    322  P        -19.7160   13.1770   -9.3570 P.3    17  DT17        0.2141
    323  OP1      -19.5700   14.6030   -9.7560 O.2    17  DT17       -0.5172
    324  OP2      -20.3020   12.8570   -8.0310 O.3    17  DT17       -0.4373
    325  O5'      -20.5930   12.4030  -10.4530 O.3    17  DT17       -0.3114
    326  C5'      -20.7420   12.8920  -11.8120 C.3    17  DT17        0.1811
    327  C4'      -21.3560   11.8230  -12.7040 C.3    17  DT17        0.1746
    328  O4'      -20.8490   10.5350  -12.2700 O.3    17  DT17       -0.3327
    329  C3'      -22.8740   11.6520  -12.7140 C.3    17  DT17        0.1558
    330  O3'      -23.4890   12.5170  -13.6750 O.3    17  DT17       -0.3138
    331  C2'      -23.0250   10.1930  -13.1250 C.3    17  DT17        0.0866
    332  C1'      -21.8450    9.5450  -12.4140 C.3    17  DT17        0.2106
    333  N1       -22.1870    8.9390  -11.1620 N.ar   17  DT17       -0.2559
    334  C2       -22.8210    7.7110  -11.1780 C.ar   17  DT17        0.3545
    335  O2       -23.1350    7.1400  -12.2080 O.2    17  DT17       -0.2443
    336  N3       -23.0760    7.1720   -9.9410 N.ar   17  DT17       -0.1533
    337  C4       -22.7680    7.7250   -8.7150 C.ar   17  DT17        0.2804
    338  O4       -23.0600    7.1190   -7.6870 O.2    17  DT17       -0.2654
    339  C5       -22.1120    9.0010   -8.7820 C.ar   17  DT17        0.0534
    340  C6       -21.8520    9.5480   -9.9720 C.ar   17  DT17        0.0824
    341  C7       -21.7360    9.6850   -7.5010 C.3    17  DT17        0.0377
    342  P        -25.1350   12.7010  -13.6600 P.3    18  DT18        0.2141
    343  OP1      -25.6120   13.6800  -14.6680 O.2    18  DT18       -0.5172
    344  OP2      -25.5460   12.8510  -12.2380 O.3    18  DT18       -0.4373
    345  O5'      -25.5590   11.2350  -14.1300 O.3    18  DT18       -0.3114
    346  C5'      -25.4620   10.8340  -15.5040 C.3    18  DT18        0.1811
    347  C4'      -26.1270    9.4880  -15.7110 C.3    18  DT18        0.1746
    348  O4'      -25.4330    8.4590  -14.9500 O.3    18  DT18       -0.3327
    349  C3'      -27.5720    9.3600  -15.2550 C.3    18  DT18        0.1558
    350  O3'      -28.4870    9.8960  -16.2040 O.3    18  DT18       -0.3138
    351  C2'      -27.7150    7.8510  -15.1270 C.3    18  DT18        0.0866
    352  C1'      -26.3620    7.4740  -14.5200 C.3    18  DT18        0.2106
    353  N1       -26.4220    7.4410  -12.9980 N.ar   18  DT18       -0.2559
    354  C2       -26.9050    6.3070  -12.3730 C.ar   18  DT18        0.3545
    355  O2       -27.3470    5.3490  -12.9830 O.2    18  DT18       -0.2443
    356  N3       -26.8530    6.3330  -11.0000 N.ar   18  DT18       -0.1533
    357  C4       -26.3780    7.3570  -10.2070 C.ar   18  DT18        0.2804
    358  O4       -26.3960    7.2340   -8.9850 O.2    18  DT18       -0.2654
    359  C5       -25.8950    8.5000  -10.9300 C.ar   18  DT18        0.0534
    360  C6       -25.9330    8.5010  -12.2650 C.ar   18  DT18        0.0824
    361  C7       -25.3580    9.6670  -10.1560 C.3    18  DT18        0.0377
    362  P        -29.7670   10.6330  -15.7010 P.3    19  DA19        0.2141
    363  OP1      -30.3390   11.3220  -16.8780 O.2    19  DA19       -0.5172
    364  OP2      -29.2700   11.4200  -14.5530 O.3    19  DA19       -0.4373
    365  O5'      -30.8430    9.5850  -15.1490 O.3    19  DA19       -0.3114
    366  C5'      -31.6030    8.8030  -16.0670 C.3    19  DA19        0.1811
    367  C4'      -32.2900    7.6550  -15.3550 C.3    19  DA19        0.1746
    368  O4'      -31.3030    6.8700  -14.6410 O.3    19  DA19       -0.3327
    369  C3'      -33.2700    8.0420  -14.2630 C.3    19  DA19        0.1558
    370  O3'      -34.5130    8.4250  -14.8050 O.3    19  DA19       -0.3138
    371  C2'      -33.3630    6.7170  -13.5220 C.3    19  DA19        0.0865
    372  C1'      -31.8830    6.3480  -13.4590 C.3    19  DA19        0.2094
    373  N9       -31.1870    7.0240  -12.2840 N.ar   19  DA19       -0.2714
    374  C8       -30.2600    8.0280  -12.3870 C.ar   19  DA19        0.1815
    375  N7       -29.6300    8.2830  -11.2640 N.ar   19  DA19       -0.2193
    376  C5       -30.1810    7.3850  -10.3630 C.ar   19  DA19        0.1518
    377  C6       -29.9400    7.1460   -8.9990 C.ar   19  DA19        0.1919
    378  N6       -29.0420    7.8210   -8.2780 N.pl3  19  DA19       -0.1054
    379  N1       -30.6620    6.1780   -8.3950 N.ar   19  DA19       -0.2040
    380  C2       -31.5610    5.5020   -9.1200 C.ar   19  DA19        0.2016
    381  N3       -31.8760    5.6350  -10.4060 N.ar   19  DA19       -0.2048
    382  C4       -31.1420    6.6040  -10.9770 C.ar   19  DA19        0.1691
    383  P        -35.1040    9.8130  -14.3330 P.3    20  DA20        0.2141
    384  OP1      -35.6040    9.4420  -15.6850 O.2    20  DA20       -0.5172
    385  OP2      -34.6190   11.1800  -14.0270 O.3    20  DA20       -0.4373
    386  O5'      -36.2210    9.4640  -13.2450 O.3    20  DA20       -0.3114
    387  C5'      -36.9140    8.2280  -13.2530 C.3    20  DA20        0.1811
    388  C4'      -36.9670    7.6790  -11.8410 C.3    20  DA20        0.1746
    389  O4'      -35.6380    7.3240  -11.4160 O.3    20  DA20       -0.3327
    390  C3'      -37.3640    8.6370  -10.7440 C.3    20  DA20        0.1558
    391  O3'      -38.7510    8.8610  -10.8050 O.3    20  DA20       -0.3138
    392  C2'      -36.9620    7.7830   -9.5480 C.3    20  DA20        0.0865
    393  C1'      -35.6100    7.2690  -10.0110 C.3    20  DA20        0.2094
    394  N9       -34.5310    8.0350   -9.6050 N.ar   20  DA20       -0.2714
    395  C8       -33.8670    8.8440  -10.4900 C.ar   20  DA20        0.1815
    396  N7       -32.8000    9.4170   -9.9850 N.ar   20  DA20       -0.2193
    397  C5       -32.7620    8.9530   -8.6790 C.ar   20  DA20        0.1518
    398  C6       -31.8710    9.1900   -7.6180 C.ar   20  DA20        0.1919
    399  N6       -30.8040    9.9860   -7.7120 N.pl3  20  DA20       -0.1054
    400  N1       -32.1180    8.5720   -6.4430 N.ar   20  DA20       -0.2040
    401  C2       -33.1880    7.7740   -6.3500 C.ar   20  DA20        0.2016
    402  N3       -34.0950    7.4730   -7.2760 N.ar   20  DA20       -0.2048
    403  C4       -33.8220    8.1030   -8.4310 C.ar   20  DA20        0.1691
    404  P        -39.3700   10.1290  -10.1880 P.3    21  DT21        0.2141
    405  OP1      -40.8450   10.2520  -10.1520 O.3    21  DT21       -0.4373
    406  OP2      -38.5540   11.2000  -10.8070 O.2    21  DT21       -0.5172
    407  O5'      -38.8560    9.8930   -8.6980 O.3    21  DT21       -0.3114
    408  C5'      -39.4070    8.8340   -7.8810 C.3    21  DT21        0.1811
    409  C4'      -38.7550    8.8310   -6.5130 C.3    21  DT21        0.1746
    410  O4'      -37.3550    8.4650   -6.6360 O.3    21  DT21       -0.3327
    411  C3'      -38.7360   10.1770   -5.8030 C.3    21  DT21        0.1558
    412  O3'      -39.9600   10.4450   -5.1320 O.3    21  DT21       -0.3138
    413  C2'      -37.5340   10.0550   -4.8720 C.3    21  DT21        0.0866
    414  C1'      -36.5790    9.2250   -5.7240 C.3    21  DT21        0.2106
    415  N1       -35.5980   10.0560   -6.4710 N.ar   21  DT21       -0.2559
    416  C2       -34.5410   10.5210   -5.7120 C.ar   21  DT21        0.3545
    417  O2       -34.3990   10.2470   -4.5330 O.2    21  DT21       -0.2443
    418  N3       -33.6510   11.3230   -6.3850 N.ar   21  DT21       -0.1533
    419  C4       -33.7110   11.6980   -7.7110 C.ar   21  DT21        0.2804
    420  O4       -32.8340   12.4240   -8.1740 O.2    21  DT21       -0.2654
    421  C5       -34.8370   11.1760   -8.4310 C.ar   21  DT21        0.0534
    422  C6       -35.7180   10.3940   -7.8020 C.ar   21  DT21        0.0824
    423  C7       -34.9910   11.5280   -9.8810 C.3    21  DT21        0.0377
    424  P        -40.5200   11.9750   -5.1160 P.3    22  DC22        0.2141
    425  OP1      -41.9940   11.8610   -5.0790 O.3    22  DC22       -0.4373
    426  OP2      -39.8490   12.5950   -6.2810 O.2    22  DC22       -0.5172
    427  O5'      -40.0110   12.8310   -3.8630 O.3    22  DC22       -0.3114
    428  C5'      -40.1760   12.3020   -2.5540 C.3    22  DC22        0.1811
    429  C4'      -39.0690   12.7330   -1.6230 C.3    22  DC22        0.1744
    430  O4'      -37.7850   12.3000   -2.1450 O.3    22  DC22       -0.3348
    431  C3'      -38.8990   14.2340   -1.4260 C.3    22  DC22        0.1555
    432  O3'      -39.8220   14.7780   -0.5010 O.3    22  DC22       -0.3139
    433  C2'      -37.4460   14.3400   -0.9750 C.3    22  DC22        0.0836
    434  C1'      -36.7920   13.2490   -1.8260 C.3    22  DC22        0.1983
    435  N1       -36.2180   13.7550   -3.0240 N.am   22  DC22       -0.2339
    436  C2       -35.0350   14.5030   -3.0090 C.2    22  DC22        0.3412
    437  O2       -34.5110   14.7690   -1.9140 O.2    22  DC22       -0.2474
    438  N3       -34.4990   14.9140   -4.1820 N.ar   22  DC22       -0.1760
    439  C4       -35.0980   14.6060   -5.3340 C.ar   22  DC22        0.1853
    440  N4       -34.5330   15.0330   -6.4650 N.ar   22  DC22       -0.1271
    441  C5       -36.2970   13.8490   -5.3710 C.2    22  DC22        0.0362
    442  C6       -36.8230   13.4450   -4.2100 C.3    22  DC22        0.1271
    443  P        -39.9300   16.4220   -0.3990 P.3    23  DG23        0.2141
    444  OP1      -40.6120   16.4860    0.9210 O.3    23  DG23       -0.4373
    445  OP2      -40.7360   16.7000   -1.6260 O.2    23  DG23       -0.5172
    446  O5'      -38.6000   17.3380   -0.4450 O.3    23  DG23       -0.3114
    447  C5'      -37.7210   17.3850    0.6900 C.3    23  DG23        0.1811
    448  C4'      -36.3660   17.9960    0.3870 C.3    23  DG23        0.1746
    449  O4'      -35.8140   17.2990   -0.7580 O.3    23  DG23       -0.3327
    450  C3'      -36.3030   19.4700   -0.0140 C.3    23  DG23        0.1558
    451  O3'      -36.2700   20.3610    1.0960 O.3    23  DG23       -0.3138
    452  C2'      -34.9790   19.4870   -0.7540 C.3    23  DG23        0.0865
    453  C1'      -35.1400   18.2250   -1.5980 C.3    23  DG23        0.2094
    454  N9       -35.8140   18.3170   -2.9190 N.ar   23  DG23       -0.2713
    455  C8       -37.0230   17.7510   -3.2430 C.ar   23  DG23        0.1816
    456  N7       -37.3510   17.9190   -4.4950 N.ar   23  DG23       -0.2173
    457  C5       -36.2990   18.6360   -5.0330 C.ar   23  DG23        0.1748
    458  C6       -36.0860   19.1160   -6.3510 C.ar   23  DG23        0.3023
    459  O6       -36.8210   18.9930   -7.3390 O.2    23  DG23       -0.2633
    460  N1       -34.8800   19.8010   -6.4670 N.ar   23  DG23       -0.1709
    461  C2       -33.9880   19.9980   -5.4410 C.ar   23  DG23        0.2606
    462  N2       -32.8770   20.6830   -5.7470 N.pl3  23  DG23       -0.0859
    463  N3       -34.1710   19.5590   -4.2110 N.ar   23  DG23       -0.1918
    464  C4       -35.3370   18.8920   -4.0740 C.ar   23  DG23        0.1722
    465  P        -37.2230   21.6450    1.0580 P.3    24  DC24        0.2141
    466  OP1      -37.3210   22.1680    2.4370 O.3    24  DC24       -0.4373
    467  OP2      -38.4040   21.6950    0.1680 O.2    24  DC24       -0.5172
    468  O5'      -36.0990   22.4420    0.2440 O.3    24  DC24       -0.3114
    469  C5'      -34.7540   22.4290    0.7050 C.3    24  DC24        0.1811
    470  C4'      -33.8330   23.0670   -0.3000 C.3    24  DC24        0.1746
    471  O4'      -33.7130   22.2230   -1.4700 O.3    24  DC24       -0.3327
    472  C3'      -34.3350   24.3830   -0.8650 C.3    24  DC24        0.1558
    473  O3'      -34.0940   25.4750   -0.0050 O.3    24  DC24       -0.3138
    474  C2'      -33.6130   24.4840   -2.1970 C.3    24  DC24        0.0866
    475  C1'      -33.6180   23.0230   -2.6310 C.3    24  DC24        0.2106
    476  N1       -34.7860   22.7850   -3.5260 N.ar   24  DC24       -0.2556
    477  C2       -34.6220   23.1480   -4.8680 C.ar   24  DC24        0.3531
    478  O2       -33.5470   23.6630   -5.2200 O.2    24  DC24       -0.2443
    479  N3       -35.6350   22.9290   -5.7390 N.ar   24  DC24       -0.1739
    480  C4       -36.7720   22.3740   -5.3150 C.ar   24  DC24        0.1759
    481  N4       -37.7430   22.1780   -6.2100 N.pl3  24  DC24       -0.1070
    482  C5       -36.9580   21.9990   -3.9600 C.ar   24  DC24        0.0566
    483  C6       -35.9550   22.2170   -3.1030 C.ar   24  DC24        0.0849
    484  P        -35.1070   26.4190   -0.0300 P.3    25  DA25        0.2141
    485  OP1      -34.6990   26.8700    1.3300 O.3    25  DA25       -0.4373
    486  OP2      -36.4260   25.7540   -0.2410 O.2    25  DA25       -0.5172
    487  O5'      -34.9700   27.6150   -1.0650 O.3    25  DA25       -0.3114
    488  C5'      -33.6870   28.0740   -1.4420 C.3    25  DA25        0.1811
    489  C4'      -33.6780   28.4750   -2.8920 C.3    25  DA25        0.1744
    490  O4'      -33.8660   27.3300   -3.7640 O.3    25  DA25       -0.3349
    491  C3'      -34.7900   29.3950   -3.3240 C.3    25  DA25        0.1555
    492  O3'      -34.5610   30.7210   -2.9180 O.3    25  DA25       -0.3139
    493  C2'      -34.7660   29.2500   -4.8340 C.3    25  DA25        0.0835
    494  C1'      -34.4050   27.7750   -5.0030 C.3    25  DA25        0.1974
    495  N9       -35.5520   27.0470   -5.3180 N.pl3  25  DA25       -0.2458
    496  C8       -36.3460   26.3850   -4.4180 C.2    25  DA25        0.1669
    497  N7       -37.1950   25.5520   -4.9730 N.2    25  DA25       -0.2209
    498  C5       -36.9430   25.6770   -6.3300 C.2    25  DA25        0.1887
    499  C6       -37.5110   25.0590   -7.4580 C.2    25  DA25        0.4109
    500  N6       -38.4900   24.1540   -7.3910 N.pl3  25  DA25        0.2140
    501  N1       -37.0310   25.4080   -8.6710 N.pl3  25  DA25       -0.0284
    502  C2       -36.0490   26.3140   -8.7370 C.2    25  DA25        0.3061
    503  N3       -35.4350   26.9630   -7.7490 N.2    25  DA25       -0.2039
    504  C4       -35.9350   26.5950   -6.5580 C.3    25  DA25        0.2331
    505  P        -35.8420   31.6330   -2.4110 P.3    26  DT26        0.2141
    506  OP1      -35.4070   32.9310   -1.8490 O.2    26  DT26       -0.5172
    507  OP2      -36.9010   30.8490   -1.7370 O.3    26  DT26       -0.4373
    508  O5'      -36.4260   31.8590   -3.8870 O.3    26  DT26       -0.3114
    509  C5'      -35.8220   32.8020   -4.7630 C.3    26  DT26        0.1811
    510  C4'      -36.2140   32.6110   -6.2110 C.3    26  DT26        0.1746
    511  O4'      -36.1000   31.2190   -6.6110 O.3    26  DT26       -0.3327
    512  C3'      -37.6430   32.9680   -6.5870 C.3    26  DT26        0.1558
    513  O3'      -37.8390   34.3610   -6.7300 O.3    26  DT26       -0.3138
    514  C2'      -37.8330   32.2170   -7.8950 C.3    26  DT26        0.0866
    515  C1'      -37.0230   30.9440   -7.6460 C.3    26  DT26        0.2106
    516  N1       -37.9510   29.5920   -7.3330 N.ar   26  DT26       -0.2559
    517  C2       -38.5340   28.9370   -8.4010 C.ar   26  DT26        0.3545
    518  O2       -38.4450   29.3300   -9.5500 O.2    26  DT26       -0.2443
    519  N3       -39.2310   27.7980   -8.0740 N.ar   26  DT26       -0.1533
    520  C4       -39.3990   27.2620   -6.8140 C.ar   26  DT26        0.2804
    521  O4       -40.0520   26.2300   -6.6780 O.2    26  DT26       -0.2654
    522  C5       -38.7640   28.0000   -5.7590 C.ar   26  DT26        0.0534
    523  C6       -38.0810   29.1100   -6.0490 C.ar   26  DT26        0.0824
    524  C7       -38.8890   27.4970   -4.3510 C.3    26  DT26        0.0377
    525  P        -39.4660   35.1490   -6.1830 P.3    27  DT27        0.2141
    526  OP1      -39.7250   36.6040   -6.3330 O.2    27  DT27       -0.5172
    527  OP2      -40.1610   34.3970   -5.1080 O.3    27  DT27       -0.4373
    528  O5'      -39.7820   34.4280   -7.5680 O.3    27  DT27       -0.3114
    529  C5'      -39.1110   34.8430   -8.7460 C.3    27  DT27        0.1811
    530  C4'      -39.5280   34.0080   -9.9200 C.3    27  DT27        0.1746
    531  O4'      -39.1230   32.6300   -9.7340 O.3    27  DT27       -0.3327
    532  C3'      -41.0170   33.8960  -10.1610 C.3    27  DT27        0.1558
    533  O3'      -41.5170   35.0630  -10.8120 O.3    27  DT27       -0.3138
    534  C2'      -41.1230   32.6330  -11.0280 C.3    27  DT27        0.0866
    535  C1'      -39.9160   31.8120  -10.5680 C.3    27  DT27        0.2106
    536  N1       -40.1930   30.7570   -9.8810 N.ar   27  DT27       -0.2559
    537  C2       -40.8960   29.7620  -10.5340 C.ar   27  DT27        0.3545
    538  O2       -41.0350   29.7330  -11.7440 O.2    27  DT27       -0.2443
    539  N3       -41.4340   28.7990   -9.7160 N.ar   27  DT27       -0.1533
    540  C4       -41.3420   28.7310   -8.3420 C.ar   27  DT27        0.2804
    541  O4       -41.8800   27.8010   -7.7450 O.2    27  DT27       -0.2654
    542  C5       -40.5980   29.8000   -7.7380 C.ar   27  DT27        0.0534
    543  C6       -40.0630   30.7500   -8.5090 C.ar   27  DT27        0.0824
    544  C7       -40.4420   29.8160   -6.2460 C.3    27  DT27        0.0377
    545  P        -43.3840   35.1740  -11.0890 P.3    28  DA28        0.2141
    546  OP1      -43.4990   36.6490  -11.1520 O.2    28  DA28       -0.5172
    547  OP2      -44.0220   34.4420   -9.9700 O.3    28  DA28       -0.4373
    548  O5'      -44.0340   34.5030  -12.3910 O.3    28  DA28       -0.3114
    549  C5'      -45.4230   34.1950  -12.4090 C.3    28  DA28        0.1811
    550  C4'      -45.7140   32.9170  -13.1600 C.3    28  DA28        0.1746
    551  O4'      -44.6860   31.9360  -12.8670 O.3    28  DA28       -0.3327
    552  C3'      -47.0160   32.2060  -12.8120 C.3    28  DA28        0.1558
    553  O3'      -48.1460   32.7320  -13.4850 O.3    28  DA28       -0.3138
    554  C2'      -46.7210   30.7610  -13.1920 C.3    28  DA28        0.0865
    555  C1'      -45.2480   30.6420  -12.8080 C.3    28  DA28        0.2094
    556  N9       -45.1950   30.2970  -11.1630 N.ar   28  DA28       -0.2714
    557  C8       -44.7570   31.1070  -10.1480 C.ar   28  DA28        0.1815
    558  N7       -44.5070   30.4660   -9.0300 N.ar   28  DA28       -0.2193
    559  C5       -44.8020   29.1460   -9.3320 C.ar   28  DA28        0.1518
    560  C6       -44.7450   27.9660   -8.5690 C.ar   28  DA28        0.1919
    561  N6       -44.3520   27.9290   -7.2940 N.pl3  28  DA28       -0.1054
    562  N1       -45.1090   26.8130   -9.1700 N.ar   28  DA28       -0.2040
    563  C2       -45.5010   26.8520  -10.4490 C.ar   28  DA28        0.2016
    564  N3       -45.5960   27.8970  -11.2680 N.ar   28  DA28       -0.2048
    565  C4       -45.2280   29.0260  -10.6410 C.ar   28  DA28        0.1691
    566  P        -49.3270   32.8720  -12.8070 P.3    29  DC29        0.2141
    567  OP1      -50.1510   33.4250  -13.9210 O.2    29  DC29       -0.5172
    568  OP2      -49.2210   33.5890  -11.5090 O.3    29  DC29       -0.4373
    569  O5'      -49.8070   31.3840  -12.3840 O.3    29  DC29       -0.3114
    570  C5'      -50.1050   30.4500  -13.4100 C.3    29  DC29        0.1811
    571  C4'      -49.6720   29.0450  -13.0650 C.3    29  DC29        0.1746
    572  O4'      -48.3440   28.9950  -12.4670 O.3    29  DC29       -0.3327
    573  C3'      -50.5050   28.3600  -12.0150 C.3    29  DC29        0.1558
    574  O3'      -51.7330   27.9700  -12.5260 O.3    29  DC29       -0.3138
    575  C2'      -49.6340   27.1440  -11.7510 C.3    29  DC29        0.0866
    576  C1'      -48.2700   27.8220  -11.6720 C.3    29  DC29        0.2106
    577  N1       -47.9280   28.0420  -10.2680 N.ar   29  DC29       -0.2556
    578  C2       -47.3910   27.0220   -9.4740 C.ar   29  DC29        0.3531
    579  O2       -47.3680   25.8630   -9.9250 O.2    29  DC29       -0.2443
    580  N3       -46.9160   27.3250   -8.2430 N.ar   29  DC29       -0.1739
    581  C4       -46.9630   28.5820   -7.8010 C.ar   29  DC29        0.1759
    582  N4       -46.4820   28.8340   -6.5810 N.pl3  29  DC29       -0.1070
    583  C5       -47.5030   29.6300   -8.5900 C.ar   29  DC29        0.0566
    584  C6       -47.9710   29.3260   -9.8050 C.ar   29  DC29        0.0849
    585  P        -52.9880   27.7880  -11.5330 P.3    30  DC30        0.2141
    586  OP1      -54.0470   27.5250  -12.5310 O.2    30  DC30       -0.5172
    587  OP2      -53.3750   28.3490  -10.1850 O.3    30  DC30       -0.4373
    588  O5'      -52.2530   26.3900  -11.2630 O.3    30  DC30       -0.3114
    589  C5'      -52.7280   25.1540  -11.8150 C.3    30  DC30        0.1811
    590  C4'      -52.0830   24.0030  -11.0880 C.3    30  DC30        0.1746
    591  O4'      -50.8790   24.5640  -10.5430 O.3    30  DC30       -0.3327
    592  C3'      -52.8400   23.4250   -9.8960 C.3    30  DC30        0.1558
    593  O3'      -53.5670   22.2700  -10.3510 O.3    30  DC30       -0.3138
    594  C2'      -51.7330   23.0410   -8.9120 C.3    30  DC30        0.0866
    595  C1'      -50.6110   24.0010   -9.2880 C.3    30  DC30        0.2106
    596  N1       -50.2110   24.8510   -8.4240 N.ar   30  DC30       -0.2556
    597  C2       -49.6020   24.4770   -7.2210 C.ar   30  DC30        0.3531
    598  O2       -49.2330   23.2990   -7.0790 O.2    30  DC30       -0.2443
    599  N3       -49.4340   25.4060   -6.2500 N.ar   30  DC30       -0.1739
    600  C4       -49.8470   26.6590   -6.4470 C.ar   30  DC30        0.1759
    601  N4       -49.6600   27.5400   -5.4610 N.pl3  30  DC30       -0.1070
    602  C5       -50.4670   27.0580   -7.6580 C.ar   30  DC30        0.0566
    603  C6       -50.6310   26.1380   -8.6150 C.ar   30  DC30        0.0849
    604  P        -54.0980   21.3410   -9.2290 P.3    31  DT31        0.2141
    605  OP1      -54.8750   20.8230  -10.3770 O.2    31  DT31       -0.5172
    606  OP2      -54.7630   21.6440   -7.9410 O.3    31  DT31       -0.4373
    607  O5'      -52.9570   20.2880   -8.8310 O.3    31  DT31       -0.3114
    608  C5'      -52.0270   20.5580   -7.7840 C.3    31  DT31        0.1811
    609  C4'      -51.4360   19.2950   -7.1950 C.3    31  DT31        0.1746
    610  O4'      -52.2270   18.8670   -6.0470 O.3    31  DT31       -0.3327
    611  C3'      -51.3710   18.0880   -8.1340 C.3    31  DT31        0.1558
    612  O3'      -50.2340   17.2860   -7.8100 O.3    31  DT31       -0.3138
    613  C2'      -52.6260   17.3140   -7.7450 C.3    31  DT31        0.0866
    614  C1'      -52.5860   17.5070   -6.2300 C.3    31  DT31        0.2106
    615  N1       -53.9380   16.9910   -6.2220 N.ar   31  DT31       -0.2559
    616  C2       -54.1210   15.7650   -5.6120 C.ar   31  DT31        0.3545
    617  O2       -53.1970   15.0490   -5.2690 O.2    31  DT31       -0.2443
    618  N3       -55.4320   15.4020   -5.4180 N.ar   31  DT31       -0.1533
    619  C4       -56.5530   16.1270   -5.7650 C.ar   31  DT31        0.2804
    620  O4       -57.6680   15.6690   -5.5240 O.2    31  DT31       -0.2654
    621  C5       -56.2800   17.3880   -6.3940 C.ar   31  DT31        0.0534
    622  C6       -55.0150   17.7650   -6.5950 C.ar   31  DT31        0.0824
    623  C7       -57.4350   18.2510   -6.8100 C.3    31  DT31        0.0377
    624  P        -48.4670   17.2830   -8.5690 P.3    32  DT32        0.2141
    625  OP1      -48.1260   15.8660   -8.3080 O.2    32  DT32       -0.5172
    626  OP2      -47.5790   18.3530   -8.0610 O.3    32  DT32       -0.4373
    627  O5'      -48.6010   17.5820  -10.1430 O.3    32  DT32       -0.3114
    628  C5'      -47.4770   17.7550  -11.0040 C.3    32  DT32        0.1811
    629  C4'      -47.7070   18.8400  -12.0330 C.3    32  DT32        0.1746
    630  O4'      -48.3810   19.9610  -11.3970 O.3    32  DT32       -0.3327
    631  C3'      -46.4580   19.4550  -12.6610 C.3    32  DT32        0.1558
    632  O3'      -45.9210   18.7260  -13.7540 O.3    32  DT32       -0.3138
    633  C2'      -46.9090   20.8620  -13.0410 C.3    32  DT32        0.0866
    634  C1'      -47.9040   21.1830  -11.9190 C.3    32  DT32        0.2106
    635  N1       -47.0350   21.8350  -10.6590 N.ar   32  DT32       -0.2559
    636  C2       -46.6590   23.1610  -10.7460 C.ar   32  DT32        0.3545
    637  O2       -46.7270   23.8040  -11.7790 O.2    32  DT32       -0.2443
    638  N3       -46.1950   23.7130   -9.5760 N.ar   32  DT32       -0.1533
    639  C4       -46.0740   23.0840   -8.3540 C.ar   32  DT32        0.2804
    640  O4       -45.6410   23.7130   -7.3910 O.2    32  DT32       -0.2654
    641  C5       -46.4840   21.7080   -8.3450 C.ar   32  DT32        0.0534
    642  C6       -46.9380   21.1470   -9.4680 C.ar   32  DT32        0.0824
    643  C7       -46.3890   20.9360   -7.0620 C.3    32  DT32        0.0377
    644  P        -44.3470   18.9710  -14.1690 P.3    33  DA33        0.2141
    645  OP1      -43.8980   18.3510  -15.4340 O.2    33  DA33       -0.5172
    646  OP2      -43.5350   18.7960  -12.9460 O.3    33  DA33       -0.4373
    647  O5'      -44.4670   20.5590  -14.3530 O.3    33  DA33       -0.3114
    648  C5'      -44.9170   21.1700  -15.5560 C.3    33  DA33        0.1811
    649  C4'      -44.2730   22.5220  -15.7400 C.3    33  DA33        0.1746
    650  O4'      -44.7550   23.4340  -14.7210 O.3    33  DA33       -0.3327
    651  C3'      -42.7610   22.5500  -15.5920 C.3    33  DA33        0.1558
    652  O3'      -42.0980   22.2400  -16.8010 O.3    33  DA33       -0.3138
    653  C2'      -42.4640   23.9610  -15.1040 C.3    33  DA33        0.0865
    654  C1'      -43.7250   24.3090  -14.3100 C.3    33  DA33        0.2094
    655  N9       -43.5400   24.2060  -12.8770 N.ar   33  DA33       -0.2714
    656  C8       -43.7280   23.1320  -12.0470 C.ar   33  DA33        0.1815
    657  N7       -43.1890   23.2810  -10.8600 N.ar   33  DA33       -0.2193
    658  C5       -42.6080   24.5380  -10.9150 C.ar   33  DA33        0.1518
    659  C6       -41.8790   25.2850   -9.9730 C.ar   33  DA33        0.1919
    660  N6       -41.6030   24.8530   -8.7400 N.pl3  33  DA33       -0.1054
    661  N1       -41.4390   26.5060  -10.3460 N.ar   33  DA33       -0.2040
    662  C2       -41.7160   26.9380  -11.5820 C.ar   33  DA33        0.2016
    663  N3       -42.3910   26.3290  -12.5540 N.ar   33  DA33       -0.2048
    664  C4       -42.8140   25.1190  -12.1510 C.ar   33  DA33        0.1691
    665  P        -40.4260   21.6490  -16.7680 P.3    34  DT34        0.2141
    666  OP1      -40.1190   21.1070  -18.1100 O.2    34  DT34       -0.5172
    667  OP2      -40.3380   20.7750  -15.5800 O.3    34  DT34       -0.4373
    668  O5'      -39.4970   22.9260  -16.5090 O.3    34  DT34       -0.3114
    669  C5'      -39.2680   23.8600  -17.5620 C.3    34  DT34        0.1811
    670  C4'      -38.6690   25.1430  -17.0220 C.3    34  DT34        0.1746
    671  O4'      -39.5270   25.6780  -15.9830 O.3    34  DT34       -0.3327
    672  C3'      -37.3300   25.0070  -16.3190 C.3    34  DT34        0.1558
    673  O3'      -36.2730   24.9260  -17.2470 O.3    34  DT34       -0.3138
    674  C2'      -37.3090   26.3210  -15.5550 C.3    34  DT34        0.0866
    675  C1'      -38.7350   26.3300  -15.0080 C.3    34  DT34        0.2106
    676  N1       -38.7850   25.5340  -13.6950 N.ar   34  DT34       -0.2559
    677  C2       -38.2660   26.0270  -12.5130 C.ar   34  DT34        0.3545
    678  O2       -37.6240   27.0600  -12.4480 O.2    34  DT34       -0.2443
    679  N3       -38.5250   25.2610  -11.4010 N.ar   34  DT34       -0.1533
    680  C4       -39.2340   24.0800  -11.3550 C.ar   34  DT34        0.2804
    681  O4       -39.3850   23.5060  -10.2790 O.2    34  DT34       -0.2654
    682  C5       -39.7400   23.6340  -12.6230 C.ar   34  DT34        0.0534
    683  C6       -39.5030   24.3590  -13.7190 C.ar   34  DT34        0.0824
    684  C7       -40.5260   22.3570  -12.6770 C.3    34  DT34        0.0377
    685  P        -35.3230   23.9490  -17.0350 P.3    35  DA35        0.2141
    686  OP1      -34.5610   23.5700  -18.2610 O.2    35  DA35       -0.5172
    687  OP2      -36.0240   22.8130  -16.4100 O.3    35  DA35       -0.4373
    688  O5'      -34.2620   24.5760  -16.0320 O.3    35  DA35       -0.3114
    689  C5'      -33.3790   25.6250  -16.5010 C.3    35  DA35        0.1811
    690  C4'      -32.5530   26.1730  -15.3570 C.3    35  DA35        0.1746
    691  O4'      -33.4470   26.7400  -14.3670 O.3    35  DA35       -0.3327
    692  C3'      -31.8640   25.0380  -14.6340 C.3    35  DA35        0.1558
    693  O3'      -30.5840   24.8260  -15.2560 O.3    35  DA35       -0.3138
    694  C2'      -31.6940   25.6300  -13.2580 C.3    35  DA35        0.0865
    695  C1'      -32.9630   26.4380  -13.0730 C.3    35  DA35        0.2094
    696  N9       -34.0080   25.7170  -12.3260 N.ar   35  DA35       -0.2714
    697  C8       -35.2330   25.2750  -12.7530 C.ar   35  DA35        0.1815
    698  N7       -35.9410   24.6910  -11.8160 N.ar   35  DA35       -0.2190
    699  C5       -35.1250   24.7530  -10.6970 C.ar   35  DA35        0.1563
    700  C6       -35.2970   24.3080   -9.3750 C.ar   35  DA35        0.2254
    701  N6       -36.3970   23.6870   -8.9410 N.2    35  DA35       -0.0602
    702  N1       -34.2890   24.5260   -8.5040 N.ar   35  DA35       -0.2002
    703  C2       -33.1880   25.1490   -8.9390 C.ar   35  DA35        0.2018
    704  N3       -32.9100   25.6140  -10.1550 N.ar   35  DA35       -0.2048
    705  C4       -33.9310   25.3810  -10.9960 C.ar   35  DA35        0.1694
    706  P        -29.8240   23.3130  -15.2310 P.3    36  DC36        0.2141
    707  OP1      -28.8340   23.4510  -16.3160 O.2    36  DC36       -0.5172
    708  OP2      -31.0340   22.4820  -15.4610 O.3    36  DC36       -0.4373
    709  O5'      -29.1270   22.7650  -13.9070 O.3    36  DC36       -0.3114
    710  C5'      -28.2780   23.6300  -13.1370 C.3    36  DC36        0.1812
    711  C4'      -28.6010   23.5300  -11.6700 C.3    36  DC36        0.1775
    712  O4'      -30.0130   23.7760  -11.4640 O.3    36  DC36       -0.3326
    713  C3'      -28.4910   22.1670  -11.0270 C.3    36  DC36        0.1859
    714  O3'      -27.1580   21.7680  -10.8360 O.3    36  DC36       -0.2203
    715  C2'      -29.2090   22.4180   -9.7070 C.3    36  DC36        0.0895
    716  C1'      -30.3660   23.2960  -10.1780 C.3    36  DC36        0.2107
    717  N1       -31.4770   22.4750  -10.0590 N.ar   36  DC36       -0.2556
    718  C2       -32.0690   22.0440   -8.8660 C.ar   36  DC36        0.3531
    719  O2       -31.4600   22.2230   -7.7980 O.2    36  DC36       -0.2443
    720  N3       -33.2830   21.4460   -8.9110 N.ar   36  DC36       -0.1739
    721  C4       -33.8990   21.2730  -10.0810 C.ar   36  DC36        0.1759
    722  N4       -35.0950   20.6790  -10.0760 N.pl3  36  DC36       -0.1070
    723  C5       -33.3160   21.7030  -11.3010 C.ar   36  DC36        0.0566
    724  C6       -32.1170   22.2930  -11.2520 C.ar   36  DC36        0.0849
    725  P        -26.7090   20.5180  -11.9030 P.3    37  DC37        0.5411
    726  OP1      -25.4410   19.9550  -12.4270 O.2    37  DC37       -0.2272
    727  OP2      -27.9860   20.1510  -12.5400 O.2    37  DC37       -0.2272
    728  O5'      -26.8760   20.1820  -10.3520 O.3    37  DC37       -0.2722
    729  C5'      -25.8080   20.4030   -9.4280 C.3    37  DC37        0.1850
    730  C4'      -26.3520   20.6570   -8.0340 C.3    37  DC37        0.1748
    731  O4'      -27.6390   21.3230   -8.1140 O.3    37  DC37       -0.3327
    732  C3'      -26.6260   19.4620   -7.1360 C.3    37  DC37        0.1558
    733  O3'      -25.4450   19.0040   -6.5010 O.3    37  DC37       -0.3138
    734  C2'      -27.6020   20.0440   -6.1190 C.3    37  DC37        0.0866
    735  C1'      -28.4330   20.9670   -6.9960 C.3    37  DC37        0.2106
    736  N1       -29.5710   20.2450   -7.3910 N.ar   37  DC37       -0.2556
    737  C2       -30.6650   20.0760   -6.5340 C.ar   37  DC37        0.3531
    738  O2       -30.5870   20.5120   -5.3730 O.2    37  DC37       -0.2443
    739  N3       -31.7710   19.4430   -6.9940 N.ar   37  DC37       -0.1739
    740  C4       -31.8080   18.9910   -8.2480 C.ar   37  DC37        0.1759
    741  N4       -32.9190   18.3740   -8.6560 N.pl3  37  DC37       -0.1070
    742  C5       -30.7100   19.1520   -9.1320 C.ar   37  DC37        0.0566
    743  C6       -29.6200   19.7780   -8.6740 C.ar   37  DC37        0.0849
    744  P        -25.3480   17.4580   -5.9730 P.3    38  DA38        0.2141
    745  OP1      -23.9710   16.9370   -6.1240 O.3    38  DA38       -0.4373
    746  OP2      -26.4470   16.9140   -6.8000 O.2    38  DA38       -0.5172
    747  O5'      -25.8360   17.2300   -4.4670 O.3    38  DA38       -0.3114
    748  C5'      -25.5330   18.2070   -3.4820 C.3    38  DA38        0.1811
    749  C4'      -26.5970   18.2440   -2.4190 C.3    38  DA38        0.1746
    750  O4'      -27.8400   18.7440   -2.9780 O.3    38  DA38       -0.3327
    751  C3'      -26.9780   16.8900   -1.8520 C.3    38  DA38        0.1558
    752  O3'      -26.0540   16.4160   -0.8890 O.3    38  DA38       -0.3138
    753  C2'      -28.3800   17.1500   -1.3140 C.3    38  DA38        0.0865
    754  C1'      -28.9370   18.0750   -2.3960 C.3    38  DA38        0.2094
    755  N9       -29.6950   17.3200   -3.4920 N.ar   38  DA38       -0.2714
    756  C8       -29.3300   17.1110   -4.7970 C.ar   38  DA38        0.1815
    757  N7       -30.2800   16.5880   -5.5350 N.ar   38  DA38       -0.2191
    758  C5       -31.3420   16.4430   -4.6550 C.ar   38  DA38        0.1545
    759  C6       -32.6460   15.9450   -4.8210 C.ar   38  DA38        0.2060
    760  N6       -33.1190   15.4830   -5.9800 N.ar   38  DA38       -0.1253
    761  N1       -33.4560   15.9390   -3.7400 N.ar   38  DA38       -0.1996
    762  C2       -32.9810   16.4040   -2.5790 C.ar   38  DA38        0.2018
    763  N3       -31.7770   16.8970   -2.3000 N.ar   38  DA38       -0.2048
    764  C4       -30.9960   16.8890   -3.3940 C.ar   38  DA38        0.1693
    765  P        -25.4800   14.8620   -0.9770 P.3    39  DG39        0.2141
    766  OP1      -24.1630   14.6960   -0.3120 O.3    39  DG39       -0.4373
    767  OP2      -25.7090   14.4680   -2.3880 O.2    39  DG39       -0.5172
    768  O5'      -26.5620   14.0190   -0.1630 O.3    39  DG39       -0.3114
    769  C5'      -26.8670   14.3640    1.1760 C.3    39  DG39        0.1811
    770  C4'      -28.1570   13.7100    1.5840 C.3    39  DG39        0.1746
    771  O4'      -29.2490   14.2810    0.8170 O.3    39  DG39       -0.3327
    772  C3'      -28.2440   12.2220    1.2890 C.3    39  DG39        0.1558
    773  O3'      -27.6020   11.4180    2.2630 O.3    39  DG39       -0.3138
    774  C2'      -29.7450   11.9820    1.1840 C.3    39  DG39        0.0865
    775  C1'      -30.2210   13.2910    0.5500 C.3    39  DG39        0.2094
    776  N9       -30.3490   13.2270   -0.8870 N.ar   39  DG39       -0.2713
    777  C8       -29.4410   13.6040   -1.8470 C.ar   39  DG39        0.1816
    778  N7       -29.8200   13.3040   -3.0590 N.ar   39  DG39       -0.2173
    779  C5       -31.0500   12.6960   -2.8940 C.ar   39  DG39        0.1748
    780  C6       -31.9480   12.1540   -3.8490 C.ar   39  DG39        0.3023
    781  O6       -31.8220   12.1070   -5.0790 O.2    39  DG39       -0.2633
    782  N1       -33.0900   11.6270   -3.2510 N.ar   39  DG39       -0.1709
    783  C2       -33.3360   11.6240   -1.8990 C.ar   39  DG39        0.2606
    784  N2       -34.4940   11.0720   -1.5110 N.pl3  39  DG39       -0.0859
    785  N3       -32.5110   12.1230   -1.0000 N.ar   39  DG39       -0.1918
    786  C4       -31.3950   12.6390   -1.5570 C.ar   39  DG39        0.1722
    787  P        -27.4580    9.7360    1.9740 P.3    40  DC40        0.2141
    788  OP1      -26.4160    9.0680    2.7990 O.3    40  DC40       -0.4373
    789  OP2      -27.1030   10.4090    0.6910 O.2    40  DC40       -0.5172
    790  O5'      -28.6450    8.6820    1.7200 O.3    40  DC40       -0.3114
    791  C5'      -29.2740    8.0890    2.8570 C.3    40  DC40        0.1811
    792  C4'      -30.5060    7.2990    2.4850 C.3    40  DC40        0.1746
    793  O4'      -31.4520    8.1150    1.7650 O.3    40  DC40       -0.3327
    794  C3'      -30.2050    6.1690    1.5390 C.3    40  DC40        0.1558
    795  O3'      -29.8370    5.0360    2.2550 O.3    40  DC40       -0.3138
    796  C2'      -31.5450    5.9430    0.8640 C.3    40  DC40        0.0866
    797  C1'      -32.0940    7.3520    0.7680 C.3    40  DC40        0.2106
    798  N1       -31.7310    7.8970   -0.6130 N.ar   40  DC40       -0.2556
    799  C2       -32.4580    7.4870   -1.7370 C.ar   40  DC40        0.3531
    800  O2       -33.3560    6.6400   -1.5910 O.2    40  DC40       -0.2443
    801  N3       -32.1610    8.0210   -2.9460 N.ar   40  DC40       -0.1739
    802  C4       -31.1880    8.9260   -3.0550 C.ar   40  DC40        0.1759
    803  N4       -30.9310    9.4240   -4.2660 N.pl3  40  DC40       -0.1070
    804  C5       -30.4400    9.3550   -1.9280 C.ar   40  DC40        0.0566
    805  C6       -30.7360    8.8250   -0.7370 C.ar   40  DC40        0.0849
    806  P        -29.1410    4.0570    1.4230 P.3    41  DT41        0.2141
    807  OP1      -28.8260    3.1630    2.5770 O.3    41  DT41       -0.4373
    808  OP2      -28.1390    5.0650    0.9490 O.2    41  DT41       -0.5172
    809  O5'      -29.6280    3.1570    0.1760 O.3    41  DT41       -0.3114
    810  C5'      -30.6900    2.1400    0.2310 C.3    41  DT41        0.1811
    811  C4'      -31.1960    1.8050   -1.1770 C.3    41  DT41        0.1746
    812  O4'      -31.8190    2.9630   -1.8100 O.3    41  DT41       -0.3327
    813  C3'      -30.1520    1.4050   -2.2060 C.3    41  DT41        0.1558
    814  O3'      -29.7760    0.0690   -2.0260 O.3    41  DT41       -0.3138
    815  C2'      -30.8890    1.6570   -3.5190 C.3    41  DT41        0.0866
    816  C1'      -31.6970    2.9060   -3.2120 C.3    41  DT41        0.2106
    817  N1       -31.0310    4.0950   -3.7290 N.ar   41  DT41       -0.2559
    818  C2       -31.1750    4.3430   -5.0810 C.ar   41  DT41        0.3545
    819  O2       -31.8600    3.6510   -5.8140 O.2    41  DT41       -0.2443
    820  N3       -30.4850    5.4350   -5.5480 N.ar   41  DT41       -0.1533
    821  C4       -29.6830    6.2840   -4.8150 C.ar   41  DT41        0.2804
    822  O4       -29.1270    7.2260   -5.3760 O.2    41  DT41       -0.2654
    823  C5       -29.5830    5.9600   -3.4200 C.ar   41  DT41        0.0534
    824  C6       -30.2440    4.9040   -2.9390 C.ar   41  DT41        0.0824
    825  C7       -28.7320    6.8250   -2.5380 C.3    41  DT41        0.0377
    826  P        -28.3370   -0.3410   -2.4370 P.3    42  DT42        0.2141
    827  OP1      -28.0220   -1.5640   -1.6560 O.3    42  DT42       -0.4373
    828  OP2      -27.5270    0.8850   -2.2380 O.2    42  DT42       -0.5172
    829  O5'      -28.2720   -0.7280   -3.9820 O.3    42  DT42       -0.3114
    830  C5'      -29.0170   -1.8300   -4.4820 C.3    42  DT42        0.1811
    831  C4'      -29.3040   -1.6480   -5.9550 C.3    42  DT42        0.1746
    832  O4'      -29.8600   -0.3230   -6.1910 O.3    42  DT42       -0.3327
    833  C3'      -28.1330   -1.6520   -6.9230 C.3    42  DT42        0.1558
    834  O3'      -27.6290   -2.9610   -7.1550 O.3    42  DT42       -0.3138
    835  C2'      -28.8110   -1.0930   -8.1590 C.3    42  DT42        0.0866
    836  C1'      -29.6080    0.0520   -7.5410 C.3    42  DT42        0.2106
    837  N1       -28.8440    1.2980   -7.4940 N.ar   42  DT42       -0.2559
    838  C2       -28.5500    1.9800   -8.6590 C.ar   42  DT42        0.3545
    839  O2       -28.8160    1.5480   -9.7670 O.2    42  DT42       -0.2443
    840  N3       -27.9280    3.1920   -8.4820 N.ar   42  DT42       -0.1533
    841  C4       -27.5790    3.7780   -7.2830 C.ar   42  DT42        0.2804
    842  O4       -27.0250    4.8750   -7.2840 O.2    42  DT42       -0.2654
    843  C5       -27.9160    3.0080   -6.1190 C.ar   42  DT42        0.0534
    844  C6       -28.5210    1.8260   -6.2630 C.ar   42  DT42        0.0824
    845  C7       -27.5760    3.5600   -4.7660 C.3    42  DT42        0.0377
    846  P        -26.0170   -3.1670   -7.7620 P.3    43  DA43        0.2141
    847  OP1      -24.7720   -3.9580   -7.8740 O.2    43  DA43       -0.5172
    848  OP2      -25.9390   -1.7080   -7.5310 O.3    43  DA43       -0.4373
    849  O5'      -26.8440   -3.3140   -9.1270 O.3    43  DA43       -0.3114
    850  C5'      -26.1610   -3.3940  -10.3720 C.3    43  DA43        0.1811
    851  C4'      -26.7630   -2.4940  -11.4270 C.3    43  DA43        0.1746
    852  O4'      -27.2730   -1.2870  -10.8070 O.3    43  DA43       -0.3327
    853  C3'      -25.8040   -2.0090  -12.5070 C.3    43  DA43        0.1558
    854  O3'      -25.7030   -2.9130  -13.5940 O.3    43  DA43       -0.3138
    855  C2'      -26.3570   -0.6450  -12.9090 C.3    43  DA43        0.0865
    856  C1'      -26.9880   -0.1580  -11.6040 C.3    43  DA43        0.2094
    857  N9       -26.0980    0.6000  -10.7030 N.ar   43  DA43       -0.2714
    858  C8       -25.8130    0.1820   -9.4290 C.ar   43  DA43        0.1815
    859  N7       -25.0750    1.0260   -8.7480 N.ar   43  DA43       -0.2193
    860  C5       -24.8590    2.0690   -9.6360 C.ar   43  DA43        0.1518
    861  C6       -24.1500    3.2770   -9.5210 C.ar   43  DA43        0.1919
    862  N6       -23.5010    3.6520   -8.4160 N.pl3  43  DA43       -0.1054
    863  N1       -24.1310    4.0970  -10.5940 N.ar   43  DA43       -0.2040
    864  C2       -24.7820    3.7210  -11.7010 C.ar   43  DA43        0.2016
    865  N3       -25.4830    2.6130  -11.9280 N.ar   43  DA43       -0.2048
    866  C4       -25.4820    1.8200  -10.8440 C.ar   43  DA43        0.1691
    867  P        -24.3020   -3.1410  -14.4580 P.3    44  DT44        0.2141
    868  OP1      -24.2530   -3.9290  -15.7100 O.2    44  DT44       -0.5172
    869  OP2      -23.5200   -3.5890  -13.2740 O.3    44  DT44       -0.4373
    870  O5'      -23.9460   -1.6300  -14.7910 O.3    44  DT44       -0.3114
    871  C5'      -24.7390   -0.8790  -15.7040 C.3    44  DT44        0.1811
    872  C4'      -24.1020    0.4580  -15.9430 C.3    44  DT44        0.1746
    873  O4'      -24.3930    1.3460  -14.8350 O.3    44  DT44       -0.3327
    874  C3'      -22.5920    0.4040  -15.9790 C.3    44  DT44        0.1558
    875  O3'      -22.0770   -0.0250  -17.2240 O.3    44  DT44       -0.3138
    876  C2'      -22.1890    1.8160  -15.5960 C.3    44  DT44        0.0866
    877  C1'      -23.2720    2.1800  -14.5800 C.3    44  DT44        0.2106
    878  N1       -22.8190    1.9650  -13.1950 N.ar   44  DT44       -0.2559
    879  C2       -22.0500    2.9390  -12.5850 C.ar   44  DT44        0.3545
    880  O2       -21.7030    3.9610  -13.1500 O.2    44  DT44       -0.2443
    881  N3       -21.6990    2.6720  -11.2840 N.ar   44  DT44       -0.1533
    882  C4       -22.0310    1.5550  -10.5470 C.ar   44  DT44        0.2804
    883  O4       -21.6420    1.4570   -9.3860 O.2    44  DT44       -0.2654
    884  C5       -22.8300    0.5900  -11.2500 C.ar   44  DT44        0.0534
    885  C6       -23.1850    0.8240  -12.5160 C.ar   44  DT44        0.0824
    886  C7       -23.2430   -0.6610  -10.5340 C.3    44  DT44        0.0377
    887  P        -20.6820   -0.9400  -17.2600 P.3    45  DT45        0.2141
    888  OP1      -20.7510   -1.5700  -18.6020 O.2    45  DT45       -0.5172
    889  OP2      -20.7460   -1.7850  -16.0410 O.3    45  DT45       -0.4373
    890  O5'      -19.3820   -0.0310  -17.1880 O.3    45  DT45       -0.3114
    891  C5'      -19.2530    1.0600  -18.0790 C.3    45  DT45        0.1811
    892  C4'      -18.6110    2.2420  -17.4020 C.3    45  DT45        0.1746
    893  O4'      -19.4080    2.7190  -16.2820 O.3    45  DT45       -0.3327
    894  C3'      -17.2610    2.0480  -16.7570 C.3    45  DT45        0.1558
    895  O3'      -16.2270    1.8910  -17.6900 O.3    45  DT45       -0.3138
    896  C2'      -17.1460    3.3060  -15.9230 C.3    45  DT45        0.0866
    897  C1'      -18.5620    3.4140  -15.3710 C.3    45  DT45        0.2106
    898  N1       -18.5810    2.8390  -14.0590 N.ar   45  DT45       -0.2559
    899  C2       -18.1400    3.5310  -12.9470 C.ar   45  DT45        0.3545
    900  O2       -17.5160    4.5750  -13.0180 O.2    45  DT45       -0.2443
    901  N3       -18.4580    2.9550  -11.7410 N.ar   45  DT45       -0.1533
    902  C4       -19.1560    1.7830  -11.5400 C.ar   45  DT45        0.2804
    903  O4       -19.3650    1.3920  -10.3940 O.2    45  DT45       -0.2654
    904  C5       -19.5780    1.1230  -12.7430 C.ar   45  DT45        0.0534
    905  C6       -19.2830    1.6610  -13.9290 C.ar   45  DT45        0.0824
    906  C7       -20.3440   -0.1610  -12.6290 C.3    45  DT45        0.0377
    907  P        -15.5100    0.7070  -17.5120 P.3    46  DC46        0.2141
    908  OP1      -14.7530    0.2480  -18.6980 O.2    46  DC46       -0.5172
    909  OP2      -16.1400   -0.2770  -16.5980 O.3    46  DC46       -0.4373
    910  O5'      -14.5670    1.5850  -16.5600 O.3    46  DC46       -0.3114
    911  C5'      -13.9630    2.7880  -17.0140 C.3    46  DC46        0.1811
    912  C4'      -13.2430    3.5040  -15.8970 C.3    46  DC46        0.1746
    913  O4'      -14.2060    4.0300  -14.9500 O.3    46  DC46       -0.3327
    914  C3'      -12.3080    2.6470  -15.0580 C.3    46  DC46        0.1558
    915  O3'      -11.0400    2.4760  -15.6670 O.3    46  DC46       -0.3138
    916  C2'      -12.2860    3.3590  -13.7070 C.3    46  DC46        0.0866
    917  C1'      -13.6950    3.9480  -13.6390 C.3    46  DC46        0.2106
    918  N1       -14.6430    3.1690  -12.8390 N.ar   46  DC46       -0.2556
    919  C2       -14.5400    3.3380  -11.4530 C.ar   46  DC46        0.3531
    920  O2       -13.8130    4.2450  -11.0140 O.2    46  DC46       -0.2443
    921  N3       -15.2340    2.5120  -10.6350 N.ar   46  DC46       -0.1739
    922  C4       -16.0010    1.5510  -11.1510 C.ar   46  DC46        0.1759
    923  N4       -16.6660    0.7600  -10.3050 N.pl3  46  DC46       -0.1070
    924  C5       -16.1190    1.3630  -12.5520 C.ar   46  DC46        0.0566
    925  C6       -15.4320    2.1820  -13.3570 C.ar   46  DC46        0.0849
    926  P         -9.6970    1.9960  -14.6990 P.3    47  DA47        0.2141
    927  OP1       -8.4590    2.3530  -15.4250 O.2    47  DA47       -0.5172
    928  OP2      -10.2010    0.6030  -14.7030 O.3    47  DA47       -0.4373
    929  O5'       -9.5140    2.4420  -13.1840 O.3    47  DA47       -0.3114
    930  C5'       -8.7180    3.5700  -12.8910 C.3    47  DA47        0.1811
    931  C4'       -9.0560    4.0560  -11.5030 C.3    47  DA47        0.1746
    932  O4'      -10.4610    3.8170  -11.2350 O.3    47  DA47       -0.3327
    933  C3'       -8.3980    3.2730  -10.3900 C.3    47  DA47        0.1558
    934  O3'       -7.0470    3.6310  -10.2610 O.3    47  DA47       -0.3138
    935  C2'       -9.2460    3.7320   -9.2150 C.3    47  DA47        0.0865
    936  C1'      -10.6310    3.5920   -9.8400 C.3    47  DA47        0.2094
    937  N9       -11.2420    2.2910   -9.6550 N.ar   47  DA47       -0.2714
    938  C8       -11.4770    1.3860  -10.6570 C.ar   47  DA47        0.1815
    939  N7       -12.2100    0.3640  -10.2850 N.ar   47  DA47       -0.2193
    940  C5       -12.4740    0.6140   -8.9470 C.ar   47  DA47        0.1518
    941  C6       -13.2040   -0.0960   -7.9780 C.ar   47  DA47        0.1919
    942  N6       -13.8280   -1.2510   -8.2220 N.pl3  47  DA47       -0.1054
    943  N1       -13.2710    0.4280   -6.7360 N.ar   47  DA47       -0.2040
    944  C2       -12.6460    1.5860   -6.4930 C.ar   47  DA47        0.2016
    945  N3       -11.9310    2.3450   -7.3200 N.ar   47  DA47       -0.2048
    946  C4       -11.8830    1.7970   -8.5450 C.ar   47  DA47        0.1691
    947  P         -6.1900    2.5430  -10.3290 P.3    48  DA48        0.2141
    948  OP1       -4.8910    3.1570  -10.6700 O.3    48  DA48       -0.4373
    949  OP2       -6.6290    1.2580  -10.9580 O.2    48  DA48       -0.5172
    950  O5'       -6.2460    2.2100   -8.7790 O.3    48  DA48       -0.3114
    951  C5'       -6.3100    3.2210   -7.8180 C.3    48  DA48        0.1811
    952  C4'       -7.0070    2.7190   -6.5750 C.3    48  DA48        0.1746
    953  O4'       -8.3900    2.3130   -6.8990 O.3    48  DA48       -0.3327
    954  C3'       -6.4450    1.4690   -5.8860 C.3    48  DA48        0.1558
    955  O3'       -5.2340    1.7660   -5.1620 O.3    48  DA48       -0.3138
    956  C2'       -7.6310    1.1480   -4.9690 C.3    48  DA48        0.0865
    957  C1'       -8.8230    1.3810   -5.9100 C.3    48  DA48        0.2094
    958  N9        -9.1990    0.1680   -6.5640 N.ar   48  DA48       -0.2714
    959  C8        -9.0130   -0.1230   -7.8900 C.ar   48  DA48        0.1815
    960  N7        -9.5630   -1.2540   -8.2650 N.ar   48  DA48       -0.2193
    961  C5       -10.1500   -1.7380   -7.1070 C.ar   48  DA48        0.1518
    962  C6       -10.8910   -2.9010   -6.8370 C.ar   48  DA48        0.1919
    963  N6       -11.1790   -3.8250   -7.7570 N.pl3  48  DA48       -0.1054
    964  N1       -11.3320   -3.0850   -5.5740 N.ar   48  DA48       -0.2040
    965  C2       -11.0430   -2.1590   -4.6530 C.ar   48  DA48        0.2016
    966  N3       -10.3570   -1.0260   -4.7850 N.ar   48  DA48       -0.2048
    967  C4        -9.9330   -0.8730   -6.0510 C.ar   48  DA48        0.1691
    968  P         -3.8770    0.6580   -5.1920 P.3    49  DT49        0.2141
    969  OP1       -2.6760    1.4410   -4.8040 O.3    49  DT49       -0.4373
    970  OP2       -3.8450   -0.1800   -6.4200 O.2    49  DT49       -0.5172
    971  O5'       -4.2970   -0.2850   -3.9720 O.3    49  DT49       -0.3114
    972  C5'       -4.4350    0.2540   -2.6550 C.3    49  DT49        0.1811
    973  C4'       -5.3090   -0.6340   -1.7980 C.3    49  DT49        0.1746
    974  O4'       -6.5950   -0.8210   -2.4400 O.3    49  DT49       -0.3327
    975  C3'       -4.8030   -2.0450   -1.5330 C.3    49  DT49        0.1558
    976  O3'       -3.9140   -2.0640   -0.4230 O.3    49  DT49       -0.3138
    977  C2'       -6.0830   -2.8180   -1.2260 C.3    49  DT49        0.0866
    978  C1'       -7.1290   -2.0740   -2.0580 C.3    49  DT49        0.2106
    979  N1        -7.4930   -2.7790   -3.2350 N.ar   49  DT49       -0.2559
    980  C2        -8.3370   -3.8680   -3.1370 C.ar   49  DT49        0.3545
    981  O2        -8.8210   -4.2400   -2.0820 O.2    49  DT49       -0.2443
    982  N3        -8.5950   -4.5120   -4.3220 N.ar   49  DT49       -0.1533
    983  C4        -8.1050   -4.1830   -5.5690 C.ar   49  DT49        0.2804
    984  O4        -8.4280   -4.8580   -6.5440 O.2    49  DT49       -0.2654
    985  C5        -7.2350   -3.0410   -5.5890 C.ar   49  DT49        0.0534
    986  C6        -6.9670   -2.3960   -4.4500 C.ar   49  DT49        0.0824
    987  C7        -6.6500   -2.6040   -6.8990 C.3    49  DT49        0.0377
    988  P         -2.8080   -3.4270   -0.1590 P.3    50  DT50        0.2141
    989  OP1       -1.9840   -3.0360    1.0060 O.3    50  DT50       -0.4373
    990  OP2       -2.1750   -3.6260   -1.4830 O.2    50  DT50       -0.5172
    991  O5'       -3.6410   -4.7340    0.2420 O.3    50  DT50       -0.3114
    992  C5'       -4.3650   -4.7300    1.4650 C.3    50  DT50        0.1811
    993  C4'       -5.2970   -5.9210    1.5650 C.3    50  DT50        0.1746
    994  O4'       -6.4540   -5.7340    0.7080 O.3    50  DT50       -0.3327
    995  C3'       -4.7330   -7.2440    1.0710 C.3    50  DT50        0.1558
    996  O3'       -3.7850   -7.8010    1.9740 O.3    50  DT50       -0.3138
    997  C2'       -6.0400   -8.0240    1.0000 C.3    50  DT50        0.0866
    998  C1'       -6.8710   -7.0030    0.2310 C.3    50  DT50        0.2106
    999  N1        -6.6670   -7.1200   -1.2980 N.ar   50  DT50       -0.2559
   1000  C2        -7.3890   -8.1120   -1.9340 C.ar   50  DT50        0.3545
   1001  O2        -8.0770   -8.9200   -1.3370 O.2    50  DT50       -0.2443
   1002  N3        -7.2740   -8.1260   -3.3030 N.ar   50  DT50       -0.1533
   1003  C4        -6.5270   -7.2670   -4.0820 C.ar   50  DT50        0.2804
   1004  O4        -6.5240   -7.4050   -5.3030 O.2    50  DT50       -0.2654
   1005  C5        -5.8060   -6.2660   -3.3480 C.ar   50  DT50        0.0534
   1006  C6        -5.9000   -6.2290   -2.0160 C.ar   50  DT50        0.0824
   1007  C7        -4.9630   -5.2840   -4.1060 C.3    50  DT50        0.0377
   1008  P         -2.5280   -8.4240    1.3890 P.3    51  DA51        0.2141
   1009  OP1       -1.8910   -8.6630    2.7150 O.3    51  DA51       -0.4373
   1010  OP2       -1.7790   -7.7110    0.3440 O.2    51  DA51       -0.5172
   1011  O5'       -3.0000   -9.8110    0.7580 O.3    51  DA51       -0.3114
   1012  C5'       -3.6630  -10.8020    1.5660 C.3    51  DA51        0.1811
   1013  C4'       -4.2960  -11.8560    0.6890 C.3    51  DA51        0.1746
   1014  O4'       -5.2380  -11.2250   -0.2170 O.3    51  DA51       -0.3327
   1015  C3'       -3.3680  -12.6250   -0.2390 C.3    51  DA51        0.1558
   1016  O3'       -2.7030  -13.6720    0.4720 O.3    51  DA51       -0.3138
   1017  C2'       -4.3440  -13.1440   -1.2890 C.3    51  DA51        0.0865
   1018  C1'       -5.2890  -11.9480   -1.4350 C.3    51  DA51        0.2094
   1019  N9        -4.9570  -11.0360   -2.5100 N.ar   51  DA51       -0.2714
   1020  C8        -4.4300   -9.7780   -2.3780 C.ar   51  DA51        0.1815
   1021  N7        -4.2760   -9.1470   -3.5180 N.ar   51  DA51       -0.2193
   1022  C5        -4.7310  -10.0530   -4.4630 C.ar   51  DA51        0.1518
   1023  C6        -4.8310   -9.9880   -5.8630 C.ar   51  DA51        0.1919
   1024  N6        -4.4640   -8.9250   -6.5830 N.pl3  51  DA51       -0.1054
   1025  N1        -5.3280  -11.0660   -6.5060 N.ar   51  DA51       -0.2040
   1026  C2        -5.6970  -12.1310   -5.7840 C.ar   51  DA51        0.2016
   1027  N3        -5.6510  -12.3090   -4.4660 N.ar   51  DA51       -0.2048
   1028  C4        -5.1520  -11.2210   -3.8570 C.ar   51  DA51        0.1691
   1029  P         -1.4970  -14.5540   -0.1820 P.3    52  DC52        0.2141
   1030  OP1       -1.1670  -15.6870    0.6990 O.3    52  DC52       -0.4373
   1031  OP2       -0.5200  -13.4720   -0.3850 O.2    52  DC52       -0.5172
   1032  O5'       -1.8780  -15.1300   -1.6260 O.3    52  DC52       -0.3114
   1033  C5'       -2.7500  -16.2380   -1.7090 C.3    52  DC52        0.1811
   1034  C4'       -3.1080  -16.5570   -3.1450 C.3    52  DC52        0.1746
   1035  O4'       -3.5000  -15.3740   -3.8720 O.3    52  DC52       -0.3327
   1036  C3'       -1.9810  -17.1310   -3.9650 C.3    52  DC52        0.1558
   1037  O3'       -1.8410  -18.5030   -3.7170 O.3    52  DC52       -0.3138
   1038  C2'       -2.4810  -16.8850   -5.3690 C.3    52  DC52        0.0866
   1039  C1'       -3.1180  -15.5160   -5.2270 C.3    52  DC52        0.2106
   1040  N1        -2.1270  -14.3870   -5.6640 N.ar   52  DC52       -0.2556
   1041  C2        -1.7540  -14.3000   -7.0100 C.ar   52  DC52        0.3531
   1042  O2        -2.1240  -15.1930   -7.7910 O.2    52  DC52       -0.2443
   1043  N3        -1.0030  -13.2500   -7.4200 N.ar   52  DC52       -0.1739
   1044  C4        -0.6280  -12.3160   -6.5450 C.ar   52  DC52        0.1759
   1045  N4         0.1110  -11.3000   -6.9960 N.pl3  52  DC52       -0.1070
   1046  C5        -0.9960  -12.3860   -5.1770 C.ar   52  DC52        0.0566
   1047  C6        -1.7370  -13.4240   -4.7760 C.ar   52  DC52        0.0849
   1048  P         -0.4140  -18.9600   -3.2380 P.3    53  DG53        0.2141
   1049  OP1       -0.5650  -20.4350   -3.1730 O.2    53  DG53       -0.5172
   1050  OP2        0.0410  -18.2070   -2.0370 O.3    53  DG53       -0.4373
   1051  O5'        0.5510  -18.5830   -4.4380 O.3    53  DG53       -0.3114
   1052  C5'        0.3180  -19.1160   -5.7410 C.3    53  DG53        0.1811
   1053  C4'        1.2430  -18.4720   -6.7270 C.3    53  DG53        0.1746
   1054  O4'        0.9750  -17.0470   -6.7590 O.3    53  DG53       -0.3327
   1055  C3'        2.7220  -18.5540   -6.3930 C.3    53  DG53        0.1558
   1056  O3'        3.3090  -19.7920   -6.7750 O.3    53  DG53       -0.3138
   1057  C2'        3.3030  -17.3690   -7.1550 C.3    53  DG53        0.0865
   1058  C1'        2.1760  -16.3440   -7.0280 C.3    53  DG53        0.2094
   1059  N9         2.4000  -15.4030   -5.9670 N.ar   53  DG53       -0.2713
   1060  C8         1.7480  -15.3470   -4.7590 C.ar   53  DG53        0.1816
   1061  N7         2.2170  -14.4270   -3.9610 N.ar   53  DG53       -0.2173
   1062  C5         3.2380  -13.8370   -4.6820 C.ar   53  DG53        0.1748
   1063  C6         4.1180  -12.7770   -4.3390 C.ar   53  DG53        0.3023
   1064  O6         4.1620  -12.1290   -3.2860 O.2    53  DG53       -0.2633
   1065  N1         5.0120  -12.4900   -5.3670 N.ar   53  DG53       -0.1709
   1066  C2         5.0540  -13.1420   -6.5760 C.ar   53  DG53        0.2606
   1067  N2         5.9860  -12.7230   -7.4420 N.pl3  53  DG53       -0.0859
   1068  N3         4.2440  -14.1290   -6.9080 N.ar   53  DG53       -0.1918
   1069  C4         3.3680  -14.4260   -5.9250 C.ar   53  DG53        0.1722
   1070  P          4.9960  -20.4830   -5.9750 P.3    54  DT54        0.2141
   1071  OP1        5.2900  -21.7450   -6.6740 O.2    54  DT54       -0.5172
   1072  OP2        4.6310  -20.4530   -4.5460 O.3    54  DT54       -0.4373
   1073  O5'        6.2190  -19.5140   -6.0920 O.3    54  DT54       -0.3114
   1074  C5'        6.9040  -19.3560   -7.3210 C.3    54  DT54        0.1811
   1075  C4'        7.8750  -18.2100   -7.2140 C.3    54  DT54        0.1746
   1076  O4'        7.2090  -16.9230   -7.1140 O.3    54  DT54       -0.3327
   1077  C3'        8.7170  -18.2660   -5.9710 C.3    54  DT54        0.1558
   1078  O3'        9.8890  -19.1180   -6.0630 O.3    54  DT54       -0.3138
   1079  C2'        9.1730  -16.8280   -5.9060 C.3    54  DT54        0.0866
   1080  C1'        7.9300  -16.0430   -6.2890 C.3    54  DT54        0.2106
   1081  N1         7.0630  -15.6380   -5.1390 N.ar   54  DT54       -0.2559
   1082  C2         7.5020  -14.5270   -4.4450 C.ar   54  DT54        0.3545
   1083  O2         8.5060  -13.9080   -4.7480 O.2    54  DT54       -0.2443
   1084  N3         6.7200  -14.1650   -3.3740 N.ar   54  DT54       -0.1533
   1085  C4         5.5690  -14.7880   -2.9390 C.ar   54  DT54        0.2804
   1086  O4         4.9740  -14.3430   -1.9600 O.2    54  DT54       -0.2654
   1087  C5         5.1790  -15.9340   -3.7110 C.ar   54  DT54        0.0534
   1088  C6         5.9210  -16.3080   -4.7570 C.ar   54  DT54        0.0824
   1089  C7         3.9400  -16.6810   -3.3160 C.3    54  DT54        0.0377
   1090  P         10.5900  -19.8510   -4.6740 P.3    55  DC55        0.2141
   1091  OP1       11.3300  -21.1260   -4.8410 O.2    55  DC55       -0.5172
   1092  OP2        9.2960  -19.8550   -3.9420 O.3    55  DC55       -0.4373
   1093  O5'       11.5740  -18.8000   -3.9970 O.3    55  DC55       -0.3114
   1094  C5'       12.6480  -18.2360   -4.7520 C.3    55  DC55        0.1811
   1095  C4'       13.3910  -17.2370   -3.9150 C.3    55  DC55        0.1746
   1096  O4'       12.5860  -16.0590   -3.7510 O.3    55  DC55       -0.3327
   1097  C3'       13.6970  -17.7100   -2.5070 C.3    55  DC55        0.1558
   1098  O3'       14.9450  -18.3800   -2.4940 O.3    55  DC55       -0.3138
   1099  C2'       13.7850  -16.4150   -1.7210 C.3    55  DC55        0.0866
   1100  C1'       12.7990  -15.5220   -2.4690 C.3    55  DC55        0.2106
   1101  N1        11.2470  -15.4670   -2.0030 N.ar   55  DC55       -0.2556
   1102  C2        10.8870  -14.3540   -1.2350 C.ar   55  DC55        0.3531
   1103  O2        11.6050  -13.3400   -1.2790 O.2    55  DC55       -0.2443
   1104  N3         9.7720  -14.4140   -0.4690 N.ar   55  DC55       -0.1739
   1105  C4         9.0330  -15.5240   -0.4530 C.ar   55  DC55        0.1759
   1106  N4         7.9430  -15.5370    0.3180 N.pl3  55  DC55       -0.1070
   1107  C5         9.3810  -16.6630   -1.2240 C.ar   55  DC55        0.0566
   1108  C6        10.4820  -16.5990   -1.9790 C.ar   55  DC55        0.0849
   1109  P         15.1930  -19.3570   -1.0460 P.3    56  DT56        0.2141
   1110  OP1       14.0670  -20.2700   -0.7440 O.2    56  DT56       -0.5172
   1111  OP2       15.7150  -18.4420   -0.0070 O.3    56  DT56       -0.4373
   1112  O5'       16.4670  -20.2090   -1.4990 O.3    56  DT56       -0.3114
   1113  C5'       16.4870  -20.7240   -2.8240 C.3    56  DT56        0.1811
   1114  C4'       17.8790  -21.1110   -3.2530 C.3    56  DT56        0.1746
   1115  O4'       18.5960  -19.9480   -3.7300 O.3    56  DT56       -0.3327
   1116  C3'       18.7520  -21.6910   -2.1560 C.3    56  DT56        0.1558
   1117  O3'       18.5010  -23.0750   -1.9900 O.3    56  DT56       -0.3138
   1118  C2'       20.1680  -21.3370   -2.6030 C.3    56  DT56        0.0866
   1119  C1'       19.9480  -20.0150   -3.3400 C.3    56  DT56        0.2106
   1120  N1        20.2610  -18.8170   -2.5310 N.ar   56  DT56       -0.2559
   1121  C2        21.5910  -18.4420   -2.4990 C.ar   56  DT56        0.3545
   1122  O2        22.4510  -18.9880   -3.1670 O.2    56  DT56       -0.2443
   1123  N3        21.8800  -17.3980   -1.6530 N.ar   56  DT56       -0.1533
   1124  C4        20.9930  -16.7090   -0.8530 C.ar   56  DT56        0.2804
   1125  O4        21.4030  -15.7920   -0.1460 O.2    56  DT56       -0.2654
   1126  C5        19.6320  -17.1590   -0.9410 C.ar   56  DT56        0.0534
   1127  C6        19.3230  -18.1710   -1.7560 C.ar   56  DT56        0.0824
   1128  C7        18.5910  -16.4720   -0.1080 C.3    56  DT56        0.0377
   1129  P         19.3370  -24.0280   -0.9610 P.3    57  DG57        0.2141
   1130  OP1       18.9730  -25.4010   -1.3780 O.2    57  DG57       -0.5172
   1131  OP2       18.9460  -23.5340    0.3790 O.3    57  DG57       -0.4373
   1132  O5'       20.9320  -23.8680   -1.0020 O.3    57  DG57       -0.3114
   1133  C5'       21.6850  -24.6150   -1.9470 C.3    57  DG57        0.1811
   1134  C4'       23.1420  -24.2140   -2.0150 C.3    57  DG57        0.1746
   1135  O4'       23.2780  -22.7880   -2.2650 O.3    57  DG57       -0.3327
   1136  C3'       23.9910  -24.4180   -0.7680 C.3    57  DG57        0.1558
   1137  O3'       24.3430  -25.7670   -0.5120 O.3    57  DG57       -0.3138
   1138  C2'       25.1880  -23.5330   -1.0830 C.3    57  DG57        0.0865
   1139  C1'       24.4940  -22.3240   -1.7080 C.3    57  DG57        0.2094
   1140  N9        24.2350  -21.2440   -0.7220 N.ar   57  DG57       -0.2713
   1141  C8        23.0920  -21.0310    0.0090 C.ar   57  DG57        0.1816
   1142  N7        23.1800  -20.0100    0.8170 N.ar   57  DG57       -0.2173
   1143  C5        24.4540  -19.5160    0.6080 C.ar   57  DG57        0.1748
   1144  C6        25.1260  -18.4160    1.1990 C.ar   57  DG57        0.3023
   1145  O6        24.7040  -17.6320    2.0590 O.2    57  DG57       -0.2633
   1146  N1        26.4160  -18.2640    0.6990 N.ar   57  DG57       -0.1709
   1147  C2        26.9880  -19.0720   -0.2540 C.ar   57  DG57        0.2606
   1148  N2        28.2430  -18.7680   -0.6120 N.pl3  57  DG57       -0.0859
   1149  N3        26.3770  -20.0980   -0.8120 N.ar   57  DG57       -0.1918
   1150  C4        25.1230  -20.2650   -0.3410 C.ar   57  DG57        0.1722
   1151  P         24.8670  -26.2160    1.0120 P.3    58  DC58        0.2141
   1152  OP1       25.0240  -27.6730    0.7520 O.2    58  DC58       -0.5172
   1153  OP2       23.8480  -25.7600    1.9910 O.3    58  DC58       -0.4373
   1154  O5'       26.2930  -25.6070    1.4160 O.3    58  DC58       -0.3114
   1155  C5'       27.4820  -26.0730    0.7770 C.3    58  DC58        0.1811
   1156  C4'       28.6720  -25.1540    1.0330 C.3    58  DC58        0.1746
   1157  O4'       28.3260  -23.7830    0.6700 O.3    58  DC58       -0.3327
   1158  C3'       29.1780  -25.0250    2.4710 C.3    58  DC58        0.1558
   1159  O3'       30.0230  -26.1090    2.8800 O.3    58  DC58       -0.3138
   1160  C2'       29.9160  -23.6890    2.4320 C.3    58  DC58        0.0866
   1161  C1'       29.0070  -22.8710    1.5240 C.3    58  DC58        0.2106
   1162  N1        28.1030  -22.1450    2.2920 N.ar   58  DC58       -0.2556
   1163  C2        28.4810  -20.9600    2.9340 C.ar   58  DC58        0.3531
   1164  O2        29.6640  -20.5880    2.8530 O.2    58  DC58       -0.2443
   1165  N3        27.5500  -20.2580    3.6230 N.ar   58  DC58       -0.1739
   1166  C4        26.2920  -20.6970    3.6840 C.ar   58  DC58        0.1759
   1167  N4        25.4100  -19.9710    4.3740 N.pl3  58  DC58       -0.1070
   1168  C5        25.8890  -21.8950    3.0400 C.ar   58  DC58        0.0566
   1169  C6        26.8110  -22.5860    2.3610 C.ar   58  DC58        0.0849
   1170  P         30.3900  -26.3140    4.3880 P.3    59  DA59        0.2141
   1171  OP1       31.2520  -27.4760    4.0930 O.2    59  DA59       -0.5172
   1172  OP2       29.1720  -26.4300    5.2110 O.3    59  DA59       -0.4373
   1173  O5'       31.3450  -25.2550    5.0680 O.3    59  DA59       -0.3114
   1174  C5'       32.6020  -25.0390    4.4990 C.3    59  DA59        0.1811
   1175  C4'       32.9870  -23.6460    4.8970 C.3    59  DA59        0.1746
   1176  O4'       32.0020  -22.6870    4.4350 O.3    59  DA59       -0.3327
   1177  C3'       33.0060  -23.4110    6.4020 C.3    59  DA59        0.1558
   1178  O3'       34.0880  -24.1460    6.9770 O.3    59  DA59       -0.3138
   1179  C2'       33.1600  -21.9000    6.3540 C.3    59  DA59        0.0865
   1180  C1'       32.0830  -21.5750    5.3030 C.3    59  DA59        0.2094
   1181  N9        30.6510  -21.4120    5.8500 N.ar   59  DA59       -0.2714
   1182  C8        29.5860  -22.2450    5.6270 C.ar   59  DA59        0.1815
   1183  N7        28.4700  -21.8370    6.1830 N.ar   59  DA59       -0.2193
   1184  C5        28.8270  -20.6570    6.8160 C.ar   59  DA59        0.1518
   1185  C6        28.0930  -19.7360    7.5850 C.ar   59  DA59        0.1919
   1186  N6        26.7930  -19.8690    7.8550 N.pl3  59  DA59       -0.1054
   1187  N1        28.7500  -18.6620    8.0720 N.ar   59  DA59       -0.2040
   1188  C2        30.0530  -18.5290    7.7990 C.ar   59  DA59        0.2016
   1189  N3        30.8500  -19.3250    7.0890 N.ar   59  DA59       -0.2048
   1190  C4        30.1670  -20.3830    6.6210 C.ar   59  DA59        0.1691
   1191  P         34.3720  -24.3270    8.7840 P.3    60  DC60        0.2141
   1192  OP1       35.4680  -25.2710    8.4820 O.2    60  DC60       -0.5172
   1193  OP2       33.0510  -24.8460    9.2090 O.3    60  DC60       -0.4373
   1194  O5'       34.8720  -23.3230    9.9130 O.3    60  DC60       -0.3114
   1195  C5'       36.0500  -22.5480    9.7150 C.3    60  DC60        0.1811
   1196  C4'       35.7520  -21.0760    9.8920 C.3    60  DC60        0.1746
   1197  O4'       34.5210  -20.7350    9.2040 O.3    60  DC60       -0.3327
   1198  C3'       35.5180  -20.5760   11.3050 C.3    60  DC60        0.1558
   1199  O3'       36.7680  -20.3610   11.9420 O.3    60  DC60       -0.3138
   1200  C2'       34.7970  -19.2630   11.0430 C.3    60  DC60        0.0866
   1201  C1'       33.9000  -19.6460    9.8650 C.3    60  DC60        0.2106
   1202  N1        32.4640  -20.0560   10.2220 N.ar   60  DC60       -0.2556
   1203  C2        31.5380  -19.1500   10.7510 C.ar   60  DC60        0.3531
   1204  O2        31.9030  -17.9820   10.9700 O.2    60  DC60       -0.2443
   1205  N3        30.2770  -19.5700   11.0100 N.ar   60  DC60       -0.1739
   1206  C4        29.9310  -20.8340   10.7610 C.ar   60  DC60        0.1759
   1207  N4        28.6770  -21.2030   11.0320 N.pl3  60  DC60       -0.1070
   1208  C5        30.8540  -21.7680   10.2250 C.ar   60  DC60        0.0566
   1209  C6        32.0980  -21.3480    9.9710 C.ar   60  DC60        0.0849
   1210  P         36.7590  -20.3120   13.1590 P.3    61  DA61        0.2141
   1211  OP1       38.1530  -19.9810   13.5590 O.3    61  DA61       -0.4373
   1212  OP2       36.1910  -21.6600   13.4880 O.2    61  DA61       -0.5172
   1213  O5'       35.7930  -19.1820   13.7160 O.3    61  DA61       -0.3114
   1214  C5'       36.2290  -17.8460   13.6670 C.3    61  DA61        0.1812
   1215  C4'       35.1790  -16.9300   14.2100 C.3    61  DA61        0.1772
   1216  O4'       33.9940  -17.0560   13.3790 O.3    61  DA61       -0.3348
   1217  C3'       34.6520  -17.3060   15.5840 C.3    61  DA61        0.1857
   1218  O3'       35.4730  -16.8760   16.6460 O.3    61  DA61       -0.2203
   1219  C2'       33.3100  -16.6040   15.6070 C.3    61  DA61        0.0864
   1220  C1'       32.8410  -16.8580   14.1830 C.3    61  DA61        0.1975
   1221  N9        31.9700  -18.0620   14.1510 N.pl3  61  DA61       -0.2458
   1222  C8        32.3290  -19.3560   13.8740 C.2    61  DA61        0.1669
   1223  N7        31.3350  -20.2080   13.9480 N.2    61  DA61       -0.2209
   1224  C5        30.2490  -19.4220   14.2980 C.2    61  DA61        0.1902
   1225  C6        28.8960  -19.7270   14.5320 C.2    61  DA61        0.4251
   1226  N6        28.3900  -20.9590   14.4430 N.pl3  61  DA61        0.2155
   1227  N1        28.0730  -18.7090   14.8650 N.pl3  61  DA61        0.0229
   1228  C2        28.5810  -17.4750   14.9530 C.2    61  DA61        0.3241
   1229  N3        29.8320  -17.0640   14.7560 N.2    61  DA61       -0.2026
   1230  C4        30.6250  -18.0980   14.4280 C.3    61  DA61        0.2332
   1231  P         35.4920  -17.8130   18.1670 P.3    62  DT62        0.5411
   1232  OP1       36.1370  -17.1190   19.3140 O.2    62  DT62       -0.2272
   1233  OP2       35.0390  -19.2140   18.3330 O.2    62  DT62       -0.2272
   1234  O5'       34.2400  -16.9570   17.6770 O.3    62  DT62       -0.2722
   1235  C5'       34.3330  -15.5340   17.4650 C.3    62  DT62        0.1850
   1236  C4'       33.1000  -14.8500   18.0090 C.3    62  DT62        0.1748
   1237  O4'       31.9260  -15.3970   17.3470 O.3    62  DT62       -0.3327
   1238  C3'       32.8630  -15.0520   19.5020 C.3    62  DT62        0.1558
   1239  O3'       32.1910  -13.9190   20.0330 O.3    62  DT62       -0.3138
   1240  C2'       31.9560  -16.2750   19.5280 C.3    62  DT62        0.0866
   1241  C1'       31.0920  -16.0380   18.2930 C.3    62  DT62        0.2106
   1242  N1        30.4890  -17.2460   17.8230 N.ar   62  DT62       -0.2559
   1243  C2        29.1430  -17.2960   17.5140 C.ar   62  DT62        0.3545
   1244  O2        28.4190  -16.3170   17.5370 O.2    62  DT62       -0.2443
   1245  N3        28.6700  -18.5420   17.1770 N.ar   62  DT62       -0.1533
   1246  C4        29.3920  -19.7150   17.1190 C.ar   62  DT62        0.2804
   1247  O4        28.8280  -20.7580   16.7970 O.2    62  DT62       -0.2654
   1248  C5        30.7820  -19.5810   17.4540 C.ar   62  DT62        0.0534
   1249  C6        31.2680  -18.3820   17.7860 C.ar   62  DT62        0.0824
   1250  C7        31.6520  -20.8020   17.4210 C.3    62  DT62        0.0377
   1251  P         32.9060  -13.0860   21.0570 P.3    63  DA63        0.2141
   1252  OP1       34.0010  -13.1350   22.0590 O.3    63  DA63       -0.4373
   1253  OP2       31.5070  -13.3290   21.4910 O.2    63  DA63       -0.5172
   1254  O5'       32.9710  -11.6820   20.3100 O.3    63  DA63       -0.3114
   1255  C5'       34.1770  -11.2550   19.6920 C.3    63  DA63        0.1811
   1256  C4'       33.9880   -9.9210   19.0150 C.3    63  DA63        0.1746
   1257  O4'       32.8900  -10.0290   18.0730 O.3    63  DA63       -0.3327
   1258  C3'       33.5880   -8.8250   19.9980 C.3    63  DA63        0.1558
   1259  O3'       34.4180   -7.6680   19.9300 O.3    63  DA63       -0.3138
   1260  C2'       32.0700   -8.6900   19.9000 C.3    63  DA63        0.0865
   1261  C1'       31.8040   -9.2430   18.5060 C.3    63  DA63        0.2094
   1262  N9        30.5980   -9.8910   18.4130 N.ar   63  DA63       -0.2714
   1263  C8        30.2810  -10.7900   19.3970 C.ar   63  DA63        0.1815
   1264  N7        28.9910  -10.9960   19.5290 N.ar   63  DA63       -0.2193
   1265  C5        28.4240  -10.1760   18.5670 C.ar   63  DA63        0.1518
   1266  C6        27.0900   -9.9360   18.1950 C.ar   63  DA63        0.1919
   1267  N6        26.0430  -10.5280   18.7760 N.pl3  63  DA63       -0.1054
   1268  N1        26.8660   -9.0570   17.1950 N.ar   63  DA63       -0.2040
   1269  C2        27.9150   -8.4650   16.6130 C.ar   63  DA63        0.2016
   1270  N3        29.2120   -8.6100   16.8730 N.ar   63  DA63       -0.2048
   1271  C4        29.4010   -9.4880   17.8720 C.ar   63  DA63        0.1691
   1272  P         33.6720   -6.8190   20.7080 P.3    64  DC64        0.2141
   1273  OP1       32.9630   -6.2630   21.8900 O.3    64  DC64       -0.4373
   1274  OP2       33.4850   -6.1880   19.3830 O.2    64  DC64       -0.5172
   1275  O5'       35.2350   -6.8740   20.9760 O.3    64  DC64       -0.3114
   1276  C5'       35.9440   -5.6780   21.0610 C.3    64  DC64        0.1811
   1277  C4'       37.1890   -5.7270   20.2270 C.3    64  DC64        0.1746
   1278  O4'       37.0850   -6.5610   19.0330 O.3    64  DC64       -0.3327
   1279  C3'       37.4830   -4.3640   19.6570 C.3    64  DC64        0.1558
   1280  O3'       37.8670   -3.4390   20.6430 O.3    64  DC64       -0.3138
   1281  C2'       38.4600   -4.6770   18.5360 C.3    64  DC64        0.0866
   1282  C1'       37.8670   -5.9790   17.9820 C.3    64  DC64        0.2106
   1283  N1        36.9590   -5.7260   16.8010 N.ar   64  DC64       -0.2556
   1284  C2        37.4730   -5.3560   15.5520 C.ar   64  DC64        0.3531
   1285  O2        38.6710   -5.0370   15.4700 O.2    64  DC64       -0.2443
   1286  N3        36.6510   -5.3570   14.4750 N.ar   64  DC64       -0.1739
   1287  C4        35.3720   -5.7060   14.6120 C.ar   64  DC64        0.1759
   1288  N4        34.6000   -5.6910   13.5220 N.pl3  64  DC64       -0.1070
   1289  C5        34.8320   -6.0840   15.8680 C.ar   64  DC64        0.0566
   1290  C6        35.6460   -6.0820   16.9290 C.ar   64  DC64        0.0849
   1291  P         37.1470   -1.9610   20.6550 P.3    65  DC65        0.2141
   1292  OP1       37.4330   -1.5150   22.0450 O.3    65  DC65       -0.4373
   1293  OP2       35.7340   -2.0910   20.2010 O.2    65  DC65       -0.5172
   1294  O5'       37.9290   -0.9980   19.6520 O.3    65  DC65       -0.3114
   1295  C5'       39.3380   -0.8310   19.7720 C.3    65  DC65        0.1811
   1296  C4'       39.9720   -0.6340   18.4140 C.3    65  DC65        0.1746
   1297  O4'       39.4320   -1.6210   17.4960 O.3    65  DC65       -0.3327
   1298  C3'       39.6570    0.6930   17.7380 C.3    65  DC65        0.1558
   1299  O3'       40.5710    1.6850   18.1920 O.3    65  DC65       -0.3138
   1300  C2'       39.8670    0.3700   16.2620 C.3    65  DC65        0.0866
   1301  C1'       39.3690   -1.0720   16.1930 C.3    65  DC65        0.2106
   1302  N1        38.0680   -1.2560   15.7500 N.ar   65  DC65       -0.2556
   1303  C2        37.7140   -0.9830   14.4240 C.ar   65  DC65        0.3531
   1304  O2        38.6080   -0.6750   13.6180 O.2    65  DC65       -0.2443
   1305  N3        36.4120   -1.0630   14.0590 N.ar   65  DC65       -0.1739
   1306  C4        35.4860   -1.3970   14.9590 C.ar   65  DC65        0.1759
   1307  N4        34.2160   -1.4630   14.5530 N.pl3  65  DC65       -0.1070
   1308  C5        35.8240   -1.6770   16.3070 C.ar   65  DC65        0.0566
   1309  C6        37.1110   -1.5970   16.6640 C.ar   65  DC65        0.0849
   1310  P         40.3910    3.2760   17.6670 P.3    66  DA66        0.2141
   1311  OP1       41.5730    4.0700   18.0840 O.3    66  DA66       -0.4373
   1312  OP2       39.0290    3.7520   18.0460 O.2    66  DA66       -0.5172
   1313  O5'       40.4640    3.0930   16.0690 O.3    66  DA66       -0.3114
   1314  C5'       41.7070    3.1740   15.3860 C.3    66  DA66        0.1811
   1315  C4'       41.4720    3.1530   13.8990 C.3    66  DA66        0.1746
   1316  O4'       40.6100    2.0430   13.5630 O.3    66  DA66       -0.3327
   1317  C3'       40.7120    4.3440   13.3480 C.3    66  DA66        0.1558
   1318  O3'       41.5340    5.4360   13.1500 O.3    66  DA66       -0.3138
   1319  C2'       40.1900    3.7960   12.0400 C.3    66  DA66        0.0865
   1320  C1'       39.7040    2.4480   12.5350 C.3    66  DA66        0.2094
   1321  N9        38.3540    2.4540   13.0390 N.ar   66  DA66       -0.2714
   1322  C8        38.0290    2.1820   14.3420 C.ar   66  DA66        0.1815
   1323  N7        36.7410    2.0360   14.5460 N.ar   66  DA66       -0.2193
   1324  C5        36.1830    2.2270   13.2920 C.ar   66  DA66        0.1518
   1325  C6        34.8540    2.2020   12.8340 C.ar   66  DA66        0.1919
   1326  N6        33.8040    1.9640   13.6240 N.pl3  66  DA66       -0.1054
   1327  N1        34.6390    2.4330   11.5210 N.ar   66  DA66       -0.2040
   1328  C2        35.6910    2.6710   10.7300 C.ar   66  DA66        0.2016
   1329  N3        36.9840    2.7190   11.0430 N.ar   66  DA66       -0.2048
   1330  C4        37.1640    2.4860   12.3540 C.ar   66  DA66        0.1691
   1331  P         40.9480    6.4550   13.3560 P.3    67  DG67        0.2141
   1332  OP1       42.0550    7.1460   14.0580 O.3    67  DG67       -0.4373
   1333  OP2       39.5400    6.7500   13.7030 O.2    67  DG67       -0.5172
   1334  O5'       41.0410    6.7450   11.7820 O.3    67  DG67       -0.3114
   1335  C5'       40.2700    7.7640   11.1600 C.3    67  DG67        0.1811
   1336  C4'       39.5810    7.2450    9.9210 C.3    67  DG67        0.1746
   1337  O4'       38.9750    5.9590   10.2200 O.3    67  DG67       -0.3327
   1338  C3'       38.4190    8.0780    9.3970 C.3    67  DG67        0.1558
   1339  O3'       38.8050    9.1980    8.6180 O.3    67  DG67       -0.3138
   1340  C2'       37.6090    7.0380    8.6330 C.3    67  DG67        0.0865
   1341  C1'       37.7090    5.8620    9.6000 C.3    67  DG67        0.2094
   1342  N9        36.6800    5.8580   10.7000 N.ar   67  DG67       -0.2713
   1343  C8        36.9550    5.8860   12.0460 C.ar   67  DG67        0.1816
   1344  N7        35.8980    5.7110   12.7910 N.ar   67  DG67       -0.2173
   1345  C5        34.8630    5.5550   11.8870 C.ar   67  DG67        0.1748
   1346  C6        33.4780    5.3340   12.0990 C.ar   67  DG67        0.3023
   1347  O6        32.8750    5.2280   13.1750 O.2    67  DG67       -0.2633
   1348  N1        32.7770    5.2350   10.9010 N.ar   67  DG67       -0.1709
   1349  C2        33.3410    5.3370    9.6520 C.ar   67  DG67        0.2606
   1350  N2        32.5040    5.2140    8.6130 N.pl3  67  DG67       -0.0859
   1351  N3        34.6260    5.5420    9.4390 N.ar   67  DG67       -0.1918
   1352  C4        35.3260    5.6420   10.5890 C.ar   67  DG67        0.1722
   1353  P         38.0020   10.4660    8.7730 P.3    68  DC68        0.2141
   1354  OP1       38.6050   11.4590    7.8580 O.2    68  DC68       -0.5172
   1355  OP2       37.9860   10.7300   10.2310 O.3    68  DC68       -0.4373
   1356  O5'       36.5120   10.1460    8.2800 O.3    68  DC68       -0.3114
   1357  C5'       36.1740   10.2800    6.9120 C.3    68  DC68        0.1811
   1358  C4'       34.6770   10.1340    6.7300 C.3    68  DC68        0.1746
   1359  O4'       34.2310    8.8630    7.2680 O.3    68  DC68       -0.3327
   1360  C3'       33.8170   11.1390    7.4810 C.3    68  DC68        0.1558
   1361  O3'       33.7560   12.3610    6.7900 O.3    68  DC68       -0.3138
   1362  C2'       32.4810   10.4240    7.4070 C.3    68  DC68        0.0866
   1363  C1'       32.9250    9.0240    7.8010 C.3    68  DC68        0.2106
   1364  N1        32.9810    8.7700    9.2610 N.ar   68  DC68       -0.2556
   1365  C2        31.8340    8.3150    9.9210 C.ar   68  DC68        0.3531
   1366  O2        30.8080    8.0960    9.2540 O.2    68  DC68       -0.2443
   1367  N3        31.8740    8.1280   11.2610 N.ar   68  DC68       -0.1739
   1368  C4        32.9970    8.3770   11.9360 C.ar   68  DC68        0.1759
   1369  N4        32.9900    8.1780   13.2560 N.pl3  68  DC68       -0.1070
   1370  C5        34.1700    8.8390   11.2860 C.ar   68  DC68        0.0566
   1371  C6        34.1260    9.0220    9.9620 C.ar   68  DC68        0.0849
   1372  P         33.8070   13.6720    7.6450 P.3    69  DT69        0.2141
   1373  OP1       34.1050   14.7330    6.6590 O.2    69  DT69       -0.5172
   1374  OP2       34.5740   13.5750    8.9080 O.3    69  DT69       -0.4373
   1375  O5'       32.2810   13.7890    8.1100 O.3    69  DT69       -0.3114
   1376  C5'       31.2210   13.5380    7.1980 C.3    69  DT69        0.1811
   1377  C4'       29.9190   13.3710    7.9360 C.3    69  DT69        0.1746
   1378  O4'       29.7600   11.9990    8.3910 O.3    69  DT69       -0.3327
   1379  C3'       29.7990   14.1780    9.2180 C.3    69  DT69        0.1558
   1380  O3'       29.5460   15.5570    8.9980 O.3    69  DT69       -0.3138
   1381  C2'       28.6960   13.4270    9.9550 C.3    69  DT69        0.0866
   1382  C1'       29.0770   11.9830    9.6290 C.3    69  DT69        0.2106
   1383  N1        29.9590   11.3640   10.7140 N.ar   69  DT69       -0.2559
   1384  C2        29.3430   10.6840   11.7470 C.ar   69  DT69        0.3545
   1385  O2        28.1360   10.5330   11.8170 O.2    69  DT69       -0.2443
   1386  N3        30.1940   10.1850   12.7030 N.ar   69  DT69       -0.1533
   1387  C4        31.5690   10.2940   12.7280 C.ar   69  DT69        0.2804
   1388  O4        32.1990    9.7910   13.6550 O.2    69  DT69       -0.2654
   1389  C5        32.1330   11.0150   11.6220 C.ar   69  DT69        0.0534
   1390  C6        31.3290   11.5110   10.6780 C.ar   69  DT69        0.0824
   1391  C7        33.6220   11.1890   11.5590 C.3    69  DT69        0.0377
   1392  P         29.8440   16.6600   10.1230 P.3    70  DT70        0.2141
   1393  OP1       30.1410   17.8800    9.3360 O.2    70  DT70       -0.5172
   1394  OP2       30.8830   16.0800   11.0060 O.3    70  DT70       -0.4373
   1395  O5'       28.5240   16.9130   11.0160 O.3    70  DT70       -0.3114
   1396  C5'       27.3320   16.1550   10.7680 C.3    70  DT70        0.1812
   1397  C4'       26.4270   16.0630   11.9890 C.3    70  DT70        0.1775
   1398  O4'       26.0320   14.6820   12.2180 O.3    70  DT70       -0.3326
   1399  C3'       27.1490   16.5210   13.2250 C.3    70  DT70        0.1859
   1400  O3'       26.8630   17.8650   13.5480 O.3    70  DT70       -0.2203
   1401  C2'       26.7430   15.5950   14.3010 C.3    70  DT70        0.0895
   1402  C1'       26.3240   14.3290   13.6010 C.3    70  DT70        0.2107
   1403  N1        27.6800   13.3530   13.6670 N.ar   70  DT70       -0.2559
   1404  C2        27.5930   12.5220   14.7670 C.ar   70  DT70        0.3545
   1405  O2        26.6040   12.4570   15.4750 O.2    70  DT70       -0.2443
   1406  N3        28.7130   11.7640   15.0120 N.ar   70  DT70       -0.1533
   1407  C4        29.8840   11.7560   14.2840 C.ar   70  DT70        0.2804
   1408  O4        30.8050   11.0180   14.6280 O.2    70  DT70       -0.2654
   1409  C5        29.8970   12.6470   13.1580 C.ar   70  DT70        0.0534
   1410  C6        28.8210   13.3940   12.8970 C.ar   70  DT70        0.0824
   1411  C7        31.1280   12.7110   12.3030 C.3    70  DT70        0.0377
   1412  P         27.5160   19.7200   13.7060 P.3    71  DA71        0.5411
   1413  OP1       27.3570   21.1150   14.2310 O.2    71  DA71       -0.2272
   1414  OP2       28.7670   19.3480   12.9690 O.2    71  DA71       -0.2272
   1415  O5'       27.3110   18.6700   14.8990 O.3    71  DA71       -0.2722
   1416  C5'       28.2870   18.5210   15.9400 C.3    71  DA71        0.1851
   1417  C4'       27.6750   17.8030   17.1080 C.3    71  DA71        0.1776
   1418  O4'       26.3560   18.3420   17.2730 O.3    71  DA71       -0.3326
   1419  C3'       27.4910   16.2950   16.9310 C.3    71  DA71        0.1864
   1420  O3'       28.4590   15.5930   17.7260 O.3    71  DA71       -0.2133
   1421  C2'       26.1650   15.9760   17.6320 C.3    71  DA71        0.0894
   1422  C1'       25.5030   17.3510   17.7760 C.3    71  DA71        0.2095
   1423  N9        24.2280   17.3900   16.7790 N.ar   71  DA71       -0.2714
   1424  C8        23.8480   18.6860   16.5470 C.ar   71  DA71        0.1815
   1425  N7        22.6560   18.8000   16.0110 N.ar   71  DA71       -0.2193
   1426  C5        22.2240   17.4890   15.8800 C.ar   71  DA71        0.1518
   1427  C6        21.0360   16.9300   15.3770 C.ar   71  DA71        0.1919
   1428  N6        20.0250   17.6560   14.8940 N.pl3  71  DA71       -0.1054
   1429  N1        20.9230   15.5850   15.3890 N.ar   71  DA71       -0.2040
   1430  C2        21.9370   14.8590   15.8740 C.ar   71  DA71        0.2016
   1431  N3        23.1000   15.2690   16.3740 N.ar   71  DA71       -0.2048
   1432  C4        23.1820   16.6100   16.3470 C.ar   71  DA71        0.1691
   1433  P         30.5650   15.8640   16.7290 P.3    72  DT72        0.3939
   1434  OP1       31.2890   15.3300   15.5460 O.3    72  DT72       -0.1425
   1435  OP2       29.4950   15.0490   17.3700 O.3    72  DT72       -0.1496
   1436  O5'       31.6310   16.2870   17.8320 O.3    72  DT72       -0.2926
   1437  C5'       32.7460   17.1000   17.4770 C.3    72  DT72        0.1828
   1438  C4'       33.7430   17.1320   18.6040 C.3    72  DT72        0.1747
   1439  O4'       33.3880   18.1760   19.5540 O.3    72  DT72       -0.3327
   1440  C3'       33.8180   15.8600   19.4320 C.3    72  DT72        0.1558
   1441  O3'       34.5960   14.8330   18.7890 O.3    72  DT72       -0.3138
   1442  C2'       34.3990   16.3920   20.7420 C.3    72  DT72        0.0866
   1443  C1'       33.6890   17.7460   20.8740 C.3    72  DT72        0.2106
   1444  N1        32.5030   17.4740   21.7550 N.ar   72  DT72       -0.2559
   1445  C2        32.7370   17.3580   23.1120 C.ar   72  DT72        0.3545
   1446  O2        33.8490   17.4390   23.6030 O.2    72  DT72       -0.2443
   1447  N3        31.6170   17.1420   23.8780 N.ar   72  DT72       -0.1533
   1448  C4        30.3160   17.0320   23.4340 C.ar   72  DT72        0.2804
   1449  O4        29.4140   16.8390   24.2450 O.2    72  DT72       -0.2654
   1450  C5        30.1550   17.1630   22.0130 C.ar   72  DT72        0.0534
   1451  C6        31.2270   17.3730   21.2440 C.ar   72  DT72        0.0824
   1452  C7        28.7760   17.0580   21.4310 C.3    72  DT72        0.0377
   1453  P         33.9210   13.2910   18.4790 P.3    73  DT73        0.2141
   1454  OP1       34.8930   12.9770   17.3770 O.2    73  DT73       -0.5172
   1455  OP2       32.4550   13.3270   18.1810 O.3    73  DT73       -0.4373
   1456  O5'       34.1230   12.1600   19.5760 O.3    73  DT73       -0.3114
   1457  C5'       35.4170   11.8420   20.0380 C.3    73  DT73        0.1811
   1458  C4'       35.3610   11.3850   21.4650 C.3    73  DT73        0.1746
   1459  O4'       34.7860   12.4420   22.2910 O.3    73  DT73       -0.3327
   1460  C3'       34.4650   10.2050   21.7730 C.3    73  DT73        0.1558
   1461  O3'       34.9830    8.9710   21.3050 O.3    73  DT73       -0.3138
   1462  C2'       34.2850   10.3530   23.2780 C.3    73  DT73        0.0866
   1463  C1'       34.0930   11.8620   23.3930 C.3    73  DT73        0.2106
   1464  N1        32.6760   12.2040   23.1950 N.ar   73  DT73       -0.2559
   1465  C2        31.8430   12.1980   24.2980 C.ar   73  DT73        0.3545
   1466  O2        32.1730   11.7370   25.3770 O.2    73  DT73       -0.2443
   1467  N3        30.6030   12.7520   24.0930 N.ar   73  DT73       -0.1533
   1468  C4        30.1220   13.2990   22.9220 C.ar   73  DT73        0.2804
   1469  O4        28.9840   13.7600   22.8920 O.2    73  DT73       -0.2654
   1470  C5        31.0450   13.2670   21.8220 C.ar   73  DT73        0.0534
   1471  C6        32.2580   12.7350   21.9940 C.ar   73  DT73        0.0824
   1472  C7        30.6150   13.8380   20.5030 C.3    73  DT73        0.0377
   1473  P         34.2350    8.3810   20.0860 P.3    74  DC74        0.2141
   1474  OP1       35.3490    7.4140   19.9790 O.3    74  DC74       -0.4373
   1475  OP2       33.6390    8.9830   18.8740 O.2    74  DC74       -0.5172
   1476  O5'       32.9950    7.7080   20.8330 O.3    74  DC74       -0.3114
   1477  C5'       33.2660    6.8190   21.9050 C.3    74  DC74        0.1811
   1478  C4'       32.1910    6.8500   22.9600 C.3    74  DC74        0.1746
   1479  O4'       31.8750    8.2220   23.3080 O.3    74  DC74       -0.3327
   1480  C3'       30.8410    6.2830   22.5640 C.3    74  DC74        0.1558
   1481  O3'       30.8020    4.8710   22.5320 O.3    74  DC74       -0.3138
   1482  C2'       29.9380    6.8960   23.6230 C.3    74  DC74        0.0866
   1483  C1'       30.5140    8.3080   23.6750 C.3    74  DC74        0.2106
   1484  N1        29.7690    9.2670   22.8250 N.ar   74  DC74       -0.2556
   1485  C2        28.4980    9.6670   23.2530 C.ar   74  DC74        0.3531
   1486  O2        27.9790    9.0800   24.2170 O.2    74  DC74       -0.2443
   1487  N3        27.8730   10.6790   22.6050 N.ar   74  DC74       -0.1739
   1488  C4        28.4680   11.2800   21.5740 C.ar   74  DC74        0.1759
   1489  N4        27.8130   12.2730   20.9660 N.pl3  74  DC74       -0.1070
   1490  C5        29.7560   10.8890   21.1250 C.ar   74  DC74        0.0566
   1491  C6        30.3700    9.8900   21.7680 C.ar   74  DC74        0.0849
   1492  P         30.0610    4.3050   21.3960 P.3    75  DA75        0.2141
   1493  OP1       30.3250    2.8450   21.5350 O.3    75  DA75       -0.4373
   1494  OP2       30.9940    5.1480   20.5820 O.2    75  DA75       -0.5172
   1495  O5'       28.5750    4.4830   20.8400 O.3    75  DA75       -0.3114
   1496  C5'       27.4350    4.1330   21.6340 C.3    75  DA75        0.1811
   1497  C4'       26.2350    4.9280   21.1870 C.3    75  DA75        0.1746
   1498  O4'       26.5930    6.3250   21.3140 O.3    75  DA75       -0.3327
   1499  C3'       25.8330    4.7220   19.7290 C.3    75  DA75        0.1558
   1500  O3'       24.7370    3.8230   19.6200 O.3    75  DA75       -0.3138
   1501  C2'       25.3490    6.0990   19.3130 C.3    75  DA75        0.0865
   1502  C1'       26.2840    7.0110   20.1150 C.3    75  DA75        0.2094
   1503  N9        27.4890    7.5560   19.7300 N.ar   75  DA75       -0.2714
   1504  C8        28.7650    7.1280   19.9860 C.ar   75  DA75        0.1815
   1505  N7        29.6610    7.6090   19.1560 N.ar   75  DA75       -0.2193
   1506  C5        28.9220    8.4060   18.2960 C.ar   75  DA75        0.1518
   1507  C6        29.2850    9.1950   17.1910 C.ar   75  DA75        0.1919
   1508  N6        30.5390    9.3140   16.7480 N.pl3  75  DA75       -0.1054
   1509  N1        28.3040    9.8650   16.5500 N.ar   75  DA75       -0.2040
   1510  C2        27.0480    9.7460   16.9950 C.ar   75  DA75        0.2016
   1511  N3        26.5840    9.0370   18.0210 N.ar   75  DA75       -0.2048
   1512  C4        27.5830    8.3820   18.6360 C.ar   75  DA75        0.1691
   1513  P         24.8890    2.4700   18.6440 P.3    76  DA76        0.2141
   1514  OP1       23.8430    1.4390   18.5350 O.3    76  DA76       -0.4373
   1515  OP2       26.3240    2.1200   18.5210 O.2    76  DA76       -0.5172
   1516  O5'       24.5650    3.5300   17.4850 O.3    76  DA76       -0.3114
   1517  C5'       23.2820    4.0570   17.3320 C.3    76  DA76        0.1811
   1518  C4'       23.3650    5.1430   16.2770 C.3    76  DA76        0.1746
   1519  O4'       24.1910    6.2370   16.7840 O.3    76  DA76       -0.3327
   1520  C3'       24.0560    4.7100   14.9850 C.3    76  DA76        0.1558
   1521  O3'       23.2000    3.9530   14.0690 O.3    76  DA76       -0.3138
   1522  C2'       24.4300    6.0860   14.4290 C.3    76  DA76        0.0865
   1523  C1'       24.8730    6.8360   15.6970 C.3    76  DA76        0.2094
   1524  N9        26.3360    6.6840   15.8980 N.ar   76  DA76       -0.2714
   1525  C8        27.0340    5.8120   16.6920 C.ar   76  DA76        0.1815
   1526  N7        28.3360    5.9420   16.6030 N.ar   76  DA76       -0.2193
   1527  C5        28.5050    6.9690   15.6870 C.ar   76  DA76        0.1518
   1528  C6        29.6530    7.5860   15.1590 C.ar   76  DA76        0.1919
   1529  N6        30.8980    7.2420   15.4950 N.pl3  76  DA76       -0.1054
   1530  N1        29.4740    8.5800   14.2640 N.ar   76  DA76       -0.2040
   1531  C2        28.2250    8.9250   13.9280 C.ar   76  DA76        0.2016
   1532  N3        27.0700    8.4210   14.3560 N.ar   76  DA76       -0.2048
   1533  C4        27.2820    7.4350   15.2430 C.ar   76  DA76        0.1691
   1534  P         23.7050    2.7770   13.1100 P.3    77  DT77        0.2141
   1535  OP1       22.5210    2.0620   12.5810 O.2    77  DT77       -0.5172
   1536  OP2       24.6250    2.1250   14.0690 O.3    77  DT77       -0.4373
   1537  O5'       24.6390    3.1610   11.8720 O.3    77  DT77       -0.3114
   1538  C5'       24.1350    3.9830   10.8380 C.3    77  DT77        0.1811
   1539  C4'       25.2680    4.6260   10.0870 C.3    77  DT77        0.1746
   1540  O4'       25.9920    5.5430   10.9480 O.3    77  DT77       -0.3327
   1541  C3'       26.3510    3.6780    9.6170 C.3    77  DT77        0.1558
   1542  O3'       25.9720    2.9170    8.4860 O.3    77  DT77       -0.3138
   1543  C2'       27.5170    4.6270    9.3730 C.3    77  DT77        0.0866
   1544  C1'       27.3500    5.5800   10.5560 C.3    77  DT77        0.2106
   1545  N1        28.1900    5.1440   11.7150 N.ar   77  DT77       -0.2559
   1546  C2        29.5690    5.2080   11.6610 C.ar   77  DT77        0.3545
   1547  O2        30.1830    5.4710   10.6420 O.2    77  DT77       -0.2443
   1548  N3        30.2100    4.9500   12.8490 N.ar   77  DT77       -0.1533
   1549  C4        29.6220    4.6430   14.0590 C.ar   77  DT77        0.2804
   1550  O4        30.3310    4.4370   15.0410 O.2    77  DT77       -0.2654
   1551  C5        28.1870    4.5950   14.0330 C.ar   77  DT77        0.0534
   1552  C6        27.5390    4.8410   12.8910 C.ar   77  DT77        0.0824
   1553  C7        27.4540    4.2680   15.3000 C.3    77  DT77        0.0377
   1554  P         25.8440    1.4370    8.8950 P.3    78  DT78        0.2141
   1555  OP1       24.8590    0.8170    7.9790 O.2    78  DT78       -0.5172
   1556  OP2       26.1180    0.8520   10.2290 O.3    78  DT78       -0.4373
   1557  O5'       27.2740    1.4670    8.1840 O.3    78  DT78       -0.3114
   1558  C5'       27.3680    1.7040    6.7890 C.3    78  DT78        0.1811
   1559  C4'       28.7950    1.5560    6.3430 C.3    78  DT78        0.1746
   1560  O4'       29.5880    2.5790    6.9950 O.3    78  DT78       -0.3327
   1561  C3'       29.4710    0.2590    6.7590 C.3    78  DT78        0.1558
   1562  O3'       29.1550   -0.8500    5.9320 O.3    78  DT78       -0.3138
   1563  C2'       30.9450    0.6450    6.7570 C.3    78  DT78        0.0866
   1564  C1'       30.8690    2.0730    7.3000 C.3    78  DT78        0.2106
   1565  N1        31.0190    2.1410    8.7580 N.ar   78  DT78       -0.2559
   1566  C2        32.3240    2.1280    9.2130 C.ar   78  DT78        0.3545
   1567  O2        33.2870    2.1890    8.4700 O.2    78  DT78       -0.2443
   1568  N3        32.4630    2.0400   10.5770 N.ar   78  DT78       -0.1533
   1569  C4        31.4510    1.9650   11.5110 C.ar   78  DT78        0.2804
   1570  O4        31.7330    1.8900   12.7040 O.2    78  DT78       -0.2654
   1571  C5        30.1250    1.9830   10.9600 C.ar   78  DT78        0.0534
   1572  C6        29.9610    2.0680    9.6370 C.ar   78  DT78        0.0824
   1573  C7        28.9550    1.9050   11.8960 C.3    78  DT78        0.0377
   1574  P         29.3560   -2.2860    6.4760 P.3    79  DA79        0.2141
   1575  OP1       30.3300   -3.4020    6.5720 O.3    79  DA79       -0.4373
   1576  OP2       28.5240   -2.1410    5.2520 O.2    79  DA79       -0.5172
   1577  O5'       28.3890   -2.3510    7.7440 O.3    79  DA79       -0.3114
   1578  C5'       27.5240   -3.4660    7.9610 C.3    79  DA79        0.1811
   1579  C4'       26.1360   -2.9870    8.3230 C.3    79  DA79        0.1746
   1580  O4'       25.7130   -1.9980    7.3490 O.3    79  DA79       -0.3327
   1581  C3'       25.0570   -4.0610    8.3040 C.3    79  DA79        0.1558
   1582  O3'       24.9560   -4.6960    9.5780 O.3    79  DA79       -0.3138
   1583  C2'       23.7980   -3.2700    7.9660 C.3    79  DA79        0.0865
   1584  C1'       24.3510   -2.2020    7.0210 C.3    79  DA79        0.2094
   1585  N9        24.5080   -2.6280    5.3560 N.ar   79  DA79       -0.2714
   1586  C8        25.5920   -2.7090    4.5220 C.ar   79  DA79        0.1815
   1587  N7        25.2790   -2.9140    3.2650 N.ar   79  DA79       -0.2193
   1588  C5        23.8940   -2.9730    3.2740 C.ar   79  DA79        0.1518
   1589  C6        22.9490   -3.1690    2.2510 C.ar   79  DA79        0.1919
   1590  N6        23.2750   -3.3490    0.9690 N.pl3  79  DA79       -0.1054
   1591  N1        21.6440   -3.1740    2.5960 N.ar   79  DA79       -0.2040
   1592  C2        21.3200   -2.9930    3.8820 C.ar   79  DA79        0.2016
   1593  N3        22.1150   -2.7980    4.9310 N.ar   79  DA79       -0.2048
   1594  C4        23.4050   -2.8000    4.5540 C.ar   79  DA79        0.1691
   1595  P         24.0780   -6.4110    9.8510 P.3    80  DG80        0.2141
   1596  OP1       23.9000   -6.9780   11.2030 O.3    80  DG80       -0.4373
   1597  OP2       24.9560   -7.0660    8.8580 O.2    80  DG80       -0.5172
   1598  O5'       22.6480   -6.4340    9.1350 O.3    80  DG80       -0.3114
   1599  C5'       21.4780   -6.0160    9.8240 C.3    80  DG80        0.1811
   1600  C4'       20.2820   -5.9180    8.9060 C.3    80  DG80        0.1746
   1601  O4'       20.5550   -5.0910    7.7390 O.3    80  DG80       -0.3327
   1602  C3'       19.8430   -7.2230    8.2790 C.3    80  DG80        0.1558
   1603  O3'       19.1990   -8.0830    9.1920 O.3    80  DG80       -0.3138
   1604  C2'       18.9550   -6.7310    7.1510 C.3    80  DG80        0.0865
   1605  C1'       19.8020   -5.5680    6.6380 C.3    80  DG80        0.2094
   1606  N9        20.8580   -5.9820    5.5450 N.ar   80  DG80       -0.2713
   1607  C8        22.2320   -6.0110    5.5460 C.ar   80  DG80        0.1816
   1608  N7        22.7420   -6.2850    4.3760 N.ar   80  DG80       -0.2173
   1609  C5        21.6440   -6.4450    3.5520 C.ar   80  DG80        0.1748
   1610  C6        21.5640   -6.7560    2.1700 C.ar   80  DG80        0.3023
   1611  O6        22.4910   -6.9560    1.3750 O.2    80  DG80       -0.2633
   1612  N1        20.2460   -6.8270    1.7270 N.ar   80  DG80       -0.1709
   1613  C2        19.1410   -6.6240    2.5190 C.ar   80  DG80        0.2606
   1614  N2        17.9510   -6.7330    1.9120 N.pl3  80  DG80       -0.0859
   1615  N3        19.1990   -6.3350    3.8040 N.ar   80  DG80       -0.1918
   1616  C4        20.4690   -6.2620    4.2560 C.ar   80  DG80        0.1722
   1617  P         19.8570   -9.3360    9.2470 P.3    81  DA81        0.2141
   1618  OP1       19.6280   -9.1190   10.6950 O.3    81  DA81       -0.4373
   1619  OP2       21.2160   -9.6580    8.7540 O.2    81  DA81       -0.5172
   1620  O5'       18.8380  -10.4450    8.7420 O.3    81  DA81       -0.3114
   1621  C5'       17.4490  -10.0970    8.6070 C.3    81  DA81        0.1811
   1622  C4'       17.0130  -10.1130    7.1560 C.3    81  DA81        0.1746
   1623  O4'       17.8770   -9.3060    6.3090 O.3    81  DA81       -0.3327
   1624  C3'       17.0490  -11.4550    6.4640 C.3    81  DA81        0.1558
   1625  O3'       15.9820  -12.2650    6.9100 O.3    81  DA81       -0.3138
   1626  C2'       16.9200  -11.0460    5.0010 C.3    81  DA81        0.0865
   1627  C1'       17.8050   -9.7970    4.9710 C.3    81  DA81        0.2094
   1628  N9        18.9710  -10.0250    4.4110 N.ar   81  DA81       -0.2714
   1629  C8        20.1240   -9.8730    5.1360 C.ar   81  DA81        0.1815
   1630  N7        21.2180  -10.0120    4.4240 N.ar   81  DA81       -0.2193
   1631  C5        20.7510  -10.2740    3.1460 C.ar   81  DA81        0.1518
   1632  C6        21.4120  -10.5170    1.9290 C.ar   81  DA81        0.1919
   1633  N6        22.7410  -10.5350    1.8000 N.pl3  81  DA81       -0.1054
   1634  N1        20.6510  -10.7440    0.8370 N.ar   81  DA81       -0.2040
   1635  C2        19.3190  -10.7240    0.9670 C.ar   81  DA81        0.2016
   1636  N3        18.5840  -10.5070    2.0550 N.ar   81  DA81       -0.2048
   1637  C4        19.3700  -10.2860    3.1220 C.ar   81  DA81        0.1691
   1638  P         16.1710  -13.7120    6.9480 P.3    82  DT82        0.2141
   1639  OP1       15.1130  -14.5920    7.5210 O.2    82  DT82       -0.5172
   1640  OP2       17.4830  -13.6090    7.6320 O.3    82  DT82       -0.4373
   1641  O5'       16.4660  -14.1370    5.4370 O.3    82  DT82       -0.3114
   1642  C5'       15.4200  -14.0900    4.4490 C.3    82  DT82        0.1811
   1643  C4'       15.8800  -14.7050    3.1600 C.3    82  DT82        0.1746
   1644  O4'       16.8850  -13.8780    2.5490 O.3    82  DT82       -0.3327
   1645  C3'       16.4990  -16.0760    3.2920 C.3    82  DT82        0.1558
   1646  O3'       15.4350  -17.0000    3.2120 O.3    82  DT82       -0.3138
   1647  C2'       17.4170  -16.1540    2.0780 C.3    82  DT82        0.0866
   1648  C1'       17.8340  -14.6910    1.8840 C.3    82  DT82        0.2106
   1649  N1        19.2070  -14.2230    2.3120 N.ar   82  DT82       -0.2559
   1650  C2        20.1360  -14.1000    1.2970 C.ar   82  DT82        0.3545
   1651  O2        19.8820  -14.3470    0.1310 O.2    82  DT82       -0.2443
   1652  N3        21.3810  -13.6760    1.6960 N.ar   82  DT82       -0.1533
   1653  C4        21.7800  -13.3710    2.9810 C.ar   82  DT82        0.2804
   1654  O4        22.9340  -13.0010    3.1830 O.2    82  DT82       -0.2654
   1655  C5        20.7590  -13.5240    3.9790 C.ar   82  DT82        0.0534
   1656  C6        19.5410  -13.9350    3.6180 C.ar   82  DT82        0.0824
   1657  C7        21.0950  -13.2160    5.4080 C.3    82  DT82        0.0377
   1658  P         15.4330  -18.3490    4.1310 P.3    83  DA83        0.2141
   1659  OP1       14.3580  -19.3310    3.8540 O.2    83  DA83       -0.5172
   1660  OP2       15.7500  -17.9110    5.5110 O.3    83  DA83       -0.4373
   1661  O5'       16.8260  -18.9160    3.5710 O.3    83  DA83       -0.3114
   1662  C5'       16.9070  -19.5660    2.3120 C.3    83  DA83        0.1811
   1663  C4'       18.3390  -19.8840    1.9730 C.3    83  DA83        0.1746
   1664  O4'       19.1180  -18.6590    1.9800 O.3    83  DA83       -0.3327
   1665  C3'       19.0660  -20.7460    2.9840 C.3    83  DA83        0.1558
   1666  O3'       18.7680  -22.1240    2.8890 O.3    83  DA83       -0.3138
   1667  C2'       20.5190  -20.4150    2.7000 C.3    83  DA83        0.0865
   1668  C1'       20.4110  -18.9100    2.4910 C.3    83  DA83        0.2094
   1669  N9        20.5500  -18.1860    3.7450 N.ar   83  DA83       -0.2714
   1670  C8        19.5460  -17.5850    4.4590 C.ar   83  DA83        0.1815
   1671  N7        19.9560  -16.9980    5.5580 N.ar   83  DA83       -0.2193
   1672  C5        21.3230  -17.2290    5.5670 C.ar   83  DA83        0.1518
   1673  C6        22.3380  -16.8630    6.4680 C.ar   83  DA83        0.1919
   1674  N6        22.1210  -16.1580    7.5800 N.pl3  83  DA83       -0.1054
   1675  N1        23.5990  -17.2530    6.1830 N.ar   83  DA83       -0.2040
   1676  C2        23.8160  -17.9600    5.0680 C.ar   83  DA83        0.2016
   1677  N3        22.9460  -18.3620    4.1450 N.ar   83  DA83       -0.2048
   1678  C4        21.7030  -17.9600    4.4570 C.ar   83  DA83        0.1691
   1679  P         18.6810  -22.8120    4.2880 P.3    84  DG84        0.2141
   1680  OP1       17.5330  -23.2040    3.4400 O.2    84  DG84       -0.5172
   1681  OP2       18.5040  -22.6190    5.7450 O.3    84  DG84       -0.4373
   1682  O5'       19.8320  -23.9160    4.1630 O.3    84  DG84       -0.3114
   1683  C5'       21.1890  -23.5070    4.2890 C.3    84  DG84        0.1811
   1684  C4'       21.8660  -24.0880    5.5040 C.3    84  DG84        0.1746
   1685  O4'       23.0060  -23.2290    5.7700 O.3    84  DG84       -0.3327
   1686  C3'       21.0200  -24.1220    6.7800 C.3    84  DG84        0.1558
   1687  O3'       20.8420  -25.4240    7.3280 O.3    84  DG84       -0.3138
   1688  C2'       21.7630  -23.2730    7.8050 C.3    84  DG84        0.0865
   1689  C1'       22.9800  -22.7140    7.0850 C.3    84  DG84        0.2093
   1690  N9        22.8460  -21.1980    6.9440 N.ar   84  DG84       -0.2728
   1691  C8        21.8030  -20.4840    6.4050 C.ar   84  DG84        0.1814
   1692  N7        21.5840  -19.3520    7.0160 N.ar   84  DG84       -0.2177
   1693  C5        22.5370  -19.3120    8.0170 C.ar   84  DG84        0.1711
   1694  C6        22.7950  -18.3300    9.0070 C.2    84  DG84        0.2985
   1695  O6        22.2040  -17.2590    9.1970 O.2    84  DG84       -0.2655
   1696  N1        23.8600  -18.6870    9.8300 N.am   84  DG84       -0.1042
   1697  C2        24.5860  -19.8480    9.7130 C.1    84  DG84        0.1459
   1698  N2        25.5770  -20.0170   10.5990 N.2    84  DG84       -0.0046
   1699  N3        24.3580  -20.7700    8.7990 N.pl3  84  DG84       -0.1259
   1700  C4        23.3280  -20.4450    7.9890 C.ar   84  DG84        0.1688
   1701  P         19.4930  -25.6060    8.3460 P.3    85  DT85        0.2141
   1702  OP1       19.1740  -27.0490    8.4590 O.3    85  DT85       -0.4373
   1703  OP2       18.5550  -24.7110    7.6130 O.2    85  DT85       -0.5172
   1704  O5'       19.7130  -25.0360    9.8230 O.3    85  DT85       -0.3114
   1705  C5'       20.3320  -25.8470   10.8220 C.3    85  DT85        0.1811
   1706  C4'       20.8890  -25.0120   11.9640 C.3    85  DT85        0.1746
   1707  O4'       21.7210  -23.9340   11.4490 O.3    85  DT85       -0.3327
   1708  C3'       19.9350  -24.3040   12.9200 C.3    85  DT85        0.1558
   1709  O3'       19.3870  -25.1820   13.9010 O.3    85  DT85       -0.3138
   1710  C2'       20.8640  -23.2820   13.5650 C.3    85  DT85        0.0866
   1711  C1'       21.7430  -22.8630   12.3830 C.3    85  DT85        0.2106
   1712  N1        21.1470  -21.5990   11.7180 N.ar   85  DT85       -0.2574
   1713  C2        21.2080  -20.3810   12.3680 C.ar   85  DT85        0.3310
   1714  O2        21.6440  -20.2520   13.4980 O.3    85  DT85       -0.3356
   1715  N3        20.7360  -19.3120   11.6440 N.ar   85  DT85       -0.1549
   1716  C4        20.2210  -19.3390   10.3650 C.ar   85  DT85        0.2804
   1717  O4        19.8370  -18.2940    9.8460 O.2    85  DT85       -0.2654
   1718  C5        20.1900  -20.6400    9.7580 C.ar   85  DT85        0.0534
   1719  C6        20.6430  -21.6960   10.4390 C.ar   85  DT85        0.0824
   1720  C7        19.6460  -20.7740    8.3660 C.3    85  DT85        0.0377
   1721  P         17.8750  -25.0470   14.2820 P.3    86  DA86        0.2141
   1722  OP1       18.4270  -26.3960   14.5610 O.3    86  DA86       -0.4373
   1723  OP2       16.4040  -24.8420   14.2700 O.2    86  DA86       -0.5172
   1724  O5'       18.5370  -24.0470   15.3300 O.3    86  DA86       -0.3114
   1725  C5'       18.0190  -24.0090   16.6730 C.3    86  DA86        0.1811
   1726  C4'       18.6270  -22.8820   17.4680 C.3    86  DA86        0.1746
   1727  O4'       19.9420  -23.2600   17.9430 O.3    86  DA86       -0.3327
   1728  C3'       18.8190  -21.5500   16.7650 C.3    86  DA86        0.1558
   1729  O3'       17.6180  -20.7860   16.7270 O.3    86  DA86       -0.3138
   1730  C2'       19.9110  -20.9040   17.6120 C.3    86  DA86        0.0865
   1731  C1'       20.7670  -22.1150   17.9940 C.3    86  DA86        0.2094
   1732  N9        22.1030  -22.6630   17.3910 N.ar   86  DA86       -0.2714
   1733  C8        22.4370  -23.5050   16.3620 C.ar   86  DA86        0.1815
   1734  N7        23.6560  -23.3310   15.9100 N.ar   86  DA86       -0.2193
   1735  C5        24.1560  -22.3030   16.6930 C.ar   86  DA86        0.1518
   1736  C6        25.4010  -21.6490   16.7130 C.ar   86  DA86        0.1919
   1737  N6        26.4080  -21.9500   15.8900 N.pl3  86  DA86       -0.1054
   1738  N1        25.5760  -20.6640   17.6200 N.ar   86  DA86       -0.2040
   1739  C2        24.5670  -20.3640   18.4450 C.ar   86  DA86        0.2016
   1740  N3        23.3540  -20.9060   18.5220 N.ar   86  DA86       -0.2048
   1741  C4        23.2110  -21.8810   17.6090 C.ar   86  DA86        0.1691
   1742  P         17.2940  -19.6550   15.3570 P.3    87  DA87        0.2141
   1743  OP1       16.1890  -18.6860   15.1210 O.3    87  DA87       -0.4373
   1744  OP2       17.8100  -20.4570   14.2120 O.2    87  DA87       -0.5172
   1745  O5'       18.5200  -18.8950   16.0670 O.3    87  DA87       -0.3114
   1746  C5'       18.3910  -17.5600   16.6100 C.3    87  DA87        0.1811
   1747  C4'       19.7140  -17.0590   17.2220 C.3    87  DA87        0.1741
   1748  O4'       20.5730  -18.1840   17.5640 O.3    87  DA87       -0.3381
   1749  C3'       20.6210  -16.1410   16.3930 C.3    87  DA87        0.1552
   1750  O3'       20.2810  -14.7600   16.4350 O.3    87  DA87       -0.3139
   1751  C2'       21.9790  -16.3330   17.0450 C.3    87  DA87        0.0795
   1752  C1'       21.9340  -17.8130   17.4040 C.3    87  DA87        0.1820
   1753  N9        22.5990  -18.5560   16.2480 N.3    87  DA87       -0.2044
   1754  C8        21.9890  -19.5080   15.4730 C.3    87  DA87        0.2237
   1755  N7        22.8210  -20.1910   14.7220 N.4    87  DA87       -0.1683
   1756  C5        24.0600  -19.6490   15.0230 C.2    87  DA87        0.1983
   1757  C6        25.3560  -19.9380   14.5600 C.2    87  DA87        0.4257
   1758  N6        25.6250  -20.8840   13.6570 N.pl3  87  DA87        0.2156
   1759  N1        26.3770  -19.2110   15.0620 N.pl3  87  DA87        0.0229
   1760  C2        26.1070  -18.2640   15.9680 C.2    87  DA87        0.3238
   1761  N3        24.9330  -17.9020   16.4810 N.2    87  DA87       -0.2061
   1762  C4        23.9400  -18.6410   15.9610 C.3    87  DA87        0.2189
   1763  P         20.3190  -13.8520   15.1190 P.3    88  DG88        0.2141
   1764  OP1       19.6090  -12.5500   15.1630 O.3    88  DG88       -0.4373
   1765  OP2       19.8300  -14.9630   14.2600 O.2    88  DG88       -0.5172
   1766  O5'       21.8640  -13.5830   14.8000 O.3    88  DG88       -0.3114
   1767  C5'       22.6170  -12.8390   15.7560 C.3    88  DG88        0.1811
   1768  C4'       24.0990  -13.1380   15.6680 C.3    88  DG88        0.1746
   1769  O4'       24.3670  -14.5500   15.8290 O.3    88  DG88       -0.3327
   1770  C3'       24.7210  -12.8620   14.3170 C.3    88  DG88        0.1558
   1771  O3'       24.8250  -11.4870   14.0890 O.3    88  DG88       -0.3138
   1772  C2'       26.0650  -13.5350   14.5340 C.3    88  DG88        0.0865
   1773  C1'       25.5980  -14.8350   15.1860 C.3    88  DG88        0.2093
   1774  N9        25.3840  -15.9040   14.1570 N.ar   88  DG88       -0.2733
   1775  C8        24.1800  -16.5130   13.8960 C.ar   88  DG88        0.1815
   1776  N7        24.2790  -17.5120   13.0620 N.ar   88  DG88       -0.2165
   1777  C5        25.6250  -17.5700   12.7540 C.ar   88  DG88        0.1830
   1778  C6        26.3390  -18.4470   11.8980 C.2    88  DG88        0.3312
   1779  O6        25.8970  -19.3830   11.2190 O.2    88  DG88       -0.3097
   1780  N1        27.7000  -18.1560   11.8710 N.2    88  DG88       -0.3300
   1781  C2        28.2990  -17.1430   12.5810 C.cat  88  DG88        0.3027
   1782  N2        29.6240  -17.0170   12.4280 N.pl3  88  DG88       -0.0763
   1783  N3        27.6490  -16.3200   13.3800 N.pl3  88  DG88       -0.1487
   1784  C4        26.3260  -16.5840   13.4210 C.ar   88  DG88        0.1633
   1785  P         24.4730  -11.1710   12.8090 P.3    89  DT89        0.2141
   1786  OP1       24.0030   -9.7650   12.7690 O.3    89  DT89       -0.4373
   1787  OP2       23.5440  -12.2590   12.4580 O.2    89  DT89       -0.5172
   1788  O5'       25.7520  -11.3630   11.8750 O.3    89  DT89       -0.3114
   1789  C5'       26.8590  -10.4610   11.9420 C.3    89  DT89        0.1811
   1790  C4'       28.1410  -11.1550   11.5200 C.3    89  DT89        0.1746
   1791  O4'       28.0900  -12.5600   11.8810 O.3    89  DT89       -0.3327
   1792  C3'       28.4970  -11.1810   10.0440 C.3    89  DT89        0.1558
   1793  O3'       29.1150   -9.9730    9.6340 O.3    89  DT89       -0.3138
   1794  C2'       29.4770  -12.3480    9.9710 C.3    89  DT89        0.0866
   1795  C1'       28.8600  -13.3180   10.9650 C.3    89  DT89        0.2106
   1796  N1        28.0120  -14.3240   10.2640 N.ar   89  DT89       -0.2559
   1797  C2        28.6140  -15.3670    9.5870 C.ar   89  DT89        0.3545
   1798  O2        29.8170  -15.4350    9.4050 O.2    89  DT89       -0.2443
   1799  N3        27.7530  -16.3340    9.1260 N.ar   89  DT89       -0.1533
   1800  C4        26.3820  -16.3610    9.2710 C.ar   89  DT89        0.2804
   1801  O4        25.7430  -17.3000    8.8010 O.2    89  DT89       -0.2654
   1802  C5        25.8320  -15.2430    9.9840 C.ar   89  DT89        0.0534
   1803  C6        26.6460  -14.2890   10.4440 C.ar   89  DT89        0.0824
   1804  C7        24.3480  -15.1810   10.1930 C.3    89  DT89        0.0377
   1805  P         29.1780   -9.6490    8.0180 P.3    90  DG90        0.2141
   1806  OP1       29.9380   -8.5560    7.3540 O.2    90  DG90       -0.5172
   1807  OP2       27.7320   -9.8300    7.7820 O.3    90  DG90       -0.4373
   1808  O5'       29.7620  -11.0780    7.6280 O.3    90  DG90       -0.3114
   1809  C5'       30.8300  -11.5930    8.4110 C.3    90  DG90        0.1811
   1810  C4'       31.7700  -12.3250    7.5060 C.3    90  DG90        0.1746
   1811  O4'       31.4930  -13.7420    7.6380 O.3    90  DG90       -0.3327
   1812  C3'       31.5320  -11.9470    6.0490 C.3    90  DG90        0.1558
   1813  O3'       32.6210  -11.2540    5.4500 O.3    90  DG90       -0.3138
   1814  C2'       31.2680  -13.2560    5.3180 C.3    90  DG90        0.0865
   1815  C1'       31.1590  -14.3250    6.3950 C.3    90  DG90        0.2094
   1816  N9        29.7060  -14.9140    6.5160 N.ar   90  DG90       -0.2713
   1817  C8        28.5220  -14.2670    6.7760 C.ar   90  DG90        0.1816
   1818  N7        27.4730  -14.9350    6.3810 N.ar   90  DG90       -0.2173
   1819  C5        27.9900  -16.0920    5.8290 C.ar   90  DG90        0.1748
   1820  C6        27.3380  -17.2020    5.2330 C.ar   90  DG90        0.3023
   1821  O6        26.1240  -17.3820    5.0730 O.2    90  DG90       -0.2633
   1822  N1        28.2440  -18.1660    4.7990 N.ar   90  DG90       -0.1709
   1823  C2        29.6090  -18.0730    4.9240 C.ar   90  DG90        0.2606
   1824  N2        30.3190  -19.1040    4.4470 N.pl3  90  DG90       -0.0859
   1825  N3        30.2290  -17.0480    5.4750 N.ar   90  DG90       -0.1918
   1826  C4        29.3700  -16.0990    5.9030 C.ar   90  DG90        0.1722
   1827  P         32.2980  -10.1840    4.2390 P.3    91  DC91        0.2141
   1828  OP1       32.7260   -8.8240    3.8300 O.2    91  DC91       -0.5172
   1829  OP2       30.8530  -10.5260    4.2300 O.3    91  DC91       -0.4373
   1830  O5'       33.0370  -11.2450    3.3220 O.3    91  DC91       -0.3114
   1831  C5'       32.5340  -11.5010    2.0530 C.3    91  DC91        0.1811
   1832  C4'       32.9430  -12.8520    1.5710 C.3    91  DC91        0.1746
   1833  O4'       32.5310  -13.8930    2.4840 O.3    91  DC91       -0.3327
   1834  C3'       32.1490  -13.1210    0.3240 C.3    91  DC91        0.1558
   1835  O3'       32.7400  -12.4430   -0.7580 O.3    91  DC91       -0.3138
   1836  C2'       32.0550  -14.6320    0.2770 C.3    91  DC91        0.0866
   1837  C1'       31.9060  -14.9520    1.7640 C.3    91  DC91        0.2106
   1838  N1        30.5560  -14.9760    2.3390 N.ar   91  DC91       -0.2556
   1839  C2        29.7310  -15.9550    1.7730 C.ar   91  DC91        0.3531
   1840  O2        30.2320  -16.7780    0.9880 O.2    91  DC91       -0.2443
   1841  N3        28.4150  -15.9760    2.0950 N.ar   91  DC91       -0.1739
   1842  C4        27.9210  -15.0710    2.9410 C.ar   91  DC91        0.1759
   1843  N4        26.6190  -15.1310    3.2290 N.pl3  91  DC91       -0.1070
   1844  C5        28.7400  -14.0710    3.5250 C.ar   91  DC91        0.0566
   1845  C6        30.0390  -14.0540    3.2050 C.ar   91  DC91        0.0849
   1846  P         31.9980  -10.9890   -1.1630 P.3    92  DA92        0.2141
   1847  OP1       32.8310  -10.0630   -1.9750 O.2    92  DA92       -0.5172
   1848  OP2       30.9420  -10.4370   -0.3060 O.3    92  DA92       -0.4373
   1849  O5'       31.4150  -12.0730   -2.1410 O.3    92  DA92       -0.3114
   1850  C5'       32.2520  -12.7690   -3.0560 C.3    92  DA92        0.1811
   1851  C4'       31.4010  -13.7790   -3.7910 C.3    92  DA92        0.1746
   1852  O4'       30.8350  -14.6590   -2.7930 O.3    92  DA92       -0.3327
   1853  C3'       30.1500  -13.2400   -4.4920 C.3    92  DA92        0.1558
   1854  O3'       30.4030  -12.7090   -5.8080 O.3    92  DA92       -0.3138
   1855  C2'       29.3080  -14.5070   -4.5710 C.3    92  DA92        0.0865
   1856  C1'       29.5260  -15.0990   -3.1830 C.3    92  DA92        0.2094
   1857  N9        28.5730  -14.7360   -2.1790 N.ar   92  DA92       -0.2714
   1858  C8        28.5210  -13.6880   -1.2970 C.ar   92  DA92        0.1815
   1859  N7        27.3920  -13.6100   -0.6340 N.ar   92  DA92       -0.2193
   1860  C5        26.6510  -14.6790   -1.1140 C.ar   92  DA92        0.1518
   1861  C6        25.3600  -15.1470   -0.8110 C.ar   92  DA92        0.1919
   1862  N6        24.5570  -14.5720    0.0870 N.pl3  92  DA92       -0.1054
   1863  N1        24.9190  -16.2390   -1.4700 N.ar   92  DA92       -0.2040
   1864  C2        25.7250  -16.8160   -2.3690 C.ar   92  DA92        0.2016
   1865  N3        26.9560  -16.4690   -2.7390 N.ar   92  DA92       -0.2048
   1866  C4        27.3650  -15.3800   -2.0670 C.ar   92  DA92        0.1691
   1867  P         29.7310  -11.3780   -6.3110 P.3    93  DA93        0.2141
   1868  OP1       30.2370  -10.7010   -7.5390 O.2    93  DA93       -0.5172
   1869  OP2       29.7780  -10.4940   -5.1140 O.3    93  DA93       -0.4373
   1870  O5'       28.2470  -11.8910   -6.5530 O.3    93  DA93       -0.3114
   1871  C5'       27.9910  -12.7470   -7.6960 C.3    93  DA93        0.1811
   1872  C4'       26.7350  -13.5590   -7.5040 C.3    93  DA93        0.1746
   1873  O4'       26.7810  -14.2560   -6.2180 O.3    93  DA93       -0.3327
   1874  C3'       25.5210  -12.6690   -7.3860 C.3    93  DA93        0.1558
   1875  O3'       24.9950  -12.3800   -8.6770 O.3    93  DA93       -0.3138
   1876  C2'       24.5560  -13.5270   -6.5870 C.3    93  DA93        0.0865
   1877  C1'       25.4820  -14.2600   -5.6430 C.3    93  DA93        0.2094
   1878  N9        25.4950  -13.5760   -4.3100 N.ar   93  DA93       -0.2714
   1879  C8        26.4060  -12.7270   -3.7380 C.ar   93  DA93        0.1815
   1880  N7        26.0250  -12.2450   -2.5790 N.ar   93  DA93       -0.2193
   1881  C5        24.7780  -12.8150   -2.3760 C.ar   93  DA93        0.1518
   1882  C6        23.8470  -12.7060   -1.3280 C.ar   93  DA93        0.1919
   1883  N6        24.0400  -11.9510   -0.2440 N.pl3  93  DA93       -0.1054
   1884  N1        22.6980  -13.4060   -1.4350 N.ar   93  DA93       -0.2040
   1885  C2        22.5060  -14.1630   -2.5220 C.ar   93  DA93        0.2016
   1886  N3        23.3060  -14.3470   -3.5700 N.ar   93  DA93       -0.2048
   1887  C4        24.4380  -13.6370   -3.4340 C.ar   93  DA93        0.1691
   1888  P         24.4100  -10.8920   -9.0220 P.3    94  DT94        0.2141
   1889  OP1       24.2750  -10.6890  -10.4960 O.2    94  DT94       -0.5172
   1890  OP2       25.3150  -10.0120   -8.2150 O.3    94  DT94       -0.4373
   1891  O5'       22.9410  -10.9090   -8.3550 O.3    94  DT94       -0.3114
   1892  C5'       21.8200  -11.7500   -8.8020 C.3    94  DT94        0.1811
   1893  C4'       20.7480  -11.8530   -7.7100 C.3    94  DT94        0.1746
   1894  O4'       21.2630  -12.5180   -6.5170 O.3    94  DT94       -0.3327
   1895  C3'       20.2180  -10.5480   -7.1410 C.3    94  DT94        0.1558
   1896  O3'       19.2770   -9.9830   -8.0090 O.3    94  DT94       -0.3138
   1897  C2'       19.6240  -11.0010   -5.8100 C.3    94  DT94        0.0866
   1898  C1'       20.6000  -12.0730   -5.3580 C.3    94  DT94        0.2106
   1899  N1        21.5440  -11.4800   -4.4600 N.ar   94  DT94       -0.2559
   1900  C2        21.1910  -11.3970   -3.1260 C.ar   94  DT94        0.3545
   1901  O2        20.1140  -11.7730   -2.7000 O.2    94  DT94       -0.2443
   1902  N3        22.1500  -10.8550   -2.3040 N.ar   94  DT94       -0.1533
   1903  C4        23.3970  -10.3970   -2.6740 C.ar   94  DT94        0.2804
   1904  O4        24.1500   -9.9360   -1.8200 O.2    94  DT94       -0.2654
   1905  C5        23.6880  -10.5160   -4.0750 C.ar   94  DT94        0.0534
   1906  C6        22.7740  -11.0400   -4.8970 C.ar   94  DT94        0.0824
   1907  C7        25.0210  -10.0440   -4.5770 C.3    94  DT94        0.0377
   1908  P         18.9540   -8.4050   -7.9080 P.3    95  DC95        0.2141
   1909  OP1       18.6440   -8.2420   -9.3520 O.2    95  DC95       -0.5172
   1910  OP2       19.4510   -7.2160   -7.1310 O.3    95  DC95       -0.4373
   1911  O5'       17.5460   -8.7820   -7.2840 O.3    95  DC95       -0.3114
   1912  C5'       16.7450   -7.7780   -6.7070 C.3    95  DC95        0.1812
   1913  C4'       16.1590   -8.2640   -5.4060 C.3    95  DC95        0.1775
   1914  O4'       17.1300   -9.0580   -4.6800 O.3    95  DC95       -0.3326
   1915  C3'       15.8540   -7.1350   -4.4510 C.3    95  DC95        0.1859
   1916  O3'       14.6530   -6.5090   -4.7970 O.3    95  DC95       -0.2203
   1917  C2'       15.8460   -7.8300   -3.1040 C.3    95  DC95        0.0895
   1918  C1'       17.0290   -8.7830   -3.2860 C.3    95  DC95        0.2107
   1919  N1        18.3260   -8.1520   -2.8130 N.ar   95  DC95       -0.2556
   1920  C2        18.6270   -7.9480   -1.4620 C.ar   95  DC95        0.3531
   1921  O2        17.6990   -7.9570   -0.6350 O.2    95  DC95       -0.2443
   1922  N3        19.9150   -7.7450   -1.0960 N.ar   95  DC95       -0.1739
   1923  C4        20.8780   -7.7420   -2.0190 C.ar   95  DC95        0.1759
   1924  N4        22.1330   -7.5380   -1.6110 N.pl3  95  DC95       -0.1070
   1925  C5        20.5940   -7.9470   -3.3930 C.ar   95  DC95        0.0566
   1926  C6        19.3210   -8.1470   -3.7500 C.ar   95  DC95        0.0849
   1927  P         13.3950   -2.8760   -3.6330 P.3    96  DT96        0.5411
   1928  OP1       11.9310   -2.8650   -3.3730 O.2    96  DT96       -0.2272
   1929  OP2       14.2040   -1.6590   -3.3470 O.2    96  DT96       -0.2272
   1930  O5'       14.0640   -4.0950   -2.8520 O.3    96  DT96       -0.2722
   1931  C5'       13.8840   -4.2270   -1.4510 C.3    96  DT96        0.1850
   1932  C4'       14.2150   -5.6280   -0.9950 C.3    96  DT96        0.1755
   1933  O4'       15.6590   -5.7770   -0.8770 O.3    96  DT96       -0.3510
   1934  C3'       13.6920   -5.9090    0.4040 C.3    96  DT96        0.1839
   1935  O3'       12.3360   -6.3290    0.3690 O.3    96  DT96       -0.2204
   1936  C2'       14.6660   -6.9530    0.9320 C.3    96  DT96        0.0676
   1937  C1'       15.9810   -6.4610    0.3270 C.3    96  DT96        0.1450
   1938  N1        17.4320   -4.8340   -0.3320 N.2    96  DT96       -0.1608
   1939  C2        18.4510   -4.4730    0.5290 C.1    96  DT96        0.2395
   1940  O2        18.3100   -4.4180    1.7380 O.2    96  DT96       -0.2041
   1941  N3        19.6470   -4.1740   -0.0770 N.am   96  DT96       -0.0881
   1942  C4        19.9210   -4.2000   -1.4290 C.2    96  DT96        0.2768
   1943  O4        21.0460   -3.9070   -1.8240 O.2    96  DT96       -0.2676
   1944  C5        18.8130   -4.5840   -2.2580 C.2    96  DT96        0.0541
   1945  C6        17.6380   -4.8790   -1.6940 C.2    96  DT96        0.1126
   1946  C7        19.0110   -4.6420   -3.7440 C.3    96  DT96        0.0376
@<TRIPOS>BOND
     1   142   141    2
     2   908   907    2
     3   888   887    2
     4   120   119    2
     5   686   685    2
     6   666   665    2
     7   891   892    1
     8   891   890    1
     9   123   124    1
    10   123   122    1
    11   895   907    1
    12   895   894    1
    13   127   141    1
    14   127   126    1
    15   669   670    1
    16   669   668    1
    17   907   909    1
    18   907   910    1
    19   141   144    1
    20   141   143    1
    21   144   145    1
    22   892   894    1
    23   892   893    1
    24   161   160    1
    25   161   149    1
    26   106   119    1
    27   106   105    1
    28   887   875    1
    29   887   890    1
    30   887   889    1
    31   673   685    1
    32   673   672    1
    33   119   122    1
    34   119   121    1
    35   875   874    1
    36   124   126    1
    37   124   125    1
    38   685   687    1
    39   685   688    1
    40   670   672    1
    41   670   671    1
    42   911   910    1
    43   911   912    1
    44   363   362    2
    45   162   160    2
    46   652   665    1
    47   652   651    1
    48   665   668    1
    49   665   667    1
    50   894   896    1
    51   145   146    1
    52   126   128    1
    53   689   688    1
    54   689   690    1
    55   160   149    1
    56   160   163    1
    57   672   674    1
    58   707   706    2
    59   893   897    1
    60   350   362    1
    61   350   349    1
    62   107   105    1
    63   107   108    1
    64   105   103    1
    65   366   367    1
    66   366   365    1
    67   103   102    1
    68   103   104    1
    69   125   129    1
    70   671   675    1
    71   874   872    1
    72   874   876    1
    73   872   871    1
    74   872   873    1
    75   896   897    1
    76   912   914    1
    77   912   913    1
    78   649   651    1
    79   649   648    1
    80   649   650    1
    81   347   346    1
    82   347   349    1
    83   347   348    1
    84   868   867    2
    85   871   870    1
    86   362   365    1
    87   362   364    1
    88   384   383    2
    89   915   914    1
    90   915   926    1
    91   102   101    1
    92   876   877    1
    93   651   653    1
    94   648   647    1
    95   674   675    1
    96   128   129    1
    97   146   148    1
    98   146   147    1
    99   346   345    1
   100   708   706    1
   101   645   644    2
   102   927   926    2
   103   148   150    1
   104   897   898    1
   105   690   692    1
   106   690   691    1
   107   367   368    1
   108   367   369    1
   109   163   164    1
   110   693   706    1
   111   693   692    1
   112   349   351    1
   113   706   709    1
   114   108   104    1
   115   108   109    1
   116   351   352    1
   117   653   654    1
   118   914   916    1
   119   675   676    1
   120   129   130    1
   121   913   917    1
   122   348   352    1
   123   873   877    1
   124   370   383    1
   125   370   369    1
   126   870   867    1
   127   164   165    1
   128   650   654    1
   129   928   926    1
   130   926   929    1
   131   343   342    2
   132   368   372    1
   133   692   694    1
   134   101    98    1
   135   877   878    1
   136   352   353    1
   137   867   854    1
   138   867   869    1
   139   691   695    1
   140   647   644    1
   141   383   385    1
   142   383   386    1
   143   654   655    1
   144   117   116   ar
   145   117   118   ar
   146   369   371    1
   147   147   151    1
   148   644   632    1
   149   644   646    1
   150   345   342    1
   151   898   905   ar
   152   898   899   ar
   153   150   151    1
   154   905   904   ar
   155   567   566    2
   156   709   710    1
   157   109   118   ar
   158   109   110   ar
   159   130   131   ar
   160   130   140   ar
   161   632   631    1
   162   683   676   ar
   163   683   682   ar
   164   916   917    1
   165   131   132   ar
   166   676   677   ar
   167   330   342    1
   168   330   329    1
   169   342   344    1
   170   917   918    1
   171   116   115   ar
   172   854   853    1
   173    99    98    2
   174   371   372    1
   175   118   112   ar
   176   553   552    1
   177   553   566    1
   178   159   158   ar
   179   159   152   ar
   180   372   373    1
   181   570   571    1
   182   570   569    1
   183   925   918   ar
   184   925   924   ar
   185    98    87    1
   186    98   100    1
   187   151   152    1
   188   179   177    1
   189   694   695    1
   190   387   386    1
   191   387   388    1
   192   165   166    1
   193   165   167    1
   194   878   879   ar
   195   878   885   ar
   196   554   552    1
   197   554   555    1
   198   929   930    1
   199   550   551    1
   200   550   552    1
   201   550   549    1
   202   880   879    2
   203   710   711    1
   204   331   329    1
   205   331   332    1
   206   695   696    1
   207   571   572    1
   208   571   573    1
   209   633   631    1
   210   633   634    1
   211   900   899    2
   212   353   354   ar
   213   353   360   ar
   214   355   354    2
   215   158   156   ar
   216   899   901   ar
   217   855   853    1
   218   855   856    1
   219   930   931    1
   220   655   664   ar
   221   655   656   ar
   222   551   555    1
   223   918   919   ar
   224   555   556    1
   225   566   569    1
   226   566   568    1
   227   697   696   ar
   228   697   698   ar
   229   904   906    1
   230   904   902   ar
   231   329   327    1
   232   327   328    1
   233   327   326    1
   234   110   111   ar
   235   684   682    1
   236   166   170    1
   237   631   629    1
   238   152   153   ar
   239   682   680   ar
   240   879   881   ar
   241   140   139   ar
   242   140   133   ar
   243   663   664   ar
   244   663   662   ar
   245   924   922   ar
   246   727   725    2
   247   586   585    2
   248   574   573    1
   249   574   585    1
   250   885   884   ar
   251   677   678    2
   252   677   679   ar
   253   853   851    1
   254   132   133   ar
   255   572   576    1
   256   726   725    2
   257   332   328    1
   258   332   333    1
   259   549   548    1
   260   548   545    1
   261   374   373   ar
   262   374   375   ar
   263   354   356   ar
   264   167   168    1
   265   167   169    1
   266   696   705   ar
   267   115   113   ar
   268   373   382   ar
   269   168   180    1
   270   360   359   ar
   271    87    86    1
   272   335   334    2
   273   139   137   ar
   274   112   111   ar
   275   112   113   ar
   276   664   658   ar
   277   178   177   ar
   278   178   171   ar
   279   656   657   ar
   280   629   630    1
   281   629   628    1
   282   177   175   ar
   283   573   575    1
   284   865   864   ar
   285   865   866   ar
   286   634   630    1
   287   634   635    1
   288   725   728    1
   289   388   389    1
   290   388   390    1
   291   698   699   ar
   292   589   588    1
   293   589   590    1
   294   326   325    1
   295   637   636    2
   296   133   134   ar
   297   575   576    1
   298   538   537    2
   299   901   902   ar
   300   864   863   ar
   301   576   577    1
   302   711   712    1
   303   711   713    1
   304   181   180    2
   305   182   180    1
   306   856   852    1
   307   856   857    1
   308   156   157    1
   309   156   155   ar
   310   662   661   ar
   311   180   183    1
   312   113   114    1
   313   902   903    2
   314   585   588    1
   315   585   587    1
   316   931   932    1
   317   931   933    1
   318   712   716    1
   319   919   920    2
   320   919   921   ar
   321   851   852    1
   322   851   850    1
   323   389   393    1
   324   679   680   ar
   325   680   681    2
   326   723   724   ar
   327   723   721   ar
   328   170   169    1
   329   170   171    1
   330   881   882   ar
   331   564   565   ar
   332   564   563   ar
   333   375   376   ar
   334   153   155   ar
   335   153   154    2
   336   724   717   ar
   337   884   882   ar
   338   884   886    1
   339   932   936    1
   340   334   333   ar
   341   334   336   ar
   342   556   565   ar
   343   556   557   ar
   344   333   340   ar
   345   319   320   ar
   346   319   318   ar
   347   546   545    2
   348   922   921   ar
   349   922   923    1
   350   545   533    1
   351   545   547    1
   352   590   591    1
   353   590   592    1
   354   534   535    1
   355   534   532    1
   356   713   714    1
   357   713   715    1
   358   320   321   ar
   359   628   627    1
   360   356   357   ar
   361   705   699   ar
   362   705   704   ar
   363   382   381   ar
   364   382   376   ar
   365   949   947    2
   366   137   138    1
   367   137   136   ar
   368   171   172   ar
   369   359   357   ar
   370   359   361    1
   371   658   657   ar
   372   658   659   ar
   373    86    88    1
   374    86    84    1
   375   866   857   ar
   376   866   860   ar
   377   533   532    1
   378   406   404    2
   379   391   390    1
   380   391   404    1
   381    88    89    1
   382   636   635   ar
   383   636   638   ar
   384   175   176    2
   385   175   174   ar
   386   390   392    1
   387   857   858   ar
   388   699   700   ar
   389   948   947    1
   390   635   642   ar
   391   938   939   ar
   392   938   937   ar
   393   565   559   ar
   394   310   311    1
   395   310   308    1
   396   863   861   ar
   397   535   536    1
   398   535   531    1
   399   882   883    2
   400   591   595    1
   401   537   536   ar
   402   537   539   ar
   403  1889  1888    2
   404   395   396   ar
   405   395   394   ar
   406   325   322    1
   407   563   562   ar
   408   134   136   ar
   409   134   135    2
   410   381   380   ar
   411   933   934    1
   412   933   935    1
   413   605   604    2
   414   850   849    1
   415   376   377   ar
   416   728   729    1
   417   593   592    1
   418   593   604    1
   419   661   659   ar
   420    84    83    1
   421    84    85    1
   422   947   934    1
   423   947   950    1
   424   939   940   ar
   425   577   584   ar
   426   577   578   ar
   427   318   316   ar
   428   357   358    2
   429   183   184    1
   430   404   405    1
   431   404   407    1
   432   716   717    1
   433   716   715    1
   434   532   530    1
   435   704   703   ar
   436   557   558   ar
   437   627   624    1
   438   721   722    1
   439   721   720   ar
   440   717   718   ar
   441   393   394    1
   442   393   392    1
   443   199   197    1
   444   309   308    1
   445   309   322    1
   446   311   312    1
   447   311   307    1
   448   396   397   ar
   449   659   660    1
   450   340   339   ar
   451   336   337   ar
   452   579   578    2
   453   530   531    1
   454   530   529    1
   455   592   594    1
   456   536   543   ar
   457   423   421    1
   458   936   937    1
   459   936   935    1
   460   584   583   ar
   461    83    82    1
   462   839   838    2
   463   323   322    2
   464   321   312   ar
   465   321   315   ar
   466   539   540   ar
   467   172   174   ar
   468   172   173    2
   469   937   946   ar
   470   860   861   ar
   471   860   859   ar
   472   394   403   ar
   473   638   639   ar
   474   518   517    2
   475   861   862    1
   476    89    85    1
   477    89    90    1
   478   308   306    1
   479   578   580   ar
   480   642   641   ar
   481   858   859   ar
   482   729   730    1
   483   184   185    1
   484   700   701    2
   485   700   702   ar
   486   322   324    1
   487  1909  1908    2
   488   559   558   ar
   489   559   560   ar
   490    92    91    2
   491   595   594    1
   492   595   596    1
   493   604   607    1
   494   604   606    1
   495   312   313   ar
   496   562   560   ar
   497   742   743   ar
   498   742   740   ar
   499   849   846    1
   500   380   379   ar
   501   298   297   ar
   502   298   299   ar
   503  1888  1875    1
   504  1888  1891    1
   505  1888  1890    1
   506   307   306    1
   507   377   379   ar
   508   377   378    1
   509   306   305    1
   510   940   946   ar
   511   940   941   ar
   512   316   315   ar
   513   316   317    1
   514   701   501    1
   515   703   702   ar
   516   720   718   ar
   517   297   295   ar
   518   718   719    2
   519   607   608    1
   520    82    79    1
   521  1892  1891    1
   522  1892  1893    1
   523   339   337   ar
   524   339   341    1
   525   950   951    1
   526   529   528    1
   527   502   501    1
   528   502   503    2
   529   202   200    2
   530   337   338    2
   531   407   408    1
   532   397   403   ar
   533   397   398   ar
   534  1875  1874    1
   535   743   736   ar
   536   501   499    1
   537   315   314   ar
   538   838   840   ar
   539   838   837   ar
   540   741   740    1
   541   603   596   ar
   542   603   602   ar
   543   583   581   ar
   544   197   198   ar
   545   197   195   ar
   546   624   625    2
   547   624   626    1
   548   624   612    1
   549   560   561    1
   550   946   945   ar
   551   543   542   ar
   552    90    91   ar
   553    90    97   ar
   554   840   841   ar
   555   403   402   ar
   556   421   422   ar
   557   421   419   ar
   558    91    93   ar
   559   596   597   ar
   560   517   519   ar
   561   517   516   ar
   562   639   641   ar
   563   639   640    2
   564   641   643    1
   565   540   541    2
   566   540   542   ar
   567   960   959   ar
   568   960   961   ar
   569   740   739   ar
   570   580   581   ar
   571    80    79    2
   572   942   941    1
   573   420   419    2
   574   835   836    1
   575   835   833    1
   576   299   300   ar
   577   611   612    1
   578   611   613    1
   579   611   609    1
   580   731   730    1
   581   731   735    1
   582   196   195    2
   583   519   520   ar
   584   198   191   ar
   585   730   732    1
   586  1896  1908    1
   587  1896  1895    1
   588   941   943   ar
   589   185   187    1
   590   185   186    1
   591  1908  1911    1
   592  1908  1910    1
   593   514   515    1
   594   514   512    1
   595   959   958   ar
   596   408   409    1
   597   847   846    2
   598   313   314   ar
   599   951   952    1
   600   422   415   ar
   601   581   582    1
   602  1042  1041    2
   603   608   609    1
   604   846   848    1
   605   846   834    1
   606   963   962    1
   607   503   504    1
   608   195   194   ar
   609   613   614    1
   610   542   544    1
   611   399   398    1
   612   419   418   ar
   613  1893  1895    1
   614  1893  1894    1
   615  1871  1872    1
   616  1871  1870    1
   617   602   600   ar
   618   515   516    1
   619   515   511    1
   620    79    68    1
   621    79    81    1
   622   295   296    1
   623   295   294   ar
   624   398   400   ar
   625   305   304    1
   626   188   200    1
   627   188   187    1
   628   528   525    1
   629    97    96   ar
   630   200   201    1
   631   200   203    1
   632   836   837    1
   633   836   832    1
   634  1868  1867    2
   635  1872  1874    1
   636  1872  1873    1
   637   187   189    1
   638   837   844   ar
   639   499   500    1
   640   499   498    2
   641  1067  1066    1
   642    93    94   ar
   643  1043  1041   ar
   644  1043  1044   ar
   645   736   735    1
   646   736   737   ar
   647  1874  1876    1
   648   459   458    2
   649   516   523   ar
   650  1074  1075    1
   651  1074  1073    1
   652   945   944   ar
   653  1911  1912    1
   654   842   841    2
   655   841   843   ar
   656   402   401   ar
   657   597   598    2
   658   597   599   ar
   659  1075  1076    1
   660  1075  1077    1
   661   237   236    2
   662   609   610    1
   663   186   190    1
   664   834   833    1
   665  1057  1058    1
   666  1057  1055    1
   667  1895  1897    1
   668   732   733    1
   669   732   734    1
   670  1076  1080    1
   671   961   962   ar
   672   961   967   ar
   673  1058  1054    1
   674  1058  1059    1
   675  1041  1040   ar
   676   735   734    1
   677  1045  1044    1
   678   257   256    2
   679   739   737   ar
   680   833   831    1
   681  1068  1066   ar
   682  1068  1069   ar
   683   300   294   ar
   684   300   291   ar
   685   953   952    1
   686   953   957    1
   687   987   985    1
   688   962   964   ar
   689   520   521    2
   690   520   522   ar
   691   623   621    1
   692   746   744    2
   693   240   238    1
   694  1056  1055    1
   695  1056  1070    1
   696   216   215    1
   697    68    67    1
   698  1054  1053    1
   699   943   944   ar
   700   513   512    1
   701   513   525    1
   702   191   190    1
   703   191   192   ar
   704  1053  1055    1
   705  1053  1052    1
   706  1912  1913    1
   707  1071  1070    2
   708   304   301    1
   709   410   409    1
   710   410   414    1
   711   511   510    1
   712   622   621   ar
   713   622   615   ar
   714  1876  1877    1
   715   512   510    1
   716  1024  1023    1
   717  1066  1065   ar
   718   952   954    1
   719   294   293   ar
   720    96    94   ar
   721   958   967   ar
   722   958   957    1
   723   504   498    1
   724   504   495    1
   725  1870  1867    1
   726  1044  1046   ar
   727   984   983    2
   728   737   738    2
   729    94    95    1
   730  1894  1898    1
   731   409   411    1
   732  1025  1023   ar
   733  1025  1026   ar
   734   733   744    1
   735   415   414    1
   736   415   416   ar
   737   460   458   ar
   738   460   461   ar
   739   440   760   ar
   740   440   439   ar
   741   600   599   ar
   742   600   601    1
   743   400   401   ar
   744   194   192   ar
   745   970   968    2
   746   213   212   ar
   747   213   214   ar
   748   277   276    1
   749   621   619   ar
   750   418   416   ar
   751   458   457   ar
   752   526   525    2
   753   498   497    1
   754  1867  1854    1
   755  1867  1869    1
   756  1080  1079    1
   757  1080  1081    1
   758   426   424    2
   759   844   843   ar
   760   203   204    1
   761   614   615    1
   762   614   610    1
   763   190   189    1
   764   615   616   ar
   765  1873  1877    1
   766   510   509    1
   767   481   480    1
   768   832   831    1
   769   525   527    1
   770    69    67    1
   771    69    70    1
   772   745   744    1
   773   843   845    1
   774  1073  1070    1
   775  1078  1077    1
   776  1078  1090    1
   777   236   238   ar
   778   236   235   ar
   779   967   966   ar
   780   523   522   ar
   781   289   290    1
   782   289   287    1
   783   760   759   ar
   784  1070  1072    1
   785   744   747    1
   786  1077  1079    1
   787  1059  1069   ar
   788  1059  1060   ar
   789   831   830    1
   790  1069  1062   ar
   791   957   956    1
   792   954   955    1
   793   954   956    1
   794   192   193    2
   795  1023  1022   ar
   796   819   818    2
   797  1897  1898    1
   798  1854  1853    1
   799   411   412    1
   800   411   413    1
   801   256   255   ar
   802   256   258   ar
   803  1026  1027   ar
   804   619   620    2
   805   619   618   ar
   806   522   524    1
   807   462   461    1
   808  1052  1051    1
   809   479   480   ar
   810   479   477   ar
   811   414   413    1
   812   291   290    1
   813   291   292   ar
   814   416   417    2
   815    67    65    1
   816   238   239   ar
   817   212   211   ar
   818  1040  1039    1
   819  1040  1047   ar
   820  1877  1878    1
   821   616   618   ar
   822   616   617    2
   823   215   214   ar
   824   215   217   ar
   825   985   983   ar
   826   985   986   ar
   827   964   965   ar
   828   983   982   ar
   829   275   276   ar
   830   275   273   ar
   831   820   818   ar
   832   820   821   ar
   833   757   756   ar
   834   757   758   ar
   835   223   221    2
   836   290   286    1
   837   214   220   ar
   838   461   463   ar
   839  1913  1914    1
   840  1913  1915    1
   841    73    72    2
   842   822   821    2
   843   441   439    2
   844   441   442    1
   845  1038  1039    1
   846  1038  1036    1
   847  1065  1063   ar
   848  1898  1899    1
   849   276   278   ar
   850   439   438   ar
   851   255   253   ar
   852   495   494    1
   853   495   496    1
   854   480   482   ar
   855  1004  1003    2
   856   302   301    2
   857   301   288    1
   858   301   303    1
   859  1039  1035    1
   860   478   477    2
   861   293   292   ar
   862   968   955    1
   863   968   969    1
   864   968   971    1
   865  1046  1047   ar
   866   260   258    1
   867  1081  1088   ar
   868  1081  1082   ar
   869   412   424    1
   870   424   425    1
   871   424   427    1
   872   818   817   ar
   873   781   780    2
   874   457   456   ar
   875   457   464   ar
   876   494   493    1
   877   494   490    1
   878   204   205    1
   879   235   233   ar
   880   497   496    2
   881  1906  1899   ar
   882  1906  1905   ar
   883   288   287    1
   884   477   476   ar
   885    70    71    1
   886    70    66    1
   887  1091  1090    2
   888   287   285    1
   889   493   491    1
   890   759   758   ar
   891   759   761   ar
   892   821   823   ar
   893   756   755   ar
   894  1916  1915    1
   895   966   965   ar
   896   509   508    1
   897  1060  1061   ar
   898  1088  1087   ar
   899   258   259   ar
   900  1094  1093    1
   901  1094  1095    1
   902  1083  1082    2
   903    65    66    1
   904    65    64    1
   905  1062  1063   ar
   906  1062  1061   ar
   907  1914  1918    1
   908  1090  1093    1
   909  1090  1092    1
   910   274   273    2
   911   758   764   ar
   912  1907  1905    1
   913  1855  1853    1
   914  1855  1856    1
   915    72    74   ar
   916    72    71   ar
   917   273   272   ar
   918   456   455   ar
   919  1853  1851    1
   920   217   218   ar
   921   830   829    1
   922   747   748    1
   923  1027  1028   ar
   924  1022  1028   ar
   925  1022  1021   ar
   926  1899  1900   ar
   927  1915  1917    1
   928   986   979   ar
   929  1082  1084   ar
   930  1051  1048    1
   931   239   232   ar
   932   211   220   ar
   933   211   210    1
   934  1063  1064    2
   935   982   980   ar
   936  1878  1879   ar
   937  1878  1887   ar
   938   803   802    1
   939   463   464   ar
   940   442   435    1
   941   220   219   ar
   942   438   761   ar
   943   438   436   am
   944    74    75   ar
   945   221   222    1
   946   221   208    1
   947   221   224    1
   948  1007  1005    1
   949  1003  1005   ar
   950  1003  1002   ar
   951   286   285    1
   952  1905  1903   ar
   953   464   454   ar
   954    71    78   ar
   955   278   279   ar
   956   253   254    2
   957   253   252   ar
   958   829   826    1
   959   971   972    1
   960  1036  1037    1
   961  1036  1034    1
   962   482   483   ar
   963   207   205    1
   964   207   208    1
   965   207   209    1
   966  1095  1096    1
   967  1095  1097    1
   968   508   505    1
   969  1035  1034    1
   970   427   428    1
   971  1028  1019   ar
   972   780   782   ar
   973   780   779   ar
   974   205   206    1
   975  1851  1850    1
   976  1851  1852    1
   977   206   210    1
   978   490   489    1
   979  1096  1100    1
   980  1926  1925   ar
   981  1926  1919   ar
   982  1946  1944    1
   983   761   762   ar
   984  1879  1880   ar
   985  1115  1119    1
   986  1115  1114    1
   987   817   816    1
   988   817   824   ar
   989  1037  1048    1
   990  1087  1089    1
   991  1087  1085   ar
   992    64    63    1
   993   285   284    1
   994   233   232   ar
   995   233   234    2
   996  1927  1928    2
   997  1927  1929    2
   998  1927  1930    1
   999  1886  1887   ar
  1000  1886  1885   ar
  1001   476   483   ar
  1002   476   475    1
  1003   815   816    1
  1004   815   813    1
  1005  1021  1020   ar
  1006   755   764   ar
  1007   755   754    1
  1008   748   749    1
  1009   259   252   ar
  1010  1887  1881   ar
  1011   823   824   ar
  1012   823   825    1
  1013   232   231    1
  1014   764   763   ar
  1015  1925  1923   ar
  1016  1084  1085   ar
  1017    61    60    2
  1018  1005  1006   ar
  1019  1119  1118    1
  1020  1119  1120    1
  1021   491   492    1
  1022   491   489    1
  1023   218   219   ar
  1024  1002  1000   ar
  1025   210   209    1
  1026  1918  1917    1
  1027  1918  1919    1
  1028    75    76    1
  1029    75    77   ar
  1030  1114  1113    1
  1031  1114  1116    1
  1032   782   783   ar
  1033    63    60    1
  1034   455   454   ar
  1035  1048  1049    2
  1036  1048  1050    1
  1037   979   980   ar
  1038   979   978    1
  1039   224   225    1
  1040   816   812    1
  1041   272   279   ar
  1042   272   271    1
  1043  1856  1852    1
  1044  1856  1857    1
  1045  1122  1121    2
  1046    78    77   ar
  1047  1034  1033    1
  1048   980   981    2
  1049  1900  1901    2
  1050  1900  1902   ar
  1051   252   251    1
  1052   778   779   ar
  1053   778   777   ar
  1054  1850  1849    1
  1055   802   801   ar
  1056   802   804   ar
  1057   435   436   am
  1058   435   434    1
  1059   436   437    2
  1060   750   749    1
  1061   750   754    1
  1062   801   799   ar
  1063  1085  1086    2
  1064   454   453    1
  1065   492   505    1
  1066   779   786   ar
  1067   489   488    1
  1068  1930  1931    1
  1069  1113  1112    1
  1070  1919  1920   ar
  1071  1865  1864   ar
  1072  1865  1866   ar
  1073   243   241    2
  1074  1903  1902   ar
  1075  1903  1904    2
  1076   972   973    1
  1077    60    62    1
  1078    60    47    1
  1079   475   474    1
  1080   475   471    1
  1081  1118  1116    1
  1082   762   763   ar
  1083  1880  1881   ar
  1084   428   429    1
  1085  1120  1121   ar
  1086  1120  1127   ar
  1087  1885  1884   ar
  1088  1019  1020   ar
  1089  1019  1018    1
  1090  1097  1098    1
  1091  1097  1099    1
  1092  1121  1123   ar
  1093  1098  1109    1
  1094  1100  1101    1
  1095  1100  1099    1
  1096   974   978    1
  1097   974   973    1
  1098   826   828    2
  1099   826   814    1
  1100   826   827    1
  1101   749   751    1
  1102   505   506    2
  1103   505   507    1
  1104   754   753    1
  1105   767   765    2
  1106  1881  1882   ar
  1107    57    56   ar
  1108    57    58   ar
  1109  1864  1863   ar
  1110   284   283    1
  1111  1135  1134    1
  1112  1135  1139    1
  1113  1944  1945    2
  1114  1944  1942    1
  1115   283   280    1
  1116   813   814    1
  1117   813   811    1
  1118   474   472    1
  1119  1857  1866   ar
  1120  1857  1858   ar
  1121  1116  1117    1
  1122   430   434    1
  1123   430   429    1
  1124  1849  1846    1
  1125   271   270    1
  1126   271   267    1
  1127  1866  1860   ar
  1128   978   977    1
  1129    56    54   ar
  1130   231   227    1
  1131   231   230    1
  1132  1923  1924    1
  1133  1923  1922   ar
  1134  1006   999   ar
  1135  1134  1133    1
  1136  1134  1136    1
  1137  1101  1108   ar
  1138  1101  1102   ar
  1139   227   226    1
  1140  1117  1129    1
  1141  1108  1107   ar
  1142  1847  1846    2
  1143  1133  1132    1
  1144  1000  1001    2
  1145  1000   999   ar
  1146   804   805   ar
  1147   270   268    1
  1148    58    59   ar
  1149   783   784    1
  1150   783   785   ar
  1151    47    46    1
  1152   251   250    1
  1153   251   247    1
  1154   225   226    1
  1155   751   753    1
  1156   751   752    1
  1157   777   776   ar
  1158   434   433    1
  1159  1943  1942    2
  1160   812   811    1
  1161   973   975    1
  1162   250   248    1
  1163  1127  1126   ar
  1164   799   800    2
  1165   799   798   ar
  1166  1033  1032    1
  1167  1139  1138    1
  1168  1139  1140    1
  1169  1945  1938    1
  1170  1123  1124   ar
  1171  1032  1029    1
  1172   445   443    2
  1173   429   431    1
  1174   453   449    1
  1175   453   452    1
  1176   786   785   ar
  1177   786   776   ar
  1178   975   977    1
  1179   975   976    1
  1180  1112  1109    1
  1181    48    46    1
  1182    48    49    1
  1183   228   226    1
  1184   228   230    1
  1185   228   229    1
  1186   990   988    2
  1187   471   470    1
  1188  1863  1861   ar
  1189  1920  1922   ar
  1190  1920  1921    2
  1191  1931  1932    1
  1192   488   487    1
  1193  1884  1882   ar
  1194  1018  1017    1
  1195  1018  1014    1
  1196  1942  1941   am
  1197   431   433    1
  1198   431   432    1
  1199  1130  1129    2
  1200  1882  1883    1
  1201   999   998    1
  1202  1858  1859   ar
  1203  1017  1015    1
  1204  1103  1102    2
  1205   241   244    1
  1206   241   229    1
  1207   241   242    1
  1208  1102  1104   ar
  1209  1107  1105   ar
  1210   811   810    1
  1211  1846  1835    1
  1212  1846  1848    1
  1213    54    55    1
  1214    54    53   ar
  1215  1860  1861   ar
  1216  1860  1859   ar
  1217   282   280    2
  1218  1138  1136    1
  1219   244   245    1
  1220   487   484    1
  1221    46    44    1
  1222  1109  1110    2
  1223  1109  1111    1
  1224  1132  1129    1
  1225  1932  1933    1
  1226  1932  1934    1
  1227    59    53   ar
  1228    59    50   ar
  1229   765   752    1
  1230   765   766    1
  1231   765   768    1
  1232  1129  1131    1
  1233   263   261    2
  1234  1126  1124   ar
  1235  1126  1128    1
  1236   268   269    1
  1237   268   266    1
  1238   267   266    1
  1239   776   775    1
  1240  1933  1937    1
  1241   472   470    1
  1242   472   473    1
  1243   247   246    1
  1244  1124  1125    2
  1245   280   269    1
  1246   280   281    1
  1247  1149  1150   ar
  1248  1149  1147   ar
  1249  1861  1862    1
  1250  1136  1137    1
  1251   449   448    1
  1252  1835  1834    1
  1253   452   450    1
  1254   805   798   ar
  1255  1140  1150   ar
  1256  1140  1141   ar
  1257   798   797    1
  1258  1148  1147    1
  1259    53    52   ar
  1260  1137  1151    1
  1261   432   443    1
  1262  1104  1105   ar
  1263  1105  1106    1
  1264   446   443    1
  1265   446   447    1
  1266   976   988    1
  1267   443   444    1
  1268  1031  1029    2
  1269  1150  1143   ar
  1270  1938  1939    2
  1271   248   246    1
  1272   248   249    1
  1273   470   469    1
  1274    50    49    1
  1275    50    51   ar
  1276  1147  1146   ar
  1277   486   484    2
  1278  1015  1016    1
  1279  1015  1013    1
  1280    49    45    1
  1281  1014  1013    1
  1282  1029  1016    1
  1283  1029  1030    1
  1284   768   769    1
  1285   988   991    1
  1286   988   989    1
  1287  1941  1939   am
  1288   264   261    1
  1289   264   265    1
  1290   484   473    1
  1291   484   485    1
  1292   450   448    1
  1293   450   451    1
  1294   266   265    1
  1295  1141  1142   ar
  1296   245   246    1
  1297  1651  1650    2
  1298   467   465    2
  1299   809   810    1
  1300   809   806    1
  1301   998   994    1
  1302   998   997    1
  1303   991   992    1
  1304   468   469    1
  1305   468   465    1
  1306  1836  1834    1
  1307  1836  1837    1
  1308  1834  1832    1
  1309  1937  1936    1
  1310   261   249    1
  1311   261   262    1
  1312    44    45    1
  1313    44    43    1
  1314  1010  1008    2
  1315  1935  1934    1
  1316   448   447    1
  1317    52    51   ar
  1318  1934  1936    1
  1319  1939  1940    2
  1320   775   771    1
  1321   775   774    1
  1322  1143  1142   ar
  1323  1143  1144   ar
  1324  1157  1156    1
  1325  1157  1161    1
  1326  1013  1012    1
  1327   789   787    2
  1328  1146  1144   ar
  1329   994   993    1
  1330  1152  1151    2
  1331  1011  1008    1
  1332  1011  1012    1
  1333   797   796    1
  1334   797   793    1
  1335  1155  1156    1
  1336  1155  1154    1
  1337   771   770    1
  1338  1634  1635   ar
  1339  1634  1632   ar
  1340   796   794    1
  1341   808   806    2
  1342  1635  1636   ar
  1343  1590  1589    1
  1344  1840  1839    2
  1345   997   995    1
  1346  1151  1154    1
  1347  1151  1153    1
  1348  1156  1158    1
  1349   465   451    1
  1350   465   466    1
  1351   995   993    1
  1352   995   996    1
  1353   769   770    1
  1354   774   772    1
  1355  1144  1145    2
  1356   772   770    1
  1357   772   773    1
  1358  1650  1652   ar
  1359  1650  1649   ar
  1360    43    42    1
  1361  1611  1610    2
  1362  1008   996    1
  1363  1008  1009    1
  1364   806   795    1
  1365   806   807    1
  1366   992   993    1
  1367    42    39    1
  1368  1161  1162    1
  1369  1161  1160    1
  1370   794   795    1
  1371   794   792    1
  1372  1832  1831    1
  1373  1832  1833    1
  1374  1652  1653   ar
  1375   790   787    1
  1376   790   791    1
  1377  1612  1610   ar
  1378  1612  1613   ar
  1379  1837  1838    1
  1380  1837  1833    1
  1381   793   792    1
  1382  1839  1841   ar
  1383  1839  1838   ar
  1384  1633  1632    1
  1385  1648  1647    1
  1386  1648  1649    1
  1387  1648  1644    1
  1388  1614  1613    1
  1389  1632  1631   ar
  1390  1663  1664    1
  1391  1663  1662    1
  1392  1663  1665    1
  1393   787   773    1
  1394   787   788    1
  1395  1664  1668    1
  1396  1831  1830    1
  1397  1636  1637   ar
  1398  1647  1645    1
  1399  1841  1842   ar
  1400  1610  1609   ar
  1401  1589  1591   ar
  1402  1589  1588   ar
  1403  1162  1169   ar
  1404  1162  1163   ar
  1405  1649  1656   ar
  1406  1662  1661    1
  1407  1838  1845   ar
  1408  1169  1168   ar
  1409  1160  1158    1
  1410  1158  1159    1
  1411   792   791    1
  1412  1668  1667    1
  1413  1668  1669    1
  1414  1613  1615   ar
  1415  1644  1643    1
  1416  1591  1592   ar
  1417  1667  1665    1
  1418    39    41    2
  1419    39    40    1
  1420    39    27    1
  1421  1164  1163    2
  1422  1159  1170    1
  1423  1666  1665    1
  1424  1666  1679    1
  1425  1163  1165   ar
  1426  1842  1843    1
  1427  1842  1844   ar
  1428  1653  1654    2
  1429  1653  1655   ar
  1430  1168  1166   ar
  1431  1637  1631   ar
  1432  1637  1628   ar
  1433  1631  1630   ar
  1434  1643  1645    1
  1435  1643  1642    1
  1436  1845  1844   ar
  1437  1646  1645    1
  1438  1646  1658    1
  1439  1587  1588   ar
  1440  1587  1586   ar
  1441  1588  1594   ar
  1442  1830  1827    1
  1443    32    31    2
  1444  1680  1679    2
  1445    33    31   ar
  1446    33    34   ar
  1447  1609  1616   ar
  1448  1609  1608   ar
  1449    35    34    2
  1450  1661  1658    1
  1451  1656  1655   ar
  1452  1165  1166   ar
  1453  1166  1167    1
  1454  1669  1678   ar
  1455  1669  1670   ar
  1456    31    30   ar
  1457  1615  1616   ar
  1458  1828  1827    2
  1459  1659  1658    2
  1460  1592  1593   ar
  1461    34    36   ar
  1462    28    26    1
  1463    28    29    1
  1464    27    26    1
  1465  1655  1657    1
  1466  1171  1170    2
  1467  1658  1660    1
  1468  1677  1678   ar
  1469  1677  1676   ar
  1470  1682  1679    1
  1471  1682  1683    1
  1472  1829  1827    1
  1473  1827  1813    1
  1474  1616  1606   ar
  1475  1679  1681    1
  1476  1683  1684    1
  1477  1608  1607   ar
  1478  1170  1173    1
  1479  1170  1172    1
  1480  1628  1627    1
  1481  1628  1629   ar
  1482  1630  1629   ar
  1483  1176  1175    1
  1484  1176  1180    1
  1485  1824  1823    1
  1486  1642  1641    1
  1487  1678  1672   ar
  1488  1670  1671   ar
  1489  1174  1175    1
  1490  1174  1173    1
  1491    26    24    1
  1492  1586  1585   ar
  1493    30    37   ar
  1494    30    29    1
  1495  1594  1593   ar
  1496  1594  1585   ar
  1497    36    37   ar
  1498    36    38    1
  1499  1822  1823   ar
  1500  1822  1820   ar
  1501  1175  1177    1
  1502  1823  1825   ar
  1503  1627  1626    1
  1504  1627  1623    1
  1505    29    25    1
  1506  1626  1624    1
  1507    14    13    1
  1508  1676  1675   ar
  1509  1821  1820    2
  1510  1820  1819   ar
  1511  1576  1574    2
  1512    15    13   ar
  1513    15    16   ar
  1514  1180  1181    1
  1515  1180  1179    1
  1516  1814  1812    1
  1517  1814  1815    1
  1518  1585  1584    1
  1519  1641  1638    1
  1520  1813  1812    1
  1521  1825  1826   ar
  1522  1684  1685    1
  1523  1684  1686    1
  1524  1606  1607   ar
  1525  1606  1605    1
  1526  1671  1672   ar
  1527  1672  1673   ar
  1528  1182  1181   ar
  1529  1182  1183   ar
  1530    13    12   ar
  1531  1685  1689    1
  1532  1819  1826   ar
  1533  1819  1818   ar
  1534  1181  1190   ar
  1535  1826  1816   ar
  1536    16    17   ar
  1537  1562  1574    1
  1538  1562  1561    1
  1539    24    25    1
  1540    24    23    1
  1541  1812  1810    1
  1542  1675  1673   ar
  1543  1183  1184   ar
  1544  1623  1622    1
  1545  1559  1561    1
  1546  1559  1558    1
  1547  1559  1560    1
  1548  1179  1177    1
  1549  1818  1817   ar
  1550  1815  1816    1
  1551  1815  1811    1
  1552  1177  1178    1
  1553  1691  1690   ar
  1554  1691  1692   ar
  1555  1624  1625    1
  1556  1624  1622    1
  1557  1673  1674    1
  1558  1574  1575    1
  1559  1574  1577    1
  1560  1816  1817   ar
  1561  1190  1184   ar
  1562  1190  1189   ar
  1563  1605  1604    1
  1564  1605  1601    1
  1565  1373  1372    2
  1566  1358  1357    1
  1567  1358  1359    1
  1568  1358  1360    1
  1569  1563  1561    1
  1570  1563  1564    1
  1571    22    23    1
  1572    22    19    1
  1573  1686  1687    1
  1574  1686  1688    1
  1575  1558  1557    1
  1576  1361  1360    1
  1577  1361  1372    1
  1578  1184  1185   ar
  1579    12    18   ar
  1580    12    11   ar
  1581  1625  1638    1
  1582  1357  1356    1
  1583  1690  1689    1
  1584  1690  1700   ar
  1585  1638  1639    2
  1586  1638  1640    1
  1587  1178  1191    1
  1588  1560  1564    1
  1589  1692  1693   ar
  1590  1584  1580    1
  1591  1584  1583    1
  1592    17    18   ar
  1593  1689  1688    1
  1594  1189  1188   ar
  1595  1604  1602    1
  1596  1622  1621    1
  1597  1376  1377    1
  1598  1376  1375    1
  1599  1359  1363    1
  1600  1564  1565    1
  1601  1687  1701    1
  1602    21    19    2
  1603  1580  1579    1
  1604  1806  1805    2
  1605  1362  1360    1
  1606  1362  1363    1
  1607    18     9   ar
  1608  1810  1811    1
  1609  1810  1809    1
  1610  1185  1186    1
  1611  1185  1187   ar
  1612  1703  1701    2
  1613  1808  1805    1
  1614  1808  1809    1
  1615    11    10   ar
  1616  1372  1375    1
  1617  1372  1374    1
  1618  1601  1600    1
  1619  1577  1578    1
  1620  1807  1805    1
  1621  1188  1187   ar
  1622  1363  1364    1
  1623    19    20    1
  1624    19     6    1
  1625  1354  1353    2
  1626  1377  1378    1
  1627  1377  1379    1
  1628  1578  1579    1
  1629  1583  1581    1
  1630  1555  1554    2
  1631  1700  1693   ar
  1632  1700  1699    1
  1633  1693  1694    1
  1634  1805  1793    1
  1635  1557  1554    1
  1636  1602  1600    1
  1637  1602  1603    1
  1638  1356  1353    1
  1639  1581  1579    1
  1640  1581  1582    1
  1641  1701  1702    1
  1642  1701  1704    1
  1643  1720  1718    1
  1644  1378  1382    1
  1645  1567  1566    2
  1646  1192  1191    2
  1647  1542  1554    1
  1648  1542  1541    1
  1649     9    10   ar
  1650     9     8    1
  1651  1621  1620    1
  1652  1350  1349    1
  1653  1339  1353    1
  1654  1339  1338    1
  1655  1340  1338    1
  1656  1340  1341    1
  1657  1620  1617    1
  1658  1619  1617    2
  1659  1565  1566   ar
  1660  1565  1572   ar
  1661  1353  1355    1
  1662  1191  1193    1
  1663  1191  1194    1
  1664  1699  1697    1
  1665  1801  1800    2
  1666  1597  1595    2
  1667  1554  1556    1
  1668  1600  1599    1
  1669     7     5    1
  1670     7     8    1
  1671  1380  1379    1
  1672  1380  1392    1
  1673  1694  1695    2
  1674  1694  1696    1
  1675  1799  1800   ar
  1676  1799  1797   ar
  1677  1598  1599    1
  1678  1598  1595    1
  1679  1603  1617    1
  1680  1197  1201    1
  1681  1197  1196    1
  1682  1566  1568   ar
  1683  1379  1381    1
  1684     6     5    1
  1685     5     3    1
  1686  1617  1618    1
  1687  1366  1365    2
  1688  1364  1365   ar
  1689  1364  1371   ar
  1690  1800  1802   ar
  1691  1393  1392    2
  1692  1543  1541    1
  1693  1543  1544    1
  1694  1338  1336    1
  1695  1798  1797    2
  1696  1351  1349   ar
  1697  1351  1352   ar
  1698     8     4    1
  1699  1582  1595    1
  1700  1797  1796   ar
  1701  1341  1337    1
  1702  1341  1342    1
  1703  1541  1539    1
  1704  1382  1381    1
  1705  1382  1383    1
  1706  1793  1792    1
  1707  1572  1571   ar
  1708  1349  1348   ar
  1709  1697  1696    2
  1710  1697  1698    2
  1711  1195  1196    1
  1712  1195  1194    1
  1713  1718  1716   ar
  1714  1718  1719   ar
  1715     1     2    1
  1716  1704  1705    1
  1717  1717  1716    2
  1718  1595  1596    1
  1719  1201  1202    1
  1720  1201  1200    1
  1721  1196  1198    1
  1722  1365  1367   ar
  1723  1336  1337    1
  1724  1336  1335    1
  1725  1371  1370   ar
  1726  1794  1792    1
  1727  1794  1795    1
  1728  1209  1202   ar
  1729  1209  1208   ar
  1730  1802  1804    1
  1731  1802  1803   ar
  1732  1792  1790    1
  1733  1539  1538    1
  1734  1539  1540    1
  1735  1392  1394    1
  1736  1392  1395    1
  1737  1202  1203   ar
  1738  1208  1206   ar
  1739  1796  1803   ar
  1740  1796  1795    1
  1741  1716  1715   ar
  1742  1719  1712   ar
  1743  1544  1540    1
  1744  1544  1545    1
  1745  1568  1569   ar
  1746  1352  1342   ar
  1747  1352  1345   ar
  1748  1698  1779    1
  1749     3     4    1
  1750     3     2    1
  1751  1547  1546    2
  1752  1390  1383   ar
  1753  1390  1389   ar
  1754  1342  1343   ar
  1755  1383  1384   ar
  1756  1328  1329   ar
  1757  1328  1327   ar
  1758  1203  1204    2
  1759  1203  1205   ar
  1760  1206  1205   ar
  1761  1206  1207    1
  1762  1396  1395    1
  1763  1396  1397    1
  1764  1705  1706    1
  1765  1538  1537    1
  1766  1348  1346   ar
  1767  1571  1569   ar
  1768  1571  1573    1
  1769  1795  1791    1
  1770  1200  1198    1
  1771  1329  1330   ar
  1772  1335  1334    1
  1773  1779  1778    1
  1774  1367  1368   ar
  1775  1370  1368   ar
  1776  1198  1199    1
  1777  1707  1706    1
  1778  1707  1711    1
  1779  1569  1570    2
  1780  1790  1791    1
  1781  1790  1789    1
  1782  1327  1325   ar
  1783  1391  1389    1
  1784  1389  1387   ar
  1785  1715  1713   ar
  1786  1546  1545   ar
  1787  1546  1548   ar
  1788  1545  1552   ar
  1789  1712  1713   ar
  1790  1712  1711    1
  1791  1384  1385    2
  1792  1384  1386   ar
  1793  1334  1331    1
  1794  1780  1778    2
  1795  1780  1781    2
  1796  1537  1534    1
  1797  1788  1789    1
  1798  1788  1785    1
  1799  1345  1346   ar
  1800  1345  1344   ar
  1801  1778  1777    1
  1802  1368  1369    1
  1803  1199  1210    1
  1804  1706  1708    1
  1805  1397  1398    1
  1806  1397  1399    1
  1807  1319  1320    1
  1808  1319  1317    1
  1809  1343  1344   ar
  1810  1346  1347    2
  1811  1398  1402    1
  1812  1411  1409    1
  1813  1330  1321   ar
  1814  1330  1324   ar
  1815  1713  1714    1
  1816  1711  1710    1
  1817  1782  1781    1
  1818  1787  1785    2
  1819  1320  1321    1
  1820  1320  1316    1
  1821  1535  1534    2
  1822  1781  1783    1
  1823  1386  1387   ar
  1824  1387  1388    2
  1825  1777  1776   ar
  1826  1777  1784   ar
  1827  1786  1785    1
  1828  1785  1771    1
  1829  1325  1324   ar
  1830  1325  1326    1
  1831  1548  1549   ar
  1832  1552  1551   ar
  1833  1410  1409   ar
  1834  1410  1403   ar
  1835  1708  1710    1
  1836  1708  1709    1
  1837  1414  1412    2
  1838  1321  1322   ar
  1839  1776  1775   ar
  1840  1534  1521    1
  1841  1534  1536    1
  1842  1318  1317    1
  1843  1318  1331    1
  1844  1409  1407   ar
  1845  1210  1212    2
  1846  1210  1211    1
  1847  1210  1213    1
  1848  1399  1400    1
  1849  1399  1401    1
  1850  1324  1323   ar
  1851  1317  1315    1
  1852  1331  1333    2
  1853  1331  1332    1
  1854  1216  1220    1
  1855  1216  1215    1
  1856  1783  1784    1
  1857  1784  1774   ar
  1858  1714  1755    1
  1859  1288  1287    1
  1860  1316  1315    1
  1861  1402  1403    1
  1862  1402  1401    1
  1863  1304  1303    2
  1864  1758  1757    1
  1865  1214  1213    1
  1866  1214  1215    1
  1867  1403  1404   ar
  1868  1412  1413    2
  1869  1412  1415    1
  1870  1222  1223    2
  1871  1222  1221    1
  1872  1775  1774   ar
  1873  1315  1314    1
  1874  1709  1721    1
  1875  1531  1530   ar
  1876  1531  1532   ar
  1877  1223  1224    1
  1878  1551  1549   ar
  1879  1551  1553    1
  1880  1305  1303   ar
  1881  1305  1306   ar
  1882  1549  1550    2
  1883  1521  1520    1
  1884  1771  1770    1
  1885  1221  1220    1
  1886  1221  1230    1
  1887  1774  1773    1
  1888  1220  1219    1
  1889  1215  1217    1
  1890  1744  1742    2
  1891  1765  1763    2
  1892  1530  1528   ar
  1893  1723  1721    2
  1894  1721  1722    1
  1895  1721  1724    1
  1896  1407  1408    2
  1897  1407  1406   ar
  1898  1224  1230    1
  1899  1224  1225    2
  1900  1770  1772    1
  1901  1770  1768    1
  1902  1322  1323   ar
  1903  1532  1533   ar
  1904  1303  1302   ar
  1905  1230  1229    1
  1906  1522  1520    1
  1907  1522  1523    1
  1908  1226  1225    1
  1909  1286  1287   ar
  1910  1286  1284   ar
  1911  1225  1227    1
  1912  1772  1773    1
  1913  1307  1306    1
  1914  1757  1756    2
  1915  1757  1759    1
  1916  1287  1289   ar
  1917  1755  1756    1
  1918  1755  1754    1
  1919  1229  1228    2
  1920  1404  1406   ar
  1921  1404  1405    2
  1922  1766  1763    1
  1923  1766  1767    1
  1924  1227  1228    1
  1925  1227  1759    1
  1926  1428  1427    1
  1927  1415  1416    1
  1928  1306  1308   ar
  1929  1520  1518    1
  1930  1756  1762    1
  1931  1759  1760    1
  1932  1763  1764    1
  1933  1763  1750    1
  1934  1743  1742    1
  1935  1528  1529    1
  1936  1528  1527   ar
  1937  1773  1769    1
  1938  1533  1527   ar
  1939  1533  1524   ar
  1940  1724  1725    1
  1941  1742  1745    1
  1942  1742  1729    1
  1943  1427  1429   ar
  1944  1427  1426   ar
  1945  1314  1313    1
  1946  1429  1430   ar
  1947  1285  1284    2
  1948  1754  1753    1
  1949  1434  1433    1
  1950  1284  1283   ar
  1951  1217  1219    1
  1952  1217  1218    1
  1953  1768  1767    1
  1954  1768  1769    1
  1955  1527  1526   ar
  1956  1523  1524    1
  1957  1523  1519    1
  1958  1302  1301    1
  1959  1302  1309   ar
  1960  1289  1290   ar
  1961  1430  1431   ar
  1962  1426  1425   ar
  1963  1426  1432   ar
  1964  1737  1736    1
  1965  1524  1525   ar
  1966  1734  1733   ar
  1967  1734  1735   ar
  1968  1416  1417    1
  1969  1762  1753    1
  1970  1762  1761    1
  1971  1760  1761    2
  1972  1425  1424   ar
  1973  1745  1746    1
  1974  1313  1310    1
  1975  1301  1300    1
  1976  1301  1297    1
  1977  1753  1752    1
  1978  1300  1298    1
  1979  1518  1519    1
  1980  1518  1517    1
  1981  1308  1309   ar
  1982  1432  1431   ar
  1983  1432  1423   ar
  1984  1733  1732   ar
  1985  1749  1750    1
  1986  1749  1751    1
  1987  1749  1747    1
  1988  1424  1423   ar
  1989  1509  1510   ar
  1990  1509  1507   ar
  1991  1526  1525   ar
  1992  1746  1747    1
  1993  1269  1270   ar
  1994  1269  1268   ar
  1995  1725  1726    1
  1996  1735  1736   ar
  1997  1735  1741   ar
  1998  1736  1738   ar
  1999  1729  1728    1
  2000  1433  1435    1
  2001  1433  1436    1
  2002  1508  1507    1
  2003  1728  1726    1
  2004  1728  1730    1
  2005  1423  1422    1
  2006  1247  1246    2
  2007  1283  1290   ar
  2008  1283  1282    1
  2009  1270  1271   ar
  2010  1419  1417    1
  2011  1419  1421    1
  2012  1419  1420    1
  2013  1510  1511   ar
  2014  1751  1752    1
  2015  1417  1418    1
  2016  1246  1245   ar
  2017  1246  1248   ar
  2018  1245  1243   ar
  2019  1507  1506   ar
  2020  1268  1266   ar
  2021  1747  1748    1
  2022  1418  1422    1
  2023  1517  1516    1
  2024  1237  1236    1
  2025  1237  1241    1
  2026  1435  1420    1
  2027  1454  1453    2
  2028  1732  1741   ar
  2029  1732  1731    1
  2030  1752  1748    1
  2031  1250  1248    1
  2032  1248  1249   ar
  2033  1235  1234    1
  2034  1235  1236    1
  2035  1726  1727    1
  2036  1437  1436    1
  2037  1437  1438    1
  2038  1516  1513    1
  2039  1297  1296    1
  2040  1243  1244    2
  2041  1243  1242   ar
  2042  1741  1740   ar
  2043  1730  1731    1
  2044  1738  1739   ar
  2045  1421  1422    1
  2046  1310  1312    2
  2047  1310  1311    1
  2048  1310  1299    1
  2049  1234  1231    1
  2050  1298  1299    1
  2051  1298  1296    1
  2052  1249  1242   ar
  2053  1242  1241    1
  2054  1271  1262   ar
  2055  1271  1265   ar
  2056  1727  1731    1
  2057  1282  1281    1
  2058  1282  1278    1
  2059  1236  1238    1
  2060  1511  1512   ar
  2061  1257  1261    1
  2062  1257  1256    1
  2063  1231  1233    2
  2064  1231  1232    2
  2065  1455  1453    1
  2066  1266  1265   ar
  2067  1266  1267    1
  2068  1241  1240    1
  2069  1506  1512   ar
  2070  1506  1505   ar
  2071  1262  1261    1
  2072  1262  1263   ar
  2073  1296  1295    1
  2074  1739  1740   ar
  2075  1453  1441    1
  2076  1453  1456    1
  2077  1261  1260    1
  2078  1515  1513    2
  2079  1514  1513    1
  2080  1281  1279    1
  2081  1265  1264   ar
  2082  1438  1440    1
  2083  1438  1439    1
  2084  1512  1503   ar
  2085  1513  1500    1
  2086  1441  1440    1
  2087  1475  1473    2
  2088  1256  1255    1
  2089  1256  1258    1
  2090  1278  1277    1
  2091  1505  1504   ar
  2092  1501  1499    1
  2093  1501  1502    1
  2094  1274  1272    2
  2095  1263  1264   ar
  2096  1440  1442    1
  2097  1238  1240    1
  2098  1238  1239    1
  2099  1439  1443    1
  2100  1456  1457    1
  2101  1500  1499    1
  2102  1294  1295    1
  2103  1294  1291    1
  2104  1279  1277    1
  2105  1279  1280    1
  2106  1255  1254    1
  2107  1499  1497    1
  2108  1503  1504   ar
  2109  1503  1502    1
  2110  1260  1258    1
  2111  1259  1258    1
  2112  1259  1272    1
  2113  1474  1473    1
  2114  1239  1251    1
  2115  1457  1458    1
  2116  1473  1476    1
  2117  1473  1461    1
  2118  1502  1498    1
  2119  1293  1291    2
  2120  1277  1276    1
  2121  1254  1251    1
  2122  1472  1470    1
  2123  1494  1492    2
  2124  1280  1291    1
  2125  1291  1292    1
  2126  1272  1275    1
  2127  1272  1273    1
  2128  1442  1443    1
  2129  1476  1477    1
  2130  1495  1492    1
  2131  1495  1496    1
  2132  1443  1444    1
  2133  1489  1488    1
  2134  1275  1276    1
  2135  1251  1253    2
  2136  1251  1252    1
  2137  1490  1488   ar
  2138  1490  1491   ar
  2139  1497  1498    1
  2140  1497  1496    1
  2141  1451  1444   ar
  2142  1451  1450   ar
  2143  1461  1460    1
  2144  1492  1493    1
  2145  1492  1481    1
  2146  1452  1450    1
  2147  1458  1460    1
  2148  1458  1459    1
  2149  1488  1487   ar
  2150  1444  1445   ar
  2151  1491  1484   ar
  2152  1460  1462    1
  2153  1470  1471   ar
  2154  1470  1468   ar
  2155  1477  1478    1
  2156  1471  1464   ar
  2157  1450  1448   ar
  2158  1459  1463    1
  2159  1481  1480    1
  2160  1480  1478    1
  2161  1480  1482    1
  2162  1487  1485   ar
  2163  1484  1485   ar
  2164  1484  1483    1
  2165  1469  1468    2
  2166  1468  1467   ar
  2167  1478  1479    1
  2168  1445  1446    2
  2169  1445  1447   ar
  2170  1464  1463    1
  2171  1464  1465   ar
  2172  1485  1486    2
  2173  1462  1463    1
  2174  1479  1483    1
  2175  1448  1447   ar
  2176  1448  1449    2
  2177  1482  1483    1
  2178  1467  1465   ar
  2179  1465  1466    2
