@<TRIPOS>MOLECULE
dna.pdb
 1946 2182 0 0 0
SMALL
GASTEIGER

@<TRIPOS>ATOM
      1  O5'       -2.1790   -9.6100   14.5610 O.3     1  DA1        -0.2176
      2  C5'       -0.8150   -9.3940   14.4750 C.3     1  DA1         0.2140
      3  C4'       -0.5590   -8.0180   13.9770 C.3     1  DA1         0.1776
      4  O4'       -0.9960   -7.0520   14.9660 O.3     1  DA1        -0.3326
      5  C3'        0.9240   -7.7970   13.8220 C.3     1  DA1         0.1559
      6  O3'        1.3410   -8.3540   12.5780 O.3     1  DA1        -0.3138
      7  C2'        1.0430   -6.2990   14.0730 C.3     1  DA1         0.0865
      8  C1'        0.0370   -6.1190   15.2150 C.3     1  DA1         0.2094
      9  N9         0.7020   -6.4280   16.4470 N.ar    1  DA1        -0.2714
     10  C8         0.2320   -7.4090   17.2810 C.ar    1  DA1         0.1815
     11  N7         0.8100   -7.4240   18.4590 N.ar    1  DA1        -0.2192
     12  C5         1.7230   -6.3820   18.3940 C.ar    1  DA1         0.1538
     13  C6         2.6480   -5.8760   19.3230 C.ar    1  DA1         0.2138
     14  N6         2.8110   -6.3730   20.5510 N.pl3   1  DA1        -0.0296
     15  N1         3.4090   -4.8280   18.9410 N.ar    1  DA1        -0.2024
     16  C2         3.2450   -4.3290   17.7110 C.ar    1  DA1         0.2016
     17  N3         2.4090   -4.7180   16.7510 N.ar    1  DA1        -0.2048
     18  C4         1.6680   -5.7610   17.1600 C.ar    1  DA1         0.1692
     19  P          2.0320  -10.0300   12.4910 P.3     2  DT2         0.2141
     20  OP1        1.9150  -10.7870   11.2230 O.2     2  DT2        -0.5172
     21  OP2        2.0400  -10.7590   13.7830 O.3     2  DT2        -0.4373
     22  O5'        3.3270   -9.1020   12.4010 O.3     2  DT2        -0.3114
     23  C5'        3.2700   -7.9170   11.6210 C.3     2  DT2         0.1811
     24  C4'        4.5840   -7.1680   11.6260 C.3     2  DT2         0.1746
     25  O4'        4.8060   -6.5500   12.9270 O.3     2  DT2        -0.3327
     26  C3'        5.7720   -8.0920   11.3930 C.3     2  DT2         0.1558
     27  O3'        6.5500   -7.8080   10.2300 O.3     2  DT2        -0.3138
     28  C2'        6.4050   -8.3440   12.7640 C.3     2  DT2         0.0866
     29  C1'        5.9290   -7.1280   13.5570 C.3     2  DT2         0.2106
     30  N1         5.7240   -7.2460   14.7590 N.ar    2  DT2        -0.2559
     31  C2         6.5920   -6.8870   15.7720 C.ar    2  DT2         0.3545
     32  O2         7.3710   -5.9540   15.6800 O.2     2  DT2        -0.2443
     33  N3         6.5180   -7.6640   16.9030 N.ar    2  DT2        -0.1533
     34  C4         5.6820   -8.7390   17.1170 C.ar    2  DT2         0.2804
     35  O4         5.7300   -9.3390   18.1880 O.2     2  DT2        -0.2654
     36  C5         4.8110   -9.0500   16.0190 C.ar    2  DT2         0.0534
     37  C6         4.8620   -8.3110   14.9070 C.ar    2  DT2         0.0824
     38  C7         3.8630  -10.2040   16.1550 C.3     2  DT2         0.0377
     39  P          8.3610   -8.4530    9.9920 P.3     3  DA3         0.2141
     40  OP1        8.1720   -8.2270    8.5430 O.2     3  DA3        -0.5172
     41  OP2        8.2070   -9.8140   10.5570 O.3     3  DA3        -0.4373
     42  O5'        9.7980   -7.9010   10.4200 O.3     3  DA3        -0.3114
     43  C5'       10.2230   -6.6530    9.9080 C.3     3  DA3         0.1812
     44  C4'       10.6460   -5.7230   11.0230 C.3     3  DA3         0.1775
     45  O4'       12.0870   -5.7970   11.1270 O.3     3  DA3        -0.3326
     46  C3'       10.3430   -4.2620   10.7140 C.3     3  DA3         0.1859
     47  O3'        9.3840   -3.7640   11.6260 O.3     3  DA3        -0.2203
     48  C2'       11.7030   -3.5670   10.7880 C.3     3  DA3         0.0894
     49  C1'       12.5970   -4.7240   10.3640 C.3     3  DA3         0.2095
     50  N9        12.5060   -5.0640    8.9320 N.ar    3  DA3        -0.2714
     51  C8        11.8790   -6.1540    8.3880 C.ar    3  DA3         0.1815
     52  N7        11.9520   -6.2080    7.0790 N.ar    3  DA3        -0.2193
     53  C5        12.6760   -5.0760    6.7410 C.ar    3  DA3         0.1518
     54  C6        13.0970   -4.5570    5.5040 C.ar    3  DA3         0.1919
     55  N6        12.8360   -5.1390    4.3310 N.pl3   3  DA3        -0.1054
     56  N1        13.8030   -3.4060    5.5140 N.ar    3  DA3        -0.2040
     57  C2        14.0640   -2.8240    6.6900 C.ar    3  DA3         0.2016
     58  N3        13.7240   -3.2160    7.9160 N.ar    3  DA3        -0.2048
     59  C4        13.0230   -4.3610    7.8710 C.ar    3  DA3         0.1691
     60  P          7.7370   -3.6140   10.9600 P.3     4  DC4         0.5411
     61  OP1        7.0630   -3.2300   12.2190 O.2     4  DC4        -0.2272
     62  OP2        6.9280   -3.8950    9.7530 O.2     4  DC4        -0.2272
     63  O5'        8.8090   -2.4970   10.5660 O.3     4  DC4        -0.2722
     64  C5'        9.5320   -1.7820   11.5610 C.3     4  DC4         0.1850
     65  C4'       10.0840   -0.5010   10.9690 C.3     4  DC4         0.1748
     66  O4'       11.1940   -0.7960   10.0830 O.3     4  DC4        -0.3327
     67  C3'        9.1250    0.2440   10.0560 C.3     4  DC4         0.1558
     68  O3'        8.1250    0.9430   10.7840 O.3     4  DC4        -0.3138
     69  C2'       10.0950    1.1540    9.3130 C.3     4  DC4         0.0866
     70  C1'       11.2260    0.1660    9.0400 C.3     4  DC4         0.2106
     71  N1        11.0120   -0.6040    7.7330 N.ar    4  DC4        -0.2556
     72  C2        11.5870   -0.0800    6.5690 C.ar    4  DC4         0.3531
     73  O2        12.3100    0.9270    6.6600 O.2     4  DC4        -0.2443
     74  N3        11.3390   -0.6830    5.3820 N.ar    4  DC4        -0.1739
     75  C4        10.5560   -1.7610    5.3320 C.ar    4  DC4         0.1759
     76  N4        10.3410   -2.3220    4.1400 N.pl3   4  DC4        -0.1070
     77  C5         9.9640   -2.3070    6.5000 C.ar    4  DC4         0.0566
     78  C6        10.2110   -1.7090    7.6700 C.ar    4  DC4         0.0849
     79  P          6.9200    0.8810   10.2020 P.3     5  DC5         0.2141
     80  OP1        6.4080    1.2900   11.5310 O.3     5  DC5        -0.4373
     81  OP2        6.8320   -0.5260    9.7450 O.2     5  DC5        -0.5172
     82  O5'        6.1440    1.6940    9.0620 O.3     5  DC5        -0.3114
     83  C5'        6.0100    3.0950    9.2290 C.3     5  DC5         0.1811
     84  C4'        6.9940    3.8310    8.3620 C.3     5  DC5         0.1746
     85  O4'        8.0870    2.9350    8.0600 O.3     5  DC5        -0.3327
     86  C3'        6.4710    4.2940    7.0130 C.3     5  DC5         0.1558
     87  O3'        5.8840    5.5790    7.1240 O.3     5  DC5        -0.3138
     88  C2'        7.7060    4.2720    6.1260 C.3     5  DC5         0.0866
     89  C1'        8.5340    3.1480    6.7460 C.3     5  DC5         0.2106
     90  N1         8.6990    2.3660    5.8490 N.ar    5  DC5        -0.2556
     91  C2         9.3940    2.4480    4.6370 C.ar    5  DC5         0.3531
     92  O2         9.9480    3.5200    4.3370 O.2     5  DC5        -0.2443
     93  N3         9.4430    1.3620    3.8290 N.ar    5  DC5        -0.1739
     94  C4         8.8330    0.2330    4.1920 C.ar    5  DC5         0.1759
     95  N4         8.9080   -0.8110    3.3640 N.pl3   5  DC5        -0.1070
     96  C5         8.1230    0.1290    5.4160 C.ar    5  DC5         0.0566
     97  C6         8.0780    1.2040    6.2110 C.ar    5  DC5         0.0849
     98  P          6.1120    6.5170    6.2470 P.3     6  DA6         0.2141
     99  OP1        4.7510    7.0530    6.4690 O.3     6  DA6        -0.4373
    100  OP2        6.3920    5.6070    5.1120 O.2     6  DA6        -0.5172
    101  O5'        7.1160    7.7390    6.0170 O.3     6  DA6        -0.3114
    102  C5'        7.5200    8.5750    7.0920 C.3     6  DA6         0.1811
    103  C4'        8.3390    9.7240    6.5690 C.3     6  DA6         0.1746
    104  O4'        9.7160    9.3170    6.3470 O.3     6  DA6        -0.3327
    105  C3'        7.9040   10.2290    5.2090 C.3     6  DA6         0.1558
    106  O3'        6.7490   11.0420    5.2680 O.3     6  DA6        -0.3138
    107  C2'        9.1550   10.9380    4.7110 C.3     6  DA6         0.0865
    108  C1'       10.2390    9.9860    5.2160 C.3     6  DA6         0.2094
    109  N9        10.6200    8.9840    4.1920 N.ar    6  DA6        -0.2714
    110  C8        10.0930    7.7280    4.0440 C.ar    6  DA6         0.1815
    111  N7        10.6130    7.0490    3.0490 N.ar    6  DA6        -0.2193
    112  C5        11.5450    7.9190    2.5060 C.ar    6  DA6         0.1518
    113  C6        12.4340    7.7970    1.4230 C.ar    6  DA6         0.1919
    114  N6        12.5300    6.7020    0.6650 N.pl3   6  DA6        -0.1054
    115  N1        13.2280    8.8520    1.1440 N.ar    6  DA6        -0.2040
    116  C2        13.1310    9.9490    1.9040 C.ar    6  DA6         0.2016
    117  N3        12.3370   10.1810    2.9470 N.ar    6  DA6        -0.2048
    118  C4        11.5600    9.1150    3.1980 C.ar    6  DA6         0.1691
    119  P          5.7940   10.9620    3.9890 P.3     7  DG7         0.2141
    120  OP1        4.9130   12.1640    4.0990 O.3     7  DG7        -0.4373
    121  OP2        5.1860    9.6200    3.8060 O.2     7  DG7        -0.5172
    122  O5'        6.8230   11.1820    2.7900 O.3     7  DG7        -0.3114
    123  C5'        7.7690   12.2540    2.8460 C.3     7  DG7         0.1811
    124  C4'        8.7490   12.1660    1.7020 C.3     7  DG7         0.1746
    125  O4'        9.5440   10.9550    1.8130 O.3     7  DG7        -0.3327
    126  C3'        8.1860   12.0760    0.2970 C.3     7  DG7         0.1558
    127  O3'        7.7330   13.3300   -0.1940 O.3     7  DG7        -0.3138
    128  C2'        9.4050   11.5730   -0.4690 C.3     7  DG7         0.0865
    129  C1'        9.9770   10.5560    0.5240 C.3     7  DG7         0.2094
    130  N9         9.3540    9.3100    0.1670 N.ar    7  DG7        -0.2713
    131  C8         8.3700    8.7150    0.9180 C.ar    7  DG7         0.1816
    132  N7         8.0450    7.5250    0.4930 N.ar    7  DG7        -0.2173
    133  C5         8.8620    7.3180   -0.6030 C.ar    7  DG7         0.1748
    134  C6         8.9660    6.2070   -1.4800 C.ar    7  DG7         0.3023
    135  O6         8.3270    5.1480   -1.4530 O.2     7  DG7        -0.2633
    136  N1         9.9260    6.4110   -2.4670 N.ar    7  DG7        -0.1709
    137  C2        10.6930    7.5450   -2.5930 C.ar    7  DG7         0.2606
    138  N2        11.5680    7.5570   -3.6070 N.pl3   7  DG7        -0.0859
    139  N3        10.6070    8.5850   -1.7860 N.ar    7  DG7        -0.1918
    140  C4         9.6790    8.4100   -0.8210 C.ar    7  DG7         0.1722
    141  P          6.5640   13.4130   -1.4160 P.3     8  DC8         0.2141
    142  OP1        6.0280   14.7170   -0.9620 O.2     8  DC8        -0.5172
    143  OP2        5.9590   12.1490   -0.9320 O.3     8  DC8        -0.4373
    144  O5'        6.5140   13.2940   -3.0150 O.3     8  DC8        -0.3114
    145  C5'        7.3580   14.1370   -3.7900 C.3     8  DC8         0.1811
    146  C4'        8.1160   13.3890   -4.8630 C.3     8  DC8         0.1746
    147  O4'        8.8340   12.2640   -4.2920 O.3     8  DC8        -0.3327
    148  C3'        7.2800   12.7550   -5.9620 C.3     8  DC8         0.1558
    149  O3'        6.8310   13.6840   -6.9330 O.3     8  DC8        -0.3138
    150  C2'        8.2270   11.6950   -6.5130 C.3     8  DC8         0.0866
    151  C1'        8.8980   11.2080   -5.2280 C.3     8  DC8         0.2106
    152  N1         8.3010    9.9620   -4.8230 N.ar    8  DC8        -0.2556
    153  C2         8.5560    8.7880   -5.5410 C.ar    8  DC8         0.3531
    154  O2         9.3120    8.8420   -6.5260 O.2     8  DC8        -0.2443
    155  N3         7.9740    7.6320   -5.1430 N.ar    8  DC8        -0.1739
    156  C4         7.1690    7.6210   -4.0800 C.ar    8  DC8         0.1759
    157  N4         6.6170    6.4580   -3.7260 N.pl3   8  DC8        -0.1070
    158  C5         6.8970    8.8000   -3.3390 C.ar    8  DC8         0.0566
    159  C6         7.4750    9.9400   -3.7350 C.ar    8  DC8         0.0849
    160  P          5.7250   13.3350   -7.5900 P.3     9  DT9         0.2141
    161  OP1        5.0730   14.6170   -8.0290 O.2     9  DT9        -0.5172
    162  OP2        5.0590   12.4990   -6.5520 O.3     9  DT9        -0.4373
    163  O5'        5.9520   12.4510   -8.8830 O.3     9  DT9        -0.3114
    164  C5'        7.1040   12.6620   -9.6850 C.3     9  DT9         0.1812
    165  C4'        7.6870   11.3490  -10.1000 C.3     9  DT9         0.1775
    166  O4'        8.1530   10.6230   -8.9290 O.3     9  DT9        -0.3326
    167  C3'        6.7150   10.3750  -10.7370 C.3     9  DT9         0.1864
    168  O3'        6.4100   10.7090  -12.0870 O.3     9  DT9        -0.2133
    169  C2'        7.4530    9.0500  -10.5680 C.3     9  DT9         0.0895
    170  C1'        8.1120    9.2270   -9.1970 C.3     9  DT9         0.2107
    171  N1         7.3630    8.5970   -8.1790 N.ar    9  DT9        -0.2559
    172  C2         7.3700    7.2240   -8.0190 C.ar    9  DT9         0.3545
    173  O2         7.9710    6.4720   -8.7660 O.2     9  DT9        -0.2443
    174  N3         6.6430    6.7600   -6.9500 N.ar    9  DT9        -0.1533
    175  C4         5.9260    7.5140   -6.0440 C.ar    9  DT9         0.2804
    176  O4         5.3230    6.9520   -5.1330 O.2     9  DT9        -0.2654
    177  C5         5.9670    8.9300   -6.2770 C.ar    9  DT9         0.0534
    178  C6         6.6660    9.4080   -7.3100 C.ar    9  DT9         0.0824
    179  C7         5.2170    9.8360   -5.3450 C.3     9  DT9         0.0377
    180  P          4.9170   10.4180  -12.6890 P.3    10  DT10        0.3939
    181  OP1        5.7590   11.4980  -13.2440 O.3    10  DT10       -0.1496
    182  OP2        3.8710    9.7980  -13.5240 O.3    10  DT10       -0.1425
    183  O5'        5.8350    9.2300  -12.1500 O.3    10  DT10       -0.2926
    184  C5'        6.6740    8.5480  -13.0680 C.3    10  DT10        0.1828
    185  C4'        6.4300    7.0570  -13.0190 C.3    10  DT10        0.1747
    186  O4'        6.8560    6.5800  -11.7230 O.3    10  DT10       -0.3327
    187  C3'        4.9770    6.6160  -13.1150 C.3    10  DT10        0.1558
    188  O3'        4.5690    6.5130  -14.4740 O.3    10  DT10       -0.3138
    189  C2'        5.0540    5.2540  -12.4370 C.3    10  DT10        0.0866
    190  C1'        5.9970    5.5480  -11.2750 C.3    10  DT10        0.2106
    191  N1         5.2830    5.8680  -10.0980 N.ar   10  DT10       -0.2559
    192  C2         4.8980    4.8470   -9.2500 C.ar   10  DT10        0.3545
    193  O2         5.1390    3.6730   -9.4710 O.2    10  DT10       -0.2443
    194  N3         4.2150    5.2500   -8.1280 N.ar   10  DT10       -0.1533
    195  C4         3.8870    6.5420   -7.7760 C.ar   10  DT10        0.2804
    196  O4         3.2700    6.7470   -6.7330 O.2    10  DT10       -0.2654
    197  C5         4.3200    7.5450   -8.7070 C.ar   10  DT10        0.0534
    198  C6         4.9860    7.1810   -9.8070 C.ar   10  DT10        0.0824
    199  C7         4.0090    8.9830   -8.4130 C.3    10  DT10        0.0377
    200  P          2.9620    6.8380  -14.9240 P.3    11  DA11        0.2141
    201  OP1        2.6420    7.1890  -16.3380 O.2    11  DA11       -0.5172
    202  OP2        2.7800    7.8520  -13.8630 O.3    11  DA11       -0.4373
    203  O5'        2.1040    5.5570  -14.5070 O.3    11  DA11       -0.3114
    204  C5'        2.1110    4.3710  -15.3150 C.3    11  DA11        0.1811
    205  C4'        1.5210    3.2060  -14.5570 C.3    11  DA11        0.1746
    206  O4'        2.2200    3.0440  -13.2940 O.3    11  DA11       -0.3327
    207  C3'        0.0670    3.3240  -14.1350 C.3    11  DA11        0.1558
    208  O3'       -0.8130    3.0140  -15.2030 O.3    11  DA11       -0.3138
    209  C2'       -0.0090    2.2890  -13.0260 C.3    11  DA11        0.0865
    210  C1'        1.3260    2.5210  -12.3240 C.3    11  DA11        0.2094
    211  N9         1.1510    3.5400  -11.2730 N.ar   11  DA11       -0.2714
    212  C8         1.5280    4.8550  -11.3610 C.ar   11  DA11        0.1815
    213  N7         1.4770    5.4970  -10.2180 N.ar   11  DA11       -0.2193
    214  C5         1.0360    4.5400   -9.3180 C.ar   11  DA11        0.1518
    215  C6         0.7750    4.5880   -7.9370 C.ar   11  DA11        0.1919
    216  N6         0.9300    5.6860   -7.1940 N.pl3  11  DA11       -0.1054
    217  N1         0.3450    3.4550   -7.3410 N.ar   11  DA11       -0.2040
    218  C2         0.1910    2.3560   -8.0870 C.ar   11  DA11        0.2016
    219  N3         0.4040    2.1870   -9.3900 N.ar   11  DA11       -0.2048
    220  C4         0.8300    3.3300   -9.9530 C.ar   11  DA11        0.1691
    221  P         -2.1120    3.6020  -15.1630 P.3    12  DT12        0.2141
    222  OP1       -2.8280    4.4290  -16.1680 O.2    12  DT12       -0.5172
    223  OP2       -1.7140    4.2140  -13.8630 O.3    12  DT12       -0.4373
    224  O5'       -3.0510    2.3310  -14.8850 O.3    12  DT12       -0.3114
    225  C5'       -2.5560    1.0040  -14.6540 C.3    12  DT12        0.1811
    226  C4'       -3.2400    0.3770  -13.4330 C.3    12  DT12        0.1746
    227  O4'       -2.5380    0.7720  -12.2400 O.3    12  DT12       -0.3327
    228  C3'       -4.7150    0.7230  -13.1760 C.3    12  DT12        0.1558
    229  O3'       -5.6070   -0.2040  -13.8200 O.3    12  DT12       -0.3138
    230  C2'       -4.8670    0.6450  -11.6570 C.3    12  DT12        0.0866
    231  C1'       -3.4270    0.7600  -11.1460 C.3    12  DT12        0.2106
    232  N1        -3.1320    1.8620  -10.3760 N.ar   12  DT12       -0.2559
    233  C2        -3.4050    1.8500   -9.0210 C.ar   12  DT12        0.3545
    234  O2        -3.7620    0.8500   -8.4240 O.2    12  DT12       -0.2443
    235  N3        -3.2460    3.0580   -8.3860 N.ar   12  DT12       -0.1533
    236  C4        -2.8490    4.2490   -8.9570 C.ar   12  DT12        0.2804
    237  O4        -2.7500    5.2530   -8.2550 O.2    12  DT12       -0.2654
    238  C5        -2.5850    4.1800  -10.3670 C.ar   12  DT12        0.0534
    239  C6        -2.7320    3.0180  -11.0090 C.ar   12  DT12        0.0824
    240  C7        -2.1480    5.4250  -11.0810 C.3    12  DT12        0.0377
    241  P         -7.1100    0.3910  -14.3700 P.3    13  DT13        0.2141
    242  OP1       -7.3720   -0.8750  -15.1050 O.2    13  DT13       -0.5172
    243  OP2       -7.7880    1.6600  -14.7950 O.3    13  DT13       -0.4373
    244  O5'       -7.3630    0.1350  -12.8110 O.3    13  DT13       -0.3114
    245  C5'       -7.4960   -1.1910  -12.3150 C.3    13  DT13        0.1811
    246  C4'       -7.9810   -1.1880  -10.8810 C.3    13  DT13        0.1746
    247  O4'       -7.0460   -0.4340  -10.0650 O.3    13  DT13       -0.3327
    248  C3'       -9.3240   -0.5340  -10.5410 C.3    13  DT13        0.1558
    249  O3'      -10.4490   -1.3810  -10.8070 O.3    13  DT13       -0.3138
    250  C2'       -9.2000   -0.3380   -9.0320 C.3    13  DT13        0.0866
    251  C1'       -7.7190    0.0120   -8.8970 C.3    13  DT13        0.2106
    252  N1        -7.3500    1.4160   -8.6160 N.ar   13  DT13       -0.2559
    253  C2        -7.4290    1.7910   -7.2880 C.ar   13  DT13        0.3545
    254  O2        -7.6520    1.0020   -6.3880 O.2    13  DT13       -0.2443
    255  N3        -7.2360    3.1300   -7.0500 N.ar   13  DT13       -0.1533
    256  C4        -6.9790    4.1110   -7.9860 C.ar   13  DT13        0.2804
    257  O4        -6.8280    5.2730   -7.6180 O.2    13  DT13       -0.2654
    258  C5        -6.9140    3.6430   -9.3420 C.ar   13  DT13        0.0534
    259  C6        -7.0970    2.3460   -9.6010 C.ar   13  DT13        0.0824
    260  C7        -6.6400    4.6340  -10.4340 C.3    13  DT13        0.0377
    261  P        -11.9990   -0.7360  -10.8230 P.3    14  DC14        0.2141
    262  OP1      -12.9620   -1.7620  -11.2430 O.3    14  DC14       -0.4373
    263  OP2      -12.0010    0.5410  -11.5870 O.2    14  DC14       -0.5172
    264  O5'      -12.2410   -0.4800   -9.2580 O.3    14  DC14       -0.3114
    265  C5'      -12.5730   -1.5610   -8.3630 C.3    14  DC14        0.1811
    266  C4'      -12.7020   -1.0630   -6.9300 C.3    14  DC14        0.1746
    267  O4'      -11.4940   -0.3830   -6.5260 O.3    14  DC14       -0.3327
    268  C3'      -13.7510    0.0070   -6.7060 C.3    14  DC14        0.1558
    269  O3'      -14.9660   -0.5890   -6.5140 O.3    14  DC14       -0.3138
    270  C2'      -13.3160    0.6340   -5.3900 C.3    14  DC14        0.0866
    271  C1'      -11.8270    0.6980   -5.6600 C.3    14  DC14        0.2106
    272  N1       -11.3360    1.9520   -6.2490 N.ar   14  DC14       -0.2556
    273  C2       -11.1820    3.0530   -5.3990 C.ar   14  DC14        0.3531
    274  O2       -11.3770    2.9000   -4.1810 O.2    14  DC14       -0.2443
    275  N3       -10.8270    4.2490   -5.9270 N.ar   14  DC14       -0.1739
    276  C4       -10.6290    4.3660   -7.2400 C.ar   14  DC14        0.1759
    277  N4       -10.2800    5.5640   -7.7150 N.pl3  14  DC14       -0.1070
    278  C5       -10.7800    3.2620   -8.1180 C.ar   14  DC14        0.0566
    279  C6       -11.1310    2.0830   -7.5930 C.ar   14  DC14        0.0849
    280  P        -16.1230    0.1530   -6.8980 P.3    15  DA15        0.2141
    281  OP1      -17.2500   -0.7780   -7.0800 O.3    15  DA15       -0.4373
    282  OP2      -15.5330    0.7120   -8.1330 O.2    15  DA15       -0.5172
    283  O5'      -16.6210    1.3170   -5.9110 O.3    15  DA15       -0.3114
    284  C5'      -16.9660    0.9690   -4.5690 C.3    15  DA15        0.1811
    285  C4'      -16.3710    1.8940   -3.5150 C.3    15  DA15        0.1746
    286  O4'      -14.9430    2.1410   -3.6790 O.3    15  DA15       -0.3327
    287  C3'      -16.9510    3.2860   -3.5290 C.3    15  DA15        0.1558
    288  O3'      -18.1780    3.2880   -2.9250 O.3    15  DA15       -0.3138
    289  C2'      -15.9100    4.1350   -2.8260 C.3    15  DA15        0.0865
    290  C1'      -14.6510    3.5160   -3.4450 C.3    15  DA15        0.2094
    291  N9       -14.3780    4.2600   -4.6680 N.ar   15  DA15       -0.2714
    292  C8       -14.1720    3.6100   -5.8570 C.ar   15  DA15        0.1815
    293  N7       -13.5900    4.3510   -6.7700 N.ar   15  DA15       -0.2193
    294  C5       -13.4040    5.5710   -6.1390 C.ar   15  DA15        0.1518
    295  C6       -12.8360    6.7820   -6.5700 C.ar   15  DA15        0.1919
    296  N6       -12.3310    6.9680   -7.7920 N.pl3  15  DA15       -0.1054
    297  N1       -12.8050    7.8080   -5.6920 N.ar   15  DA15       -0.2040
    298  C2       -13.3110    7.6200   -4.4680 C.ar   15  DA15        0.2016
    299  N3       -13.8690    6.5300   -3.9470 N.ar   15  DA15       -0.2048
    300  C4       -13.8850    5.5300   -4.8440 C.ar   15  DA15        0.1691
    301  P        -19.1490    3.7260   -3.8670 P.3    16  DA16        0.2141
    302  OP1      -20.2580    3.1400   -3.0880 O.3    16  DA16       -0.4373
    303  OP2      -19.0270    3.4200   -5.3170 O.2    16  DA16       -0.5172
    304  O5'      -19.1740    5.3100   -3.6800 O.3    16  DA16       -0.3114
    305  C5'      -19.3580    5.8950   -2.3790 C.3    16  DA16        0.1811
    306  C4'      -19.0550    7.3740   -2.4180 C.3    16  DA16        0.1746
    307  O4'      -17.6580    7.5810   -2.7680 O.3    16  DA16       -0.3327
    308  C3'      -19.8120    8.1720   -3.4650 C.3    16  DA16        0.1558
    309  O3'      -21.1180    8.5110   -3.0370 O.3    16  DA16       -0.3138
    310  C2'      -18.9230    9.3930   -3.6300 C.3    16  DA16        0.0865
    311  C1'      -17.5360    8.7520   -3.5640 C.3    16  DA16        0.2094
    312  N9       -16.9970    8.3490   -4.9230 N.ar   16  DA16       -0.2714
    313  C8       -16.9290    7.0930   -5.4690 C.ar   16  DA16        0.1815
    314  N7       -16.3070    7.0500   -6.6230 N.ar   16  DA16       -0.2193
    315  C5       -15.9420    8.3670   -6.8520 C.ar   16  DA16        0.1518
    316  C6       -15.2520    8.9870   -7.9090 C.ar   16  DA16        0.1919
    317  N6       -14.7890    8.3310   -8.9750 N.pl3  16  DA16       -0.1054
    318  N1       -15.0540   10.3210   -7.8300 N.ar   16  DA16       -0.2040
    319  C2       -15.5180   10.9770   -6.7600 C.ar   16  DA16        0.2016
    320  N3       -16.1790   10.5050   -5.7060 N.ar   16  DA16       -0.2048
    321  C4       -16.3610    9.1790   -5.8150 C.ar   16  DA16        0.1691
    322  P        -22.2840    8.6390   -4.1150 P.3    17  DT17        0.2141
    323  OP1      -23.5450    9.0010   -3.4020 O.3    17  DT17       -0.4373
    324  OP2      -22.3450    7.7740   -5.3240 O.2    17  DT17       -0.5172
    325  O5'      -21.4760    9.9500   -4.5470 O.3    17  DT17       -0.3114
    326  C5'      -21.3200   11.0540   -3.6670 C.3    17  DT17        0.1811
    327  C4'      -20.3730   12.0770   -4.2570 C.3    17  DT17        0.1746
    328  O4'      -19.1220   11.4760   -4.6200 O.3    17  DT17       -0.3327
    329  C3'      -20.8180   12.7100   -5.5540 C.3    17  DT17        0.1558
    330  O3'      -21.6690   13.7610   -5.2940 O.3    17  DT17       -0.3138
    331  C2'      -19.5450   13.2890   -6.1000 C.3    17  DT17        0.0866
    332  C1'      -18.5770   12.1930   -5.7090 C.3    17  DT17        0.2106
    333  N1       -18.4050   11.3390   -6.8800 N.ar   17  DT17       -0.2559
    334  C2       -17.5950   11.7050   -7.9380 C.ar   17  DT17        0.3545
    335  O2       -17.0850   12.8070   -8.0340 O.2    17  DT17       -0.2443
    336  N3       -17.4020   10.7300   -8.8860 N.ar   17  DT17       -0.1533
    337  C4       -17.9270    9.4540   -8.8830 C.ar   17  DT17        0.2804
    338  O4       -17.6620    8.6890   -9.8070 O.2    17  DT17       -0.2654
    339  C5       -18.7580    9.1510   -7.7520 C.ar   17  DT17        0.0534
    340  C6       -18.9620   10.0800   -6.8150 C.ar   17  DT17        0.0824
    341  C7       -19.3760    7.7880   -7.6570 C.3    17  DT17        0.0377
    342  P        -22.8370   13.9770   -6.2130 P.3    18  DT18        0.2141
    343  OP1      -23.8430   14.8270   -5.5360 O.3    18  DT18       -0.4373
    344  OP2      -23.2740   12.7380   -6.8940 O.2    18  DT18       -0.5172
    345  O5'      -22.0670   14.9080   -7.2660 O.3    18  DT18       -0.3114
    346  C5'      -21.7830   16.2660   -6.9570 C.3    18  DT18        0.1811
    347  C4'      -20.6290   16.7960   -7.7840 C.3    18  DT18        0.1746
    348  O4'      -19.5370   15.8350   -7.8400 O.3    18  DT18       -0.3327
    349  C3'      -20.9850   17.0430   -9.2380 C.3    18  DT18        0.1558
    350  O3'      -21.6510   18.2800   -9.4040 O.3    18  DT18       -0.3138
    351  C2'      -19.6070   17.0130   -9.8930 C.3    18  DT18        0.0866
    352  C1'      -18.9600   15.8450   -9.1410 C.3    18  DT18        0.2106
    353  N1       -19.1210   14.4930   -9.7570 N.ar   18  DT18       -0.2559
    354  C2       -18.1160   14.0560  -10.5990 C.ar   18  DT18        0.3545
    355  O2       -17.1250   14.7190  -10.8500 O.2    18  DT18       -0.2443
    356  N3       -18.3130   12.8080  -11.1400 N.ar   18  DT18       -0.1533
    357  C4       -19.3900   11.9730  -10.9280 C.ar   18  DT18        0.2804
    358  O4       -19.4250   10.8790  -11.4860 O.2    18  DT18       -0.2654
    359  C5       -20.3910   12.4980  -10.0430 C.ar   18  DT18        0.0534
    360  C6       -20.2250   13.7080   -9.5030 C.ar   18  DT18        0.0824
    361  C7       -21.6030   11.6640   -9.7500 C.3    18  DT18        0.0377
    362  P        -22.8200   18.3110  -10.3140 P.3    19  DA19        0.2141
    363  OP1      -23.5570   19.5680  -10.0630 O.3    19  DA19       -0.4373
    364  OP2      -23.5560   17.1130  -10.7730 O.2    19  DA19       -0.5172
    365  O5'      -21.7590   18.5510  -11.4850 O.3    19  DA19       -0.3114
    366  C5'      -20.8560   19.6420  -11.4040 C.3    19  DA19        0.1811
    367  C4'      -19.6310   19.4190  -12.2540 C.3    19  DA19        0.1746
    368  O4'      -18.8870   18.2680  -11.7780 O.3    19  DA19       -0.3327
    369  C3'      -19.8930   19.0650  -13.7030 C.3    19  DA19        0.1558
    370  O3'      -20.2740   20.1790  -14.4800 O.3    19  DA19       -0.3138
    371  C2'      -18.5700   18.4360  -14.1090 C.3    19  DA19        0.0865
    372  C1'      -18.2770   17.6060  -12.8640 C.3    19  DA19        0.2094
    373  N9       -18.7880   16.2180  -12.9650 N.ar   19  DA19       -0.2714
    374  C8       -19.8610   15.6260  -12.3520 C.ar   19  DA19        0.1815
    375  N7       -20.0170   14.3610  -12.6640 N.ar   19  DA19       -0.2193
    376  C5       -18.9770   14.1060  -13.5430 C.ar   19  DA19        0.1518
    377  C6       -18.5860   12.9460  -14.2350 C.ar   19  DA19        0.1919
    378  N6       -19.2280   11.7790  -14.1430 N.pl3  19  DA19       -0.1054
    379  N1       -17.5010   13.0290  -15.0340 N.ar   19  DA19       -0.2040
    380  C2       -16.8580   14.1980  -15.1250 C.ar   19  DA19        0.2016
    381  N3       -17.1280   15.3550  -14.5240 N.ar   19  DA19       -0.2048
    382  C4       -18.2120   15.2400  -13.7390 C.ar   19  DA19        0.1691
    383  P        -21.5040   20.0040  -15.1190 P.3    20  DA20        0.2141
    384  OP1      -22.1330   21.3030  -15.4560 O.2    20  DA20       -0.5172
    385  OP2      -22.2860   18.8880  -14.5350 O.3    20  DA20       -0.4373
    386  O5'      -20.9080   19.3980  -16.4710 O.3    20  DA20       -0.3114
    387  C5'      -19.9620   20.1780  -17.1820 C.3    20  DA20        0.1811
    388  C4'      -18.9900   19.3050  -17.9240 C.3    20  DA20        0.1746
    389  O4'      -18.5840   18.2020  -17.0740 O.3    20  DA20       -0.3327
    390  C3'      -19.5460   18.6320  -19.1600 C.3    20  DA20        0.1558
    391  O3'      -19.5320   19.4930  -20.2850 O.3    20  DA20       -0.3138
    392  C2'      -18.6230   17.4310  -19.3010 C.3    20  DA20        0.0865
    393  C1'      -18.4210   17.0320  -17.8410 C.3    20  DA20        0.2094
    394  N9       -19.3520   16.0080  -17.3340 N.ar   20  DA20       -0.2714
    395  C8       -20.2500   16.1970  -16.3170 C.ar   20  DA20        0.1815
    396  N7       -20.8630   15.1000  -15.9400 N.ar   20  DA20       -0.2193
    397  C5       -20.3330   14.1230  -16.7680 C.ar   20  DA20        0.1518
    398  C6       -20.5690   12.7410  -16.8730 C.ar   20  DA20        0.1919
    399  N6       -21.4370   12.0800  -16.1050 N.pl3  20  DA20       -0.1054
    400  N1       -19.8730   12.0560  -17.8050 N.ar   20  DA20       -0.2040
    401  C2       -19.0020   12.7190  -18.5730 C.ar   20  DA20        0.2016
    402  N3       -18.6930   14.0140  -18.5680 N.ar   20  DA20       -0.2048
    403  C4       -19.4020   14.6680  -17.6330 C.ar   20  DA20        0.1691
    404  P        -20.7660   19.4360  -21.2590 P.3    21  DT21        0.2141
    405  OP1      -20.3980   20.4440  -22.2790 O.2    21  DT21       -0.5172
    406  OP2      -21.9950   19.6370  -20.4580 O.3    21  DT21       -0.4373
    407  O5'      -20.8500   18.0030  -21.9770 O.3    21  DT21       -0.3114
    408  C5'      -19.8470   17.5640  -22.8960 C.3    21  DT21        0.1811
    409  C4'      -19.9300   16.0660  -23.1170 C.3    21  DT21        0.1746
    410  O4'      -19.8020   15.3710  -21.8550 O.3    21  DT21       -0.3327
    411  C3'      -21.2710   15.5890  -23.6200 C.3    21  DT21        0.1558
    412  O3'      -21.3360   15.7340  -25.0030 O.3    21  DT21       -0.3138
    413  C2'      -21.2740   14.1250  -23.2340 C.3    21  DT21        0.0866
    414  C1'      -20.5590   14.1720  -21.8930 C.3    21  DT21        0.2106
    415  N1       -21.5630   14.2030  -20.8230 N.ar   21  DT21       -0.2559
    416  C2       -22.2740   13.0560  -20.5260 C.ar   21  DT21        0.3545
    417  O2       -22.1900   12.0340  -21.1850 O.2    21  DT21       -0.2443
    418  N3       -23.0920   13.1470  -19.4260 N.ar   21  DT21       -0.1533
    419  C4       -23.2660   14.2460  -18.6110 C.ar   21  DT21        0.2804
    420  O4       -24.0370   14.1750  -17.6570 O.2    21  DT21       -0.2654
    421  C5       -22.4950   15.3980  -18.9850 C.ar   21  DT21        0.0534
    422  C6       -21.6910   15.3360  -20.0500 C.ar   21  DT21        0.0824
    423  C7       -22.6160   16.6450  -18.1600 C.3    21  DT21        0.0377
    424  P        -22.6530   16.1930  -25.5550 P.3    22  DC22        0.2141
    425  OP1      -22.1810   16.5160  -26.9250 O.2    22  DC22       -0.5172
    426  OP2      -23.7250   17.0060  -24.9390 O.3    22  DC22       -0.4373
    427  O5'      -23.2140   14.6940  -25.4840 O.3    22  DC22       -0.3114
    428  C5'      -23.0070   13.8180  -26.5850 C.3    22  DC22        0.1811
    429  C4'      -23.6130   12.4450  -26.3870 C.3    22  DC22        0.1746
    430  O4'      -23.3320   11.9430  -25.0560 O.3    22  DC22       -0.3327
    431  C3'      -25.1220   12.3300  -26.5550 C.3    22  DC22        0.1558
    432  O3'      -25.4570   12.1460  -27.9200 O.3    22  DC22       -0.3138
    433  C2'      -25.4800   11.1280  -25.6890 C.3    22  DC22        0.0866
    434  C1'      -24.4060   11.1580  -24.5960 C.3    22  DC22        0.2106
    435  N1       -24.8790   11.9440  -23.2750 N.ar   22  DC22       -0.2556
    436  C2       -25.8150   11.2330  -22.5140 C.ar   22  DC22        0.3531
    437  O2       -26.1320   10.0870  -22.8760 O.2    22  DC22       -0.2443
    438  N3       -26.3460   11.8140  -21.4120 N.ar   22  DC22       -0.1739
    439  C4       -25.9760   13.0460  -21.0630 C.ar   22  DC22        0.1759
    440  N4       -26.5270   13.5780  -19.9690 N.pl3  22  DC22       -0.1070
    441  C5       -25.0300   13.7830  -21.8200 C.ar   22  DC22        0.0566
    442  C6       -24.5070   13.2060  -22.9080 C.ar   22  DC22        0.0849
    443  P        -27.0140   12.2400  -28.5960 P.3    23  DG23        0.2141
    444  OP1      -26.9180   11.6270  -29.9330 O.2    23  DG23       -0.5172
    445  OP2      -27.2700   13.6970  -28.4920 O.3    23  DG23       -0.4373
    446  O5'      -28.1220   11.5210  -27.6980 O.3    23  DG23       -0.3114
    447  C5'      -28.1910   10.1030  -27.6300 C.3    23  DG23        0.1811
    448  C4'      -28.9930    9.6540  -26.4300 C.3    23  DG23        0.1746
    449  O4'      -28.3760   10.1170  -25.2000 O.3    23  DG23       -0.3327
    450  C3'      -30.4240   10.1410  -26.2870 C.3    23  DG23        0.1558
    451  O3'      -31.3370    9.4320  -27.0860 O.3    23  DG23       -0.3138
    452  C2'      -30.6830    9.7960  -24.8410 C.3    23  DG23        0.0865
    453  C1'      -29.3850   10.2960  -24.2100 C.3    23  DG23        0.2094
    454  N9       -29.4650   11.7490  -23.8860 N.ar   23  DG23       -0.2713
    455  C8       -28.6140   12.6740  -24.4400 C.ar   23  DG23        0.1816
    456  N7       -28.7150   13.8570  -23.8980 N.ar   23  DG23       -0.2173
    457  C5       -29.6880   13.7080  -22.9270 C.ar   23  DG23        0.1748
    458  C6       -30.2310   14.6460  -22.0120 C.ar   23  DG23        0.3023
    459  O6       -29.9420   15.8420  -21.8790 O.2    23  DG23       -0.2633
    460  N1       -31.2040   14.0750  -21.1970 N.ar   23  DG23       -0.1709
    461  C2       -31.6050   12.7610  -21.2560 C.ar   23  DG23        0.2606
    462  N2       -32.5570   12.3940  -20.3870 N.pl3  23  DG23       -0.0859
    463  N3       -31.1100   11.8780  -22.1010 N.ar   23  DG23       -0.1918
    464  C4       -30.1640   12.4110  -22.9030 C.ar   23  DG23        0.1722
    465  P        -32.2800   10.2110  -27.9300 P.3    24  DC24        0.2141
    466  OP1      -32.4930    9.5040  -29.2140 O.2    24  DC24       -0.5172
    467  OP2      -31.4790   11.4560  -27.8610 O.3    24  DC24       -0.4373
    468  O5'      -33.6840   10.6190  -27.2820 O.3    24  DC24       -0.3114
    469  C5'      -34.5460    9.5570  -26.9130 C.3    24  DC24        0.1811
    470  C4'      -35.3350    9.8660  -25.6690 C.3    24  DC24        0.1746
    471  O4'      -34.4740   10.3630  -24.6090 O.3    24  DC24       -0.3327
    472  C3'      -36.3920   10.9470  -25.8000 C.3    24  DC24        0.1558
    473  O3'      -37.5580   10.5000  -26.4700 O.3    24  DC24       -0.3138
    474  C2'      -36.6390   11.3100  -24.3420 C.3    24  DC24        0.0866
    475  C1'      -35.2320   11.1950  -23.7490 C.3    24  DC24        0.2106
    476  N1       -34.6730   12.6270  -23.5760 N.ar   24  DC24       -0.2556
    477  C2       -35.1940   13.4390  -22.5630 C.ar   24  DC24        0.3531
    478  O2       -36.0840   12.9800  -21.8260 O.2    24  DC24       -0.2443
    479  N3       -34.7170   14.6980  -22.4160 N.ar   24  DC24       -0.1739
    480  C4       -33.7630   15.1490  -23.2310 C.ar   24  DC24        0.1759
    481  N4       -33.3240   16.3970  -23.0490 N.pl3  24  DC24       -0.1070
    482  C5       -33.2210   14.3420  -24.2640 C.ar   24  DC24        0.0566
    483  C6       -33.6950   13.0990  -24.4050 C.ar   24  DC24        0.0849
    484  P        -38.6730   11.6110  -27.0230 P.3    25  DA25        0.2141
    485  OP1      -39.9170   11.1280  -27.6620 O.3    25  DA25       -0.4373
    486  OP2      -37.6420   12.2890  -27.8390 O.2    25  DA25       -0.5172
    487  O5'      -39.0870   12.5870  -25.8220 O.3    25  DA25       -0.3114
    488  C5'      -40.1130   12.1870  -24.9170 C.3    25  DA25        0.1811
    489  C4'      -40.5200   13.3040  -23.9650 C.3    25  DA25        0.1746
    490  O4'      -39.4820   13.5420  -22.9880 O.3    25  DA25       -0.3327
    491  C3'      -40.7200   14.5920  -24.6980 C.3    25  DA25        0.1558
    492  O3'      -42.0790   14.8040  -25.0990 O.3    25  DA25       -0.3138
    493  C2'      -40.2510   15.6340  -23.7860 C.3    25  DA25        0.0865
    494  C1'      -39.2360   14.9680  -22.9080 C.3    25  DA25        0.2094
    495  N9       -37.9270   15.3090  -23.3780 N.ar   25  DA25       -0.2714
    496  C8       -37.2420   14.8240  -24.4610 C.ar   25  DA25        0.1815
    497  N7       -36.2020   15.5500  -24.7980 N.ar   25  DA25       -0.2193
    498  C5       -36.2060   16.5840  -23.8750 C.ar   25  DA25        0.1518
    499  C6       -35.3590   17.6910  -23.6910 C.ar   25  DA25        0.1919
    500  N6       -34.3000   17.9480  -24.4630 N.pl3  25  DA25       -0.1054
    501  N1       -35.6420   18.5340  -22.6750 N.ar   25  DA25       -0.2040
    502  C2       -36.7020   18.2750  -21.9020 C.ar   25  DA25        0.2016
    503  N3       -37.5700   17.2680  -21.9750 N.ar   25  DA25       -0.2048
    504  C4       -37.2630   16.4490  -22.9950 C.ar   25  DA25        0.1691
    505  P        -42.4130   15.8010  -26.4560 P.3    26  DT26        0.2141
    506  OP1      -43.7710   15.7560  -27.0430 O.3    26  DT26       -0.4373
    507  OP2      -41.2290   15.8370  -27.3400 O.2    26  DT26       -0.5172
    508  O5'      -42.2410   17.1140  -25.5550 O.3    26  DT26       -0.3114
    509  C5'      -42.9810   17.3300  -24.3600 C.3    26  DT26        0.1811
    510  C4'      -42.5180   18.5860  -23.6640 C.3    26  DT26        0.1746
    511  O4'      -41.1570   18.4180  -23.1880 O.3    26  DT26       -0.3327
    512  C3'      -42.4710   19.8270  -24.5370 C.3    26  DT26        0.1558
    513  O3'      -43.7240   20.4790  -24.5940 O.3    26  DT26       -0.3138
    514  C2'      -41.3930   20.6800  -23.8880 C.3    26  DT26        0.0866
    515  C1'      -40.4340   19.6240  -23.3450 C.3    26  DT26        0.2106
    516  N1       -39.3220   19.4540  -24.3430 N.ar   26  DT26       -0.2559
    517  C2       -38.3000   20.3830  -24.3260 C.ar   26  DT26        0.3545
    518  O2       -38.2290   21.2780  -23.5020 O.2    26  DT26       -0.2443
    519  N3       -37.3570   20.2290  -25.3130 N.ar   26  DT26       -0.1533
    520  C4       -37.3340   19.2600  -26.2950 C.ar   26  DT26        0.2804
    521  O4       -36.4190   19.2500  -27.1140 O.2    26  DT26       -0.2654
    522  C5       -38.4300   18.3330  -26.2470 C.ar   26  DT26        0.0534
    523  C6       -39.3600   18.4600  -25.2970 C.ar   26  DT26        0.0824
    524  C7       -38.4950   17.2410  -27.2740 C.3    26  DT26        0.0377
    525  P        -44.1120   21.5560  -25.8470 P.3    27  DT27        0.2141
    526  OP1      -45.3450   21.5690  -25.0010 O.3    27  DT27       -0.4373
    527  OP2      -44.0180   20.7830  -27.1010 O.2    27  DT27       -0.5172
    528  O5'      -43.7120   23.0610  -26.1340 O.3    27  DT27       -0.3114
    529  C5'      -43.9930   23.8800  -25.0230 C.3    27  DT27        0.1811
    530  C4'      -42.9010   24.8800  -24.8240 C.3    27  DT27        0.1746
    531  O4'      -41.7170   24.2510  -24.3230 O.3    27  DT27       -0.3327
    532  C3'      -42.4320   25.5040  -26.1180 C.3    27  DT27        0.1558
    533  O3'      -43.4100   26.3990  -26.6110 O.3    27  DT27       -0.3138
    534  C2'      -41.2060   26.1760  -25.5480 C.3    27  DT27        0.0866
    535  C1'      -40.6130   25.0020  -24.7680 C.3    27  DT27        0.2106
    536  N1       -39.6690   24.0850  -25.2530 N.ar   27  DT27       -0.2559
    537  C2       -38.3100   24.2720  -25.0870 C.ar   27  DT27        0.3545
    538  O2       -37.8410   25.0950  -24.3200 O.2    27  DT27       -0.2443
    539  N3       -37.5130   23.4580  -25.8550 N.ar   27  DT27       -0.1533
    540  C4       -37.9300   22.4980  -26.7530 C.ar   27  DT27        0.2804
    541  O4       -37.0930   21.8430  -27.3710 O.2    27  DT27       -0.2654
    542  C5       -39.3550   22.3640  -26.8700 C.ar   27  DT27        0.0534
    543  C6       -40.1530   23.1430  -26.1340 C.ar   27  DT27        0.0824
    544  C7       -39.9080   21.3450  -27.8220 C.3    27  DT27        0.0377
    545  P        -43.3330   27.0030  -28.2770 P.3    28  DA28        0.2141
    546  OP1      -44.4610   27.8530  -28.7470 O.2    28  DA28       -0.5172
    547  OP2      -43.2520   25.5840  -28.7020 O.3    28  DA28       -0.4373
    548  O5'      -41.9820   27.7340  -28.6790 O.3    28  DA28       -0.3114
    549  C5'      -41.8100   29.1170  -28.4160 C.3    28  DA28        0.1811
    550  C4'      -40.3770   29.5140  -28.6410 C.3    28  DA28        0.1746
    551  O4'      -39.5140   28.7310  -27.7630 O.3    28  DA28       -0.3327
    552  C3'      -39.8330   29.2940  -30.0520 C.3    28  DA28        0.1558
    553  O3'      -38.8620   30.3090  -30.2570 O.3    28  DA28       -0.3138
    554  C2'      -39.1420   27.9420  -29.9060 C.3    28  DA28        0.0865
    555  C1'      -38.5010   28.1310  -28.5360 C.3    28  DA28        0.2094
    556  N9       -37.9790   27.1000  -28.1400 N.ar   28  DA28       -0.2714
    557  C8       -38.7870   26.0050  -28.3000 C.ar   28  DA28        0.1815
    558  N7       -38.1310   24.8720  -28.3900 N.ar   28  DA28       -0.2193
    559  C5       -36.8020   25.2490  -28.2820 C.ar   28  DA28        0.1518
    560  C6       -35.6050   24.5120  -28.3010 C.ar   28  DA28        0.1919
    561  N6       -35.5570   23.1850  -28.4400 N.pl3  28  DA28       -0.1054
    562  N1       -34.4470   25.1930  -28.1700 N.ar   28  DA28       -0.2040
    563  C2       -34.4970   26.5230  -28.0290 C.ar   28  DA28        0.2016
    564  N3       -35.5580   27.3260  -27.9960 N.ar   28  DA28       -0.2048
    565  C4       -36.6920   26.6180  -28.1290 C.ar   28  DA28        0.1691
    566  P        -38.5010   30.8240  -31.5400 P.3    29  DC29        0.2141
    567  OP1      -38.7030   32.2240  -31.9930 O.3    29  DC29       -0.4373
    568  OP2      -39.1690   29.7060  -32.2710 O.2    29  DC29       -0.5172
    569  O5'      -36.9260   30.5620  -31.5120 O.3    29  DC29       -0.3114
    570  C5'      -36.0580   31.4200  -30.7600 C.3    29  DC29        0.1811
    571  C4'      -34.6550   30.8410  -30.6650 C.3    29  DC29        0.1746
    572  O4'      -34.7130   29.5330  -30.0150 O.3    29  DC29       -0.3327
    573  C3'      -33.9500   30.5430  -31.9830 C.3    29  DC29        0.1558
    574  O3'      -33.3820   31.6900  -32.6200 O.3    29  DC29       -0.3138
    575  C2'      -32.9160   29.5070  -31.5540 C.3    29  DC29        0.0866
    576  C1'      -33.7230   28.6750  -30.5620 C.3    29  DC29        0.2106
    577  N1       -34.3600   27.5410  -31.2080 N.ar   29  DC29       -0.2556
    578  C2       -33.5770   26.4290  -31.5380 C.ar   29  DC29        0.3531
    579  O2       -32.3460   26.4970  -31.3830 O.2    29  DC29       -0.2443
    580  N3       -34.1820   25.3150  -32.0160 N.ar   29  DC29       -0.1739
    581  C4       -35.5060   25.2880  -32.1680 C.ar   29  DC29        0.1759
    582  N4       -36.0580   24.1690  -32.6420 N.pl3  29  DC29       -0.1070
    583  C5       -36.3170   26.4040  -31.8390 C.ar   29  DC29        0.0566
    584  C6       -35.7160   27.5020  -31.3670 C.ar   29  DC29        0.0849
    585  P        -33.3570   31.7990  -34.3190 P.3    30  DC30        0.2141
    586  OP1      -33.4100   33.1440  -34.9430 O.3    30  DC30       -0.4373
    587  OP2      -33.6940   30.6170  -35.1350 O.2    30  DC30       -0.5172
    588  O5'      -31.9060   31.5660  -33.7080 O.3    30  DC30       -0.3114
    589  C5'      -30.8070   31.3670  -34.5700 C.3    30  DC30        0.1811
    590  C4'      -29.8730   30.3270  -34.0220 C.3    30  DC30        0.1746
    591  O4'      -30.6090   29.2800  -33.3510 O.3    30  DC30       -0.3327
    592  C3'      -29.1310   29.5970  -35.1170 C.3    30  DC30        0.1558
    593  O3'      -28.0550   30.3580  -35.6280 O.3    30  DC30       -0.3138
    594  C2'      -28.7560   28.2760  -34.4660 C.3    30  DC30        0.0866
    595  C1'      -29.9420   28.0460  -33.5310 C.3    30  DC30        0.2106
    596  N1       -31.0020   26.9860  -34.1600 N.ar   30  DC30       -0.2556
    597  C2       -30.6200   25.7060  -34.5770 C.ar   30  DC30        0.3531
    598  O2       -29.4110   25.4220  -34.6050 O.2    30  DC30       -0.2443
    599  N3       -31.5770   24.8180  -34.9380 N.ar   30  DC30       -0.1739
    600  C4       -32.8630   25.1680  -34.8930 C.ar   30  DC30        0.1759
    601  N4       -33.7710   24.2590  -35.2580 N.pl3  30  DC30       -0.1070
    602  C5       -33.2700   26.4600  -34.4730 C.ar   30  DC30        0.0566
    603  C6       -32.3220   27.3340  -34.1180 C.ar   30  DC30        0.0849
    604  P        -28.1590   30.3380  -36.6390 P.3    31  DT31        0.2141
    605  OP1      -27.7170   31.6000  -37.2870 O.3    31  DT31       -0.4373
    606  OP2      -28.8630   29.3050  -37.4440 O.2    31  DT31       -0.5172
    607  O5'      -26.8940   29.5620  -36.0900 O.3    31  DT31       -0.3114
    608  C5'      -27.0010   28.1890  -35.7480 C.3    31  DT31        0.1811
    609  C4'      -25.7600   27.7470  -35.0410 C.3    31  DT31        0.1746
    610  O4'      -24.6240   28.1690  -35.8420 O.3    31  DT31       -0.3327
    611  C3'      -25.5800   28.3470  -33.6560 C.3    31  DT31        0.1558
    612  O3'      -24.9270   27.3980  -32.8250 O.3    31  DT31       -0.3138
    613  C2'      -24.6450   29.5330  -33.9030 C.3    31  DT31        0.0866
    614  C1'      -23.8200   29.0570  -35.1050 C.3    31  DT31        0.2106
    615  N1       -23.3250   30.1160  -36.0190 N.ar   31  DT31       -0.2559
    616  C2       -22.0150   30.0020  -36.4450 C.ar   31  DT31        0.3545
    617  O2       -21.3040   29.0550  -36.1590 O.2    31  DT31       -0.2443
    618  N3       -21.5630   31.0420  -37.2210 N.ar   31  DT31       -0.1533
    619  C4       -22.2740   32.1600  -37.6060 C.ar   31  DT31        0.2804
    620  O4       -21.7310   33.0100  -38.3070 O.2    31  DT31       -0.2654
    621  C5       -23.6260   32.2060  -37.1230 C.ar   31  DT31        0.0534
    622  C6       -24.0910   31.2080  -36.3670 C.ar   31  DT31        0.0824
    623  C7       -24.4810   33.3830  -37.4870 C.3    31  DT31        0.0377
    624  P        -25.3970   25.6930  -31.6720 P.3    32  DT32        0.2141
    625  OP1      -23.9210   25.8360  -31.5960 O.3    32  DT32       -0.4373
    626  OP2      -25.9800   24.4410  -32.2160 O.2    32  DT32       -0.5172
    627  O5'      -26.0090   25.9340  -30.2230 O.3    32  DT32       -0.3114
    628  C5'      -25.6120   27.0700  -29.4630 C.3    32  DT32        0.1811
    629  C4'      -26.8130   27.7850  -28.8920 C.3    32  DT32        0.1746
    630  O4'      -27.8840   27.7850  -29.8670 O.3    32  DT32       -0.3327
    631  C3'      -27.4530   27.2200  -27.6310 C.3    32  DT32        0.1558
    632  O3'      -26.7620   27.6650  -26.4650 O.3    32  DT32       -0.3138
    633  C2'      -28.8550   27.8140  -27.6960 C.3    32  DT32        0.0866
    634  C1'      -29.1350   27.7780  -29.1980 C.3    32  DT32        0.2106
    635  N1       -29.8270   26.4150  -29.3620 N.ar   32  DT32       -0.2559
    636  C2       -31.1630   26.2860  -29.0360 C.ar   32  DT32        0.3545
    637  O2       -31.7900   27.1510  -28.4480 O.2    32  DT32       -0.2443
    638  N3       -31.7450   25.1030  -29.4220 N.ar   32  DT32       -0.1533
    639  C4       -31.1370   24.0580  -30.0870 C.ar   32  DT32        0.2804
    640  O4       -31.7920   23.0570  -30.3670 O.2    32  DT32       -0.2654
    641  C5       -29.7490   24.2670  -30.3900 C.ar   32  DT32        0.0534
    642  C6       -29.1590   25.4090  -30.0260 C.ar   32  DT32        0.0824
    643  C7       -28.9990   23.1870  -31.1120 C.3    32  DT32        0.0377
    644  P        -26.6840   26.7320  -25.1760 P.3    33  DA33        0.2141
    645  OP1      -25.6060   27.1490  -24.2490 O.3    33  DA33       -0.4373
    646  OP2      -26.7100   25.3480  -25.6980 O.2    33  DA33       -0.5172
    647  O5'      -28.1270   26.9280  -24.4980 O.3    33  DA33       -0.3114
    648  C5'      -28.4440   28.1170  -23.7820 C.3    33  DA33        0.1811
    649  C4'      -29.8770   28.1500  -23.2960 C.3    33  DA33        0.1746
    650  O4'      -30.7840   28.0070  -24.4180 O.3    33  DA33       -0.3327
    651  C3'      -30.3040   27.0600  -22.3200 C.3    33  DA33        0.1558
    652  O3'      -29.9240   27.3350  -20.9790 O.3    33  DA33       -0.3138
    653  C2'      -31.8150   26.9870  -22.5330 C.3    33  DA33        0.0865
    654  C1'      -31.9330   27.2900  -24.0260 C.3    33  DA33        0.2094
    655  N9       -32.0340   26.0820  -24.9150 N.ar   33  DA33       -0.2714
    656  C8       -31.1240   25.4420  -25.7160 C.ar   33  DA33        0.1815
    657  N7       -31.5800   24.3360  -26.2560 N.ar   33  DA33       -0.2193
    658  C5       -32.8770   24.2430  -25.7770 C.ar   33  DA33        0.1518
    659  C6       -33.8940   23.2940  -25.9800 C.ar   33  DA33        0.1919
    660  N6       -33.7550   22.2150  -26.7520 N.pl3  33  DA33       -0.1054
    661  N1       -35.0730   23.4960  -25.3530 N.ar   33  DA33       -0.2040
    662  C2       -35.2120   24.5790  -24.5800 C.ar   33  DA33        0.2016
    663  N3       -34.3310   25.5400  -24.3130 N.ar   33  DA33       -0.2048
    664  C4       -33.1700   25.3100  -24.9490 C.ar   33  DA33        0.1691
    665  P        -29.5780   26.1810  -19.7940 P.3    34  DT34        0.2141
    666  OP1      -28.9750   26.7300  -18.5580 O.3    34  DT34       -0.4373
    667  OP2      -29.0010   24.9880  -20.4560 O.2    34  DT34       -0.5172
    668  O5'      -31.1050   25.7680  -19.5440 O.3    34  DT34       -0.3114
    669  C5'      -31.9820   26.5810  -18.7760 C.3    34  DT34        0.1811
    670  C4'      -33.4140   26.1460  -18.9550 C.3    34  DT34        0.1746
    671  O4'      -33.5950   25.7450  -20.3310 O.3    34  DT34       -0.3327
    672  C3'      -33.8490   24.9100  -18.1850 C.3    34  DT34        0.1558
    673  O3'      -34.1910   25.1600  -16.8360 O.3    34  DT34       -0.3138
    674  C2'      -35.0170   24.3720  -19.0020 C.3    34  DT34        0.0866
    675  C1'      -34.5550   24.7130  -20.4090 C.3    34  DT34        0.2106
    676  N1       -33.9040   23.5530  -21.2310 N.ar   34  DT34       -0.2559
    677  C2       -34.6030   22.3990  -21.5290 C.ar   34  DT34        0.3545
    678  O2       -35.7260   22.1770  -21.1110 O.2    34  DT34       -0.2443
    679  N3       -33.9380   21.5080  -22.3360 N.ar   34  DT34       -0.1533
    680  C4       -32.6710   21.6530  -22.8640 C.ar   34  DT34        0.2804
    681  O4       -32.2070   20.7640  -23.5740 O.2    34  DT34       -0.2654
    682  C5       -32.0100   22.8770  -22.5090 C.ar   34  DT34        0.0534
    683  C6       -32.6340   23.7600  -21.7250 C.ar   34  DT34        0.0824
    684  C7       -30.6270   23.1280  -23.0340 C.3    34  DT34        0.0377
    685  P        -33.7340   24.3400  -16.1430 P.3    35  DA35        0.2141
    686  OP1      -33.3710   25.2400  -15.0280 O.3    35  DA35       -0.4373
    687  OP2      -32.5640   24.1510  -17.0460 O.2    35  DA35       -0.5172
    688  O5'      -34.2940   22.8490  -15.7910 O.3    35  DA35       -0.3114
    689  C5'      -35.7360   22.9350  -15.5550 C.3    35  DA35        0.1811
    690  C4'      -36.3120   21.6400  -16.0380 C.3    35  DA35        0.1746
    691  O4'      -36.2950   21.4880  -17.4250 O.3    35  DA35       -0.3327
    692  C3'      -35.6520   20.3550  -15.5170 C.3    35  DA35        0.1558
    693  O3'      -36.0140   20.1300  -14.1610 O.3    35  DA35       -0.3138
    694  C2'      -36.3460   19.3300  -16.4330 C.3    35  DA35        0.0865
    695  C1'      -36.3090   20.0710  -17.7140 C.3    35  DA35        0.2094
    696  N9       -35.1660   19.6960  -18.4920 N.ar   35  DA35       -0.2714
    697  C8       -34.0770   20.4940  -18.7270 C.ar   35  DA35        0.1815
    698  N7       -33.1810   19.9470  -19.5140 N.ar   35  DA35       -0.2193
    699  C5       -33.7180   18.7060  -19.8160 C.ar   35  DA35        0.1518
    700  C6       -33.2540   17.6420  -20.6090 C.ar   35  DA35        0.1919
    701  N6       -32.0940   17.6640  -21.2710 N.pl3  35  DA35       -0.1054
    702  N1       -34.0320   16.5420  -20.7000 N.ar   35  DA35       -0.2040
    703  C2       -35.1940   16.5220  -20.0380 C.ar   35  DA35        0.2016
    704  N3       -35.7370   17.4580  -19.2630 N.ar   35  DA35       -0.2048
    705  C4       -34.9400   18.5360  -19.1920 C.ar   35  DA35        0.1691
    706  P        -35.0990   18.6220  -13.3670 P.3    36  DC36        0.2141
    707  OP1      -35.6860   18.7780  -12.0410 O.3    36  DC36       -0.4373
    708  OP2      -33.8190   19.2690  -13.7690 O.2    36  DC36       -0.5172
    709  O5'      -34.9770   17.1040  -13.8290 O.3    36  DC36       -0.3114
    710  C5'      -35.7830   16.1970  -13.1570 C.3    36  DC36        0.1811
    711  C4'      -36.0090   15.0440  -14.0960 C.3    36  DC36        0.1746
    712  O4'      -35.9180   15.6190  -15.3810 O.3    36  DC36       -0.3327
    713  C3'      -34.9390   13.9980  -14.1860 C.3    36  DC36        0.1558
    714  O3'      -35.0260   12.9950  -13.1610 O.3    36  DC36       -0.3138
    715  C2'      -35.3370   13.4640  -15.5270 C.3    36  DC36        0.0866
    716  C1'      -35.4010   14.6920  -16.3070 C.3    36  DC36        0.2106
    717  N1       -34.1320   15.1230  -16.8650 N.ar   36  DC36       -0.2556
    718  C2       -33.4470   14.5120  -17.9220 C.ar   36  DC36        0.3531
    719  O2       -33.8020   13.3780  -18.2870 O.2    36  DC36       -0.2443
    720  N3       -32.4210   15.1710  -18.5110 N.ar   36  DC36       -0.1739
    721  C4       -32.0760   16.3860  -18.0850 C.ar   36  DC36        0.1759
    722  N4       -31.0580   16.9960  -18.6960 N.pl3  36  DC36       -0.1070
    723  C5       -32.7570   17.0230  -17.0160 C.ar   36  DC36        0.0566
    724  C6       -33.7700   16.3690  -16.4360 C.ar   36  DC36        0.0849
    725  P        -33.9830   13.1410  -12.4310 P.3    37  DC37        0.2141
    726  OP1      -34.7600   13.1910  -11.1660 O.3    37  DC37       -0.4373
    727  OP2      -32.6270   13.7590  -12.4940 O.2    37  DC37       -0.5172
    728  O5'      -33.8920   11.6130  -12.8560 O.3    37  DC37       -0.3114
    729  C5'      -34.9430   11.0040  -13.5880 C.3    37  DC37        0.1811
    730  C4'      -34.3940   10.4170  -14.8610 C.3    37  DC37        0.1746
    731  O4'      -33.9310   11.4630  -15.7580 O.3    37  DC37       -0.3327
    732  C3'      -33.1090    9.6240  -14.7200 C.3    37  DC37        0.1558
    733  O3'      -33.2540    8.3920  -14.0320 O.3    37  DC37       -0.3138
    734  C2'      -32.6670    9.4980  -16.1750 C.3    37  DC37        0.0866
    735  C1'      -33.0900   10.8610  -16.7340 C.3    37  DC37        0.2106
    736  N1       -31.9410   11.6550  -16.8650 N.ar   37  DC37       -0.2556
    737  C2       -31.0160   11.5700  -17.9120 C.ar   37  DC37        0.3531
    738  O2       -31.1030   10.6210  -18.7100 O.2    37  DC37       -0.2443
    739  N3       -30.0570   12.5190  -18.0240 N.ar   37  DC37       -0.1739
    740  C4       -30.0010   13.5190  -17.1430 C.ar   37  DC37        0.1759
    741  N4       -29.0380   14.4310  -17.2930 N.pl3  37  DC37       -0.1070
    742  C5       -30.9290   13.6230  -16.0750 C.ar   37  DC37        0.0566
    743  C6       -31.8750   12.6840  -15.9680 C.ar   37  DC37        0.0849
    744  P        -31.9000    7.6550  -13.4740 P.3    38  DA38        0.2141
    745  OP1      -32.4740    6.6780  -12.5170 O.3    38  DA38       -0.4373
    746  OP2      -31.1180    8.8150  -12.9890 O.2    38  DA38       -0.5172
    747  O5'      -30.8950    6.9430  -14.5020 O.3    38  DA38       -0.3114
    748  C5'      -31.2220    5.7520  -15.2070 C.3    38  DA38        0.1812
    749  C4'      -30.4940    5.6600  -16.5290 C.3    38  DA38        0.1775
    750  O4'      -30.4730    6.9680  -17.1560 O.3    38  DA38       -0.3326
    751  C3'      -29.0340    5.2130  -16.4910 C.3    38  DA38        0.1859
    752  O3'      -28.8990    3.7960  -16.4740 O.3    38  DA38       -0.2202
    753  C2'      -28.4440    5.8570  -17.7420 C.3    38  DA38        0.0894
    754  C1'      -29.2900    7.1250  -17.9030 C.3    38  DA38        0.2095
    755  N9       -28.6580    8.3820  -17.4280 N.ar   38  DA38       -0.2715
    756  C8       -28.9240    9.1690  -16.3370 C.ar   38  DA38        0.1817
    757  N7       -28.1140   10.1940  -16.2150 N.ar   38  DA38       -0.2149
    758  C5       -27.2580   10.0720  -17.2980 C.ar   38  DA38        0.2012
    759  C6       -26.1710   10.8480  -17.7370 C.2    38  DA38        0.3907
    760  N6       -25.7470   11.9480  -17.1110 N.pl3  38  DA38        0.2117
    761  N1       -25.5280   10.4500  -18.8560 N.pl3  38  DA38       -0.1144
    762  C2       -25.9550    9.3480  -19.4840 C.3    38  DA38        0.3152
    763  N3       -26.9620    8.5380  -19.1690 N.2    38  DA38       -0.2078
    764  C4       -27.5800    8.9600  -18.0530 C.ar   38  DA38        0.1710
    765  P        -27.9350    2.9270  -15.5090 P.3    39  DG39        0.4149
    766  OP1      -27.8570    1.4640  -15.7230 O.3    39  DG39       -0.1481
    767  OP2      -27.1860    3.5750  -14.4070 O.2    39  DG39       -0.2668
    768  O5'      -27.4400    3.6930  -16.8250 O.3    39  DG39       -0.2177
    769  C5'      -27.7040    3.0880  -18.0820 C.3    39  DG39        0.2141
    770  C4'      -26.7150    3.4830  -19.1550 C.3    39  DG39        0.1796
    771  O4'      -27.0390    4.8010  -19.6770 O.3    39  DG39       -0.3153
    772  C3'      -25.2490    3.6240  -18.7620 C.3    39  DG39        0.1582
    773  O3'      -24.5510    2.4050  -18.5510 O.3    39  DG39       -0.3138
    774  C2'      -24.7290    4.4050  -19.9560 C.3    39  DG39        0.1126
    775  C1'      -25.8520    5.4220  -20.1300 C.3    39  DG39        0.2911
    776  N9       -25.5890    6.6980  -19.2960 N.pl3  39  DG39       -0.1302
    777  C8       -25.8930    6.9620  -17.9830 C.2    39  DG39        0.2798
    778  N7       -25.4030    8.0940  -17.5580 N.2    39  DG39       -0.2075
    779  C5       -24.7360    8.6120  -18.6530 C.3    39  DG39        0.3447
    780  C6       -24.0050    9.8180  -18.8040 C.3    39  DG39        0.4401
    781  O6       -23.7980   10.6990  -17.9600 O.3    39  DG39       -0.1369
    782  N1       -23.4860    9.9560  -20.0880 N.2    39  DG39       -0.0135
    783  C2       -23.6520    9.0440  -21.1030 C.cat  39  DG39        0.5326
    784  N2       -23.0780    9.3510  -22.2740 N.pl3  39  DG39        0.1592
    785  N3       -24.3280    7.9190  -20.9780 N.2    39  DG39        0.0308
    786  C4       -24.8400    7.7630  -19.7390 C.2    39  DG39        0.3504
    787  P        -23.4700    2.4410  -17.6260 P.3    40  DC40        0.2141
    788  OP1      -23.2920    1.0290  -17.2230 O.2    40  DC40       -0.5172
    789  OP2      -23.4740    3.5440  -16.6430 O.3    40  DC40       -0.4373
    790  O5'      -22.2530    2.8290  -18.5690 O.3    40  DC40       -0.3114
    791  C5'      -21.9220    1.9170  -19.5950 C.3    40  DC40        0.1811
    792  C4'      -21.4200    2.6630  -20.7940 C.3    40  DC40        0.1746
    793  O4'      -22.3140    3.7690  -21.0770 O.3    40  DC40       -0.3327
    794  C3'      -20.0570    3.3160  -20.6380 C.3    40  DC40        0.1558
    795  O3'      -18.9870    2.4050  -20.8030 O.3    40  DC40       -0.3138
    796  C2'      -20.1050    4.3750  -21.7250 C.3    40  DC40        0.0866
    797  C1'      -21.5680    4.8250  -21.6390 C.3    40  DC40        0.2106
    798  N1       -21.6950    5.9590  -20.8700 N.ar   40  DC40       -0.2556
    799  C2       -21.5120    7.2500  -21.3780 C.ar   40  DC40        0.3531
    800  O2       -21.1110    7.3810  -22.5470 O.2    40  DC40       -0.2443
    801  N3       -21.7770    8.3150  -20.5840 N.ar   40  DC40       -0.1739
    802  C4       -22.2050    8.1250  -19.3350 C.ar   40  DC40        0.1759
    803  N4       -22.4530    9.2050  -18.5890 N.pl3  40  DC40       -0.1070
    804  C5       -22.3960    6.8250  -18.8010 C.ar   40  DC40        0.0566
    805  C6       -22.1340    5.7760  -19.5890 C.ar   40  DC40        0.0849
    806  P        -17.4990    2.6420  -19.9840 P.3    41  DT41        0.2141
    807  OP1      -16.3810    1.6880  -20.1910 O.2    41  DT41       -0.5172
    808  OP2      -18.0440    2.8410  -18.6090 O.3    41  DT41       -0.4373
    809  O5'      -17.0490    4.0490  -20.5700 O.3    41  DT41       -0.3114
    810  C5'      -16.3600    4.1350  -21.8310 C.3    41  DT41        0.1811
    811  C4'      -15.8800    5.5470  -22.0650 C.3    41  DT41        0.1746
    812  O4'      -17.0340    6.4140  -22.2300 O.3    41  DT41       -0.3327
    813  C3'      -15.1090    6.1720  -20.9110 C.3    41  DT41        0.1558
    814  O3'      -13.7380    5.8240  -20.8490 O.3    41  DT41       -0.3138
    815  C2'      -15.3370    7.6590  -21.1210 C.3    41  DT41        0.0866
    816  C1'      -16.7900    7.6650  -21.6010 C.3    41  DT41        0.2106
    817  N1       -17.7110    7.8720  -20.4470 N.ar   41  DT41       -0.2559
    818  C2       -17.9480    9.1780  -20.0610 C.ar   41  DT41        0.3545
    819  O2       -17.4560   10.1380  -20.6280 O.2    41  DT41       -0.2443
    820  N3       -18.7850    9.3220  -18.9810 N.ar   41  DT41       -0.1533
    821  C4       -19.3960    8.3140  -18.2650 C.ar   41  DT41        0.2804
    822  O4       -20.1230    8.6000  -17.3170 O.2    41  DT41       -0.2654
    823  C5       -19.1000    6.9870  -18.7260 C.ar   41  DT41        0.0534
    824  C6       -18.2890    6.8180  -19.7740 C.ar   41  DT41        0.0824
    825  C7       -19.7170    5.8220  -18.0110 C.3    41  DT41        0.0377
    826  P        -12.9000    5.7560  -19.2780 P.3    42  DT42        0.2141
    827  OP1      -11.5780    5.1560  -19.5680 O.2    42  DT42       -0.5172
    828  OP2      -13.7190    5.2390  -18.1570 O.3    42  DT42       -0.4373
    829  O5'      -12.7120    7.3130  -18.9500 O.3    42  DT42       -0.3114
    830  C5'      -11.7890    8.1020  -19.6920 C.3    42  DT42        0.1811
    831  C4'      -12.0180    9.5880  -19.5260 C.3    42  DT42        0.1746
    832  O4'      -13.4380    9.8930  -19.5860 O.3    42  DT42       -0.3327
    833  C3'      -11.5640   10.2180  -18.2130 C.3    42  DT42        0.1558
    834  O3'      -10.1670   10.4700  -18.1600 O.3    42  DT42       -0.3138
    835  C2'      -12.4040   11.4900  -18.1630 C.3    42  DT42        0.0866
    836  C1'      -13.7210   11.0280  -18.7890 C.3    42  DT42        0.2106
    837  N1       -14.7610   10.7390  -17.7950 N.ar   42  DT42       -0.2559
    838  C2       -15.5050   11.7860  -17.2850 C.ar   42  DT42        0.3545
    839  O2       -15.3190   12.9480  -17.6010 O.2    42  DT42       -0.2443
    840  N3       -16.4800   11.4240  -16.3880 N.ar   42  DT42       -0.1533
    841  C4       -16.7780   10.1480  -15.9570 C.ar   42  DT42        0.2804
    842  O4       -17.6850    9.9800  -15.1460 O.2    42  DT42       -0.2654
    843  C5       -15.9610    9.1160  -16.5310 C.ar   42  DT42        0.0534
    844  C6       -15.0060    9.4400  -17.4060 C.ar   42  DT42        0.0824
    845  C7       -16.2070    7.6930  -16.1250 C.3    42  DT42        0.0377
    846  P         -9.6180   10.5780  -17.0510 P.3    43  DA43        0.2141
    847  OP1       -8.5350   10.7250  -18.0610 O.2    43  DA43       -0.5172
    848  OP2       -9.7280    9.4220  -16.1250 O.3    43  DA43       -0.4373
    849  O5'       -9.6600   11.8450  -16.0750 O.3    43  DA43       -0.3114
    850  C5'       -9.5470   13.1500  -16.5980 C.3    43  DA43        0.1811
    851  C4'      -10.5290   14.0600  -15.8890 C.3    43  DA43        0.1746
    852  O4'      -11.8690   13.5220  -16.0090 O.3    43  DA43       -0.3327
    853  C3'      -10.3800   14.1860  -14.3840 C.3    43  DA43        0.1558
    854  O3'       -9.2660   15.0010  -14.0530 O.3    43  DA43       -0.3138
    855  C2'      -11.6810   14.9290  -14.1360 C.3    43  DA43        0.0865
    856  C1'      -12.6470   14.1180  -14.9890 C.3    43  DA43        0.2094
    857  N9       -13.1990   13.0520  -14.2020 N.ar   43  DA43       -0.2714
    858  C8       -12.9030   11.7670  -14.5740 C.ar   43  DA43        0.1815
    859  N7       -13.6450   10.8610  -13.9810 N.ar   43  DA43       -0.2193
    860  C5       -14.4840   11.6020  -13.1640 C.ar   43  DA43        0.1518
    861  C6       -15.5080   11.2320  -12.2750 C.ar   43  DA43        0.1919
    862  N6       -15.8730    9.9670  -12.0540 N.pl3  43  DA43       -0.1054
    863  N1       -16.1510   12.2180  -11.6130 N.ar   43  DA43       -0.2040
    864  C2       -15.7850   13.4850  -11.8370 C.ar   43  DA43        0.2016
    865  N3       -14.8400   13.9570  -12.6470 N.ar   43  DA43       -0.2048
    866  C4       -14.2200   12.9530  -13.2890 C.ar   43  DA43        0.1691
    867  P         -8.3490   14.7010  -12.7550 P.3    44  DT44        0.2141
    868  OP1       -7.2640   15.6830  -12.9670 O.2    44  DT44       -0.5172
    869  OP2       -8.0460   13.2510  -12.4860 O.3    44  DT44       -0.4373
    870  O5'       -9.3260   15.1690  -11.6230 O.3    44  DT44       -0.3114
    871  C5'       -9.7360   16.4980  -11.5580 C.3    44  DT44        0.1811
    872  C4'      -10.6740   16.6420  -10.4310 C.3    44  DT44        0.1746
    873  O4'      -11.9150   15.9660  -10.7610 O.3    44  DT44       -0.3327
    874  C3'      -10.2240   15.9950   -9.1350 C.3    44  DT44        0.1558
    875  O3'       -9.3470   16.8490   -8.3960 O.3    44  DT44       -0.3138
    876  C2'      -11.5550   15.8430   -8.4220 C.3    44  DT44        0.0866
    877  C1'      -12.4670   15.4070   -9.5830 C.3    44  DT44        0.2106
    878  N1       -12.4610   13.9030   -9.7090 N.ar   44  DT44       -0.2559
    879  C2       -13.2380   13.1460   -8.8530 C.ar   44  DT44        0.3545
    880  O2       -13.8940   13.6300   -7.9480 O.2    44  DT44       -0.2443
    881  N3       -13.2200   11.7930   -9.0940 N.ar   44  DT44       -0.1533
    882  C4       -12.5180   11.1360  -10.0830 C.ar   44  DT44        0.2804
    883  O4       -12.6030    9.9140  -10.1750 O.2    44  DT44       -0.2654
    884  C5       -11.7340   11.9910  -10.9300 C.ar   44  DT44        0.0534
    885  C6       -11.7340   13.3100  -10.7180 C.ar   44  DT44        0.0824
    886  C7       -10.9330   11.3710  -12.0360 C.3    44  DT44        0.0377
    887  P         -8.1050   16.2200   -7.6110 P.3    45  DT45        0.2141
    888  OP1       -6.9600   17.1910   -7.5050 O.3    45  DT45       -0.4373
    889  OP2       -7.9580   15.1270   -8.6420 O.2    45  DT45       -0.5172
    890  O5'       -8.4890   15.4640   -6.2280 O.3    45  DT45       -0.3114
    891  C5'       -9.1110   16.4430   -5.3250 C.3    45  DT45        0.1811
    892  C4'      -10.1380   15.6600   -4.5320 C.3    45  DT45        0.1746
    893  O4'      -11.1130   15.0860   -5.3800 O.3    45  DT45       -0.3327
    894  C3'       -9.5590   14.4750   -3.7730 C.3    45  DT45        0.1558
    895  O3'       -8.8320   14.8780   -2.6250 O.3    45  DT45       -0.3138
    896  C2'      -10.8150   13.6730   -3.4900 C.3    45  DT45        0.0866
    897  C1'      -11.5930   13.8900   -4.7850 C.3    45  DT45        0.2106
    898  N1       -11.3370   12.6990   -5.5920 N.ar   45  DT45       -0.2559
    899  C2       -12.0030   11.5100   -5.3610 C.ar   45  DT45        0.3545
    900  O2       -12.7960   11.3590   -4.4490 O.2    45  DT45       -0.2443
    901  N3       -11.7050   10.4980   -6.2410 N.ar   45  DT45       -0.1533
    902  C4       -10.8270   10.5530   -7.3030 C.ar   45  DT45        0.2804
    903  O4       -10.6650    9.5590   -8.0070 O.2    45  DT45       -0.2654
    904  C5       -10.1750   11.8200   -7.4760 C.ar   45  DT45        0.0534
    905  C6       -10.4460   12.8220   -6.6360 C.ar   45  DT45        0.0824
    906  C7        -9.2010   11.9800   -8.6050 C.3    45  DT45        0.0377
    907  P         -7.6390   13.9460   -1.9780 P.3    46  DC46        0.2141
    908  OP1       -6.8200   15.0740   -1.4800 O.3    46  DC46       -0.4373
    909  OP2       -7.2410   13.2170   -3.2040 O.2    46  DC46       -0.5172
    910  O5'       -7.8260   12.8760   -0.8100 O.3    46  DC46       -0.3114
    911  C5'       -8.9230   13.0220    0.0700 C.3    46  DC46        0.1811
    912  C4'       -9.7840   11.7770    0.0600 C.3    46  DC46        0.1746
    913  O4'      -10.3310   11.5390   -1.2590 O.3    46  DC46       -0.3327
    914  C3'       -9.0500   10.4820    0.3240 C.3    46  DC46        0.1558
    915  O3'       -8.6670   10.3700    1.6890 O.3    46  DC46       -0.3138
    916  C2'      -10.1570    9.5120   -0.0620 C.3    46  DC46        0.0866
    917  C1'      -10.6600   10.1580   -1.3530 C.3    46  DC46        0.2106
    918  N1       -10.0230    9.4710   -2.4150 N.ar   46  DC46       -0.2556
    919  C2       -10.3360    8.1630   -2.8020 C.ar   46  DC46        0.3531
    920  O2       -11.0770    7.4840   -2.0700 O.2    46  DC46       -0.2443
    921  N3        -9.8230    7.6760   -3.9570 N.ar   46  DC46       -0.1739
    922  C4        -9.0310    8.4410   -4.7100 C.ar   46  DC46        0.1759
    923  N4        -8.5480    7.9180   -5.8400 N.pl3  46  DC46       -0.1070
    924  C5        -8.7020    9.7690   -4.3360 C.ar   46  DC46        0.0566
    925  C6        -9.2110   10.2460   -3.1940 C.ar   46  DC46        0.0849
    926  P         -7.2650    9.8710    1.9670 P.3    47  DA47        0.2141
    927  OP1       -6.8920   10.2600    3.3520 O.3    47  DA47       -0.4373
    928  OP2       -6.5260   10.4640    0.8150 O.2    47  DA47       -0.5172
    929  O5'       -7.1780    8.2780    1.8390 O.3    47  DA47       -0.3114
    930  C5'       -7.5560    7.4430    2.9310 C.3    47  DA47        0.1811
    931  C4'       -7.5660    5.9950    2.5120 C.3    47  DA47        0.1746
    932  O4'       -8.4120    5.8690    1.3370 O.3    47  DA47       -0.3327
    933  C3'       -6.2450    5.3820    2.0560 C.3    47  DA47        0.1558
    934  O3'       -5.4120    4.9370    3.1280 O.3    47  DA47       -0.3138
    935  C2'       -6.7330    4.1970    1.2380 C.3    47  DA47        0.0865
    936  C1'       -7.9350    4.8130    0.5240 C.3    47  DA47        0.2094
    937  N9        -7.5650    5.3730   -0.7570 N.ar   47  DA47       -0.2714
    938  C8        -7.1400    6.6460   -1.0380 C.ar   47  DA47        0.1815
    939  N7        -6.9230    6.8610   -2.3140 N.ar   47  DA47       -0.2193
    940  C5        -7.2260    5.6480   -2.9120 C.ar   47  DA47        0.1518
    941  C6        -7.2000    5.2210   -4.2510 C.ar   47  DA47        0.1919
    942  N6        -6.8410    6.0040   -5.2700 N.pl3  47  DA47       -0.1054
    943  N1        -7.5610    3.9450   -4.5090 N.ar   47  DA47       -0.2040
    944  C2        -7.9220    3.1610   -3.4860 C.ar   47  DA47        0.2016
    945  N3        -7.9870    3.4480   -2.1880 N.ar   47  DA47       -0.2048
    946  C4        -7.6210    4.7220   -1.9650 C.ar   47  DA47        0.1691
    947  P         -3.7680    4.8720    2.9320 P.3    48  DA48        0.2141
    948  OP1       -2.8640    5.1690    4.0760 O.3    48  DA48       -0.4373
    949  OP2       -3.9180    5.8500    1.8440 O.2    48  DA48       -0.5172
    950  O5'       -3.2930    3.5180    2.2300 O.3    48  DA48       -0.3114
    951  C5'       -3.6330    2.2350    2.7480 C.3    48  DA48        0.1811
    952  C4'       -4.0480    1.3160    1.6220 C.3    48  DA48        0.1746
    953  O4'       -4.8750    2.0760    0.6930 O.3    48  DA48       -0.3327
    954  C3'       -2.9800    0.7440    0.6960 C.3    48  DA48        0.1558
    955  O3'       -2.3080   -0.3850    1.2450 O.3    48  DA48       -0.3138
    956  C2'       -3.8320    0.3010   -0.4820 C.3    48  DA48        0.0865
    957  C1'       -4.8240    1.4620   -0.5860 C.3    48  DA48        0.2094
    958  N9        -4.2560    2.3890   -1.5450 N.ar   48  DA48       -0.2714
    959  C8        -3.8650    3.6620   -1.2200 C.ar   48  DA48        0.1815
    960  N7        -3.5460    4.3980   -2.2580 N.ar   48  DA48       -0.2193
    961  C5        -3.7400    3.5520   -3.3380 C.ar   48  DA48        0.1518
    962  C6        -3.5770    3.7320   -4.7220 C.ar   48  DA48        0.1919
    963  N6        -3.1640    4.8750   -5.2750 N.pl3  48  DA48       -0.1054
    964  N1        -3.8560    2.6850   -5.5280 N.ar   48  DA48       -0.2040
    965  C2        -4.2710    1.5400   -4.9720 C.ar   48  DA48        0.2016
    966  N3        -4.4630    1.2500   -3.6880 N.ar   48  DA48       -0.2048
    967  C4        -4.1760    2.3110   -2.9140 C.ar   48  DA48        0.1691
    968  P         -0.6640   -0.5450    1.1520 P.3    49  DT49        0.2141
    969  OP1       -0.1640   -1.7080    1.9060 O.3    49  DT49       -0.4373
    970  OP2        0.2690    0.5640    0.8590 O.2    49  DT49       -0.5172
    971  O5'       -1.3060   -1.0610   -0.2010 O.3    49  DT49       -0.3114
    972  C5'       -1.3740   -2.3980   -0.5190 C.3    49  DT49        0.1811
    973  C4'       -1.0380   -2.4930   -1.9680 C.3    49  DT49        0.1746
    974  O4'       -1.6740   -1.4260   -2.6990 O.3    49  DT49       -0.3327
    975  C3'        0.4060   -2.2370   -2.2710 C.3    49  DT49        0.1558
    976  O3'        1.2030   -3.3430   -1.8650 O.3    49  DT49       -0.3138
    977  C2'        0.3360   -2.0120   -3.7770 C.3    49  DT49        0.0866
    978  C1'       -0.9170   -1.1680   -3.8680 C.3    49  DT49        0.2106
    979  N1        -0.6500    0.1940   -3.9440 N.ar   49  DT49       -0.2559
    980  C2        -0.2790    0.7660   -5.1460 C.ar   49  DT49        0.3545
    981  O2        -0.2260    0.1410   -6.1910 O.2    49  DT49       -0.2443
    982  N3         0.0290    2.1030   -5.0820 N.ar   49  DT49       -0.1533
    983  C4         0.0050    2.9070   -3.9620 C.ar   49  DT49        0.2804
    984  O4         0.3080    4.0940   -4.0620 O.2    49  DT49       -0.2654
    985  C5        -0.3890    2.2400   -2.7530 C.ar   49  DT49        0.0534
    986  C6        -0.6940    0.9400   -2.7870 C.ar   49  DT49        0.0824
    987  C7        -0.4460    3.0300   -1.4790 C.3    49  DT49        0.0377
    988  P          2.7090   -3.2460   -1.9560 P.3    50  DT50        0.2141
    989  OP1        3.2040   -4.5260   -1.3660 O.3    50  DT50       -0.4373
    990  OP2        3.5250   -2.0070   -1.8580 O.2    50  DT50       -0.5172
    991  O5'        2.4090   -3.4700   -3.4950 O.3    50  DT50       -0.3114
    992  C5'        3.0700   -4.4700   -4.2170 C.3    50  DT50        0.1811
    993  C4'        3.2790   -4.0100   -5.6210 C.3    50  DT50        0.1746
    994  O4'        2.3470   -2.9430   -5.9050 O.3    50  DT50       -0.3327
    995  C3'        4.5780   -3.3140   -5.8950 C.3    50  DT50        0.1558
    996  O3'        5.6020   -4.2380   -5.9630 O.3    50  DT50       -0.3138
    997  C2'        4.2840   -2.5820   -7.1810 C.3    50  DT50        0.0866
    998  C1'        2.9000   -2.0610   -6.8670 C.3    50  DT50        0.2106
    999  N1         3.0950   -0.7360   -6.3160 N.ar   50  DT50       -0.2559
   1000  C2         3.1400    0.4000   -7.1020 C.ar   50  DT50        0.3545
   1001  O2         3.2350    0.3650   -8.3160 O.2    50  DT50       -0.2443
   1002  N3         3.0710    1.5860   -6.4120 N.ar   50  DT50       -0.1533
   1003  C4         2.9630    1.7470   -5.0470 C.ar   50  DT50        0.2804
   1004  O4         2.9100    2.8790   -4.5730 O.2    50  DT50       -0.2654
   1005  C5         2.9230    0.5210   -4.3000 C.ar   50  DT50        0.0534
   1006  C6         2.9890   -0.6470   -4.9460 C.ar   50  DT50        0.0824
   1007  C7         2.8070    0.5900   -2.8060 C.3    50  DT50        0.0377
   1008  P          6.7710   -3.9090   -5.1810 P.3    51  DA51        0.2141
   1009  OP1        7.2160   -5.3110   -4.9840 O.2    51  DA51       -0.5172
   1010  OP2        7.1830   -2.8330   -4.2470 O.3    51  DA51       -0.4373
   1011  O5'        7.1720   -3.3660   -6.6340 O.3    51  DA51       -0.3114
   1012  C5'        8.4830   -3.4130   -7.1600 C.3    51  DA51        0.1811
   1013  C4'        8.6320   -2.4080   -8.2660 C.3    51  DA51        0.1746
   1014  O4'        7.5110   -1.4900   -8.2530 O.3    51  DA51       -0.3327
   1015  C3'        9.8260   -1.4950   -8.0990 C.3    51  DA51        0.1558
   1016  O3'       11.0350   -2.0940   -8.5020 O.3    51  DA51       -0.3138
   1017  C2'        9.4400   -0.2640   -8.8990 C.3    51  DA51        0.0865
   1018  C1'        7.9530   -0.1850   -8.5750 C.3    51  DA51        0.2094
   1019  N9         7.6070    0.6700   -7.4600 N.ar   51  DA51       -0.2714
   1020  C8         7.2480    0.3080   -6.1880 C.ar   51  DA51        0.1815
   1021  N7         6.7850    1.3010   -5.4660 N.ar   51  DA51       -0.2193
   1022  C5         6.8450    2.3890   -6.3220 C.ar   51  DA51        0.1518
   1023  C6         6.4960    3.7410   -6.1590 C.ar   51  DA51        0.1919
   1024  N6         5.9960    4.2440   -5.0280 N.pl3  51  DA51       -0.1054
   1025  N1         6.6800    4.5670   -7.2110 N.ar   51  DA51       -0.2040
   1026  C2         7.1810    4.0620   -8.3440 C.ar   51  DA51        0.2016
   1027  N3         7.5450    2.8110   -8.6180 N.ar   51  DA51       -0.2048
   1028  C4         7.3500    2.0160   -7.5530 C.ar   51  DA51        0.1691
   1029  P         12.1940   -1.7160   -7.4940 P.3    52  DC52        0.2141
   1030  OP1       13.5910   -2.1460   -7.7920 O.2    52  DC52       -0.5172
   1031  OP2       11.5840   -2.0670   -6.1970 O.3    52  DC52       -0.4373
   1032  O5'       12.1230   -0.1360   -7.6690 O.3    52  DC52       -0.3114
   1033  C5'       12.5930    0.4920   -8.8800 C.3    52  DC52        0.1811
   1034  C4'       12.8490    1.9560   -8.6410 C.3    52  DC52        0.1746
   1035  O4'       11.5850    2.6320   -8.4520 O.3    52  DC52       -0.3327
   1036  C3'       13.6420    2.2720   -7.3860 C.3    52  DC52        0.1558
   1037  O3'       15.0340    2.1820   -7.5890 O.3    52  DC52       -0.3138
   1038  C2'       13.1980    3.6880   -7.0610 C.3    52  DC52        0.0866
   1039  C1'       11.7210    3.6330   -7.4530 C.3    52  DC52        0.2106
   1040  N1        10.9320    3.2530   -6.2860 N.ar   52  DC52       -0.2556
   1041  C2        10.4930    4.2750   -5.4360 C.ar   52  DC52        0.3531
   1042  O2        10.6430    5.4560   -5.7940 O.2    52  DC52       -0.2443
   1043  N3         9.9220    3.9480   -4.2530 N.ar   52  DC52       -0.1739
   1044  C4         9.7830    2.6670   -3.9100 C.ar   52  DC52        0.1759
   1045  N4         9.2140    2.3930   -2.7340 N.pl3  52  DC52       -0.1070
   1046  C5        10.2210    1.6170   -4.7570 C.ar   52  DC52        0.0566
   1047  C6        10.7850    1.9440   -5.9250 C.ar   52  DC52        0.0849
   1048  P         16.0630    1.8870   -6.2930 P.3    53  DG53        0.2141
   1049  OP1       17.4300    1.9910   -6.8500 O.2    53  DG53       -0.5172
   1050  OP2       15.4170    0.5590   -6.1940 O.3    53  DG53       -0.4373
   1051  O5'       16.0110    2.4740   -4.7970 O.3    53  DG53       -0.3114
   1052  C5'       16.1530    3.8750   -4.6010 C.3    53  DG53        0.1811
   1053  C4'       16.0020    4.3150   -3.1630 C.3    53  DG53        0.1746
   1054  O4'       14.6130    4.2900   -2.7440 O.3    53  DG53       -0.3327
   1055  C3'       16.6910    3.4790   -2.1010 C.3    53  DG53        0.1558
   1056  O3'       18.0940    3.6560   -2.0600 O.3    53  DG53       -0.3138
   1057  C2'       15.9830    3.9550   -0.8400 C.3    53  DG53        0.0865
   1058  C1'       14.5490    4.0920   -1.3430 C.3    53  DG53        0.2094
   1059  N9        13.8240    2.8360   -1.0920 N.ar   53  DG53       -0.2713
   1060  C8        13.4770    1.9610   -2.0940 C.ar   53  DG53        0.1816
   1061  N7        12.7310    0.9740   -1.6800 N.ar   53  DG53       -0.2173
   1062  C5        12.5710    1.2080   -0.3270 C.ar   53  DG53        0.1748
   1063  C6        11.8620    0.4750    0.6590 C.ar   53  DG53        0.3023
   1064  O6        11.2090   -0.5660    0.5180 O.2    53  DG53       -0.2633
   1065  N1        11.9600    1.0650    1.9170 N.ar   53  DG53       -0.1709
   1066  C2        12.6560    2.2180    2.1900 C.ar   53  DG53        0.2606
   1067  N2        12.6350    2.6330    3.4640 N.pl3  53  DG53       -0.0859
   1068  N3        13.3200    2.9090    1.2850 N.ar   53  DG53       -0.1918
   1069  C4        13.2400    2.3550    0.0560 C.ar   53  DG53        0.1722
   1070  P         18.9490    2.3810   -1.8950 P.3    54  DT54        0.2141
   1071  OP1       20.3070    2.9370   -2.0950 O.3    54  DT54       -0.4373
   1072  OP2       18.5920    1.0700   -2.4820 O.2    54  DT54       -0.5172
   1073  O5'       18.6420    2.2030   -0.3310 O.3    54  DT54       -0.3114
   1074  C5'       18.9990    3.1980    0.6190 C.3    54  DT54        0.1811
   1075  C4'       18.8440    2.7020    2.0380 C.3    54  DT54        0.1746
   1076  O4'       17.4430    2.4470    2.3100 O.3    54  DT54       -0.3327
   1077  C3'       19.5250    1.3820    2.3720 C.3    54  DT54        0.1558
   1078  O3'       20.9100    1.5070    2.6510 O.3    54  DT54       -0.3138
   1079  C2'       18.7210    0.8760    3.5620 C.3    54  DT54        0.0866
   1080  C1'       17.3200    1.3810    3.2290 C.3    54  DT54        0.2106
   1081  N1        16.4770    0.3470    2.6510 N.ar   54  DT54       -0.2559
   1082  C2        15.9270   -0.5800    3.5160 C.ar   54  DT54        0.3545
   1083  O2        16.1040   -0.5500    4.7210 O.2    54  DT54       -0.2443
   1084  N3        15.1590   -1.5490    2.9180 N.ar   54  DT54       -0.1533
   1085  C4        14.8920   -1.6820    1.5710 C.ar   54  DT54        0.2804
   1086  O4        14.1810   -2.6060    1.1840 O.2    54  DT54       -0.2654
   1087  C5        15.4990   -0.6820    0.7380 C.ar   54  DT54        0.0534
   1088  C6        16.2510    0.2710    1.2940 C.ar   54  DT54        0.0824
   1089  C7        15.2680   -0.7410   -0.7430 C.3    54  DT54        0.0377
   1090  P         21.8530    0.3320    2.4360 P.3    55  DC55        0.2141
   1091  OP1       23.2840    0.7150    2.4670 O.3    55  DC55       -0.4373
   1092  OP2       21.2770   -0.2380    1.1900 O.2    55  DC55       -0.5172
   1093  O5'       21.5620   -0.7000    3.6180 O.3    55  DC55       -0.3114
   1094  C5'       21.8650   -0.3730    4.9760 C.3    55  DC55        0.1811
   1095  C4'       21.3330   -1.4370    5.9060 C.3    55  DC55        0.1746
   1096  O4'       19.8910   -1.5150    5.7720 O.3    55  DC55       -0.3327
   1097  C3'       21.8180   -2.8440    5.6100 C.3    55  DC55        0.1558
   1098  O3'       23.0650   -3.0690    6.2560 O.3    55  DC55       -0.3138
   1099  C2'       20.7130   -3.7220    6.2020 C.3    55  DC55        0.0866
   1100  C1'       19.4630   -2.8490    6.0050 C.3    55  DC55        0.2106
   1101  N1        18.3720   -3.1220    5.1870 N.ar   55  DC55       -0.2556
   1102  C2        17.3010   -3.9040    5.6340 C.ar   55  DC55        0.3531
   1103  O2        17.1630   -4.0870    6.8550 O.2    55  DC55       -0.2443
   1104  N3        16.4500   -4.4380    4.7250 N.ar   55  DC55       -0.1739
   1105  C4        16.6390   -4.2160    3.4240 C.ar   55  DC55        0.1759
   1106  N4        15.7750   -4.7630    2.5650 N.pl3  55  DC55       -0.1070
   1107  C5        17.7180   -3.4260    2.9510 C.ar   55  DC55        0.0566
   1108  C6        18.5560   -2.9010    3.8520 C.ar   55  DC55        0.0849
   1109  P         24.2830   -3.6690    5.3680 P.3    56  DT56        0.2141
   1110  OP1       24.8510   -3.5390    4.0070 O.2    56  DT56       -0.5172
   1111  OP2       23.2930   -4.7230    5.7010 O.3    56  DT56       -0.4373
   1112  O5'       25.4610   -3.9070    6.4180 O.3    56  DT56       -0.3114
   1113  C5'       26.5000   -2.9460    6.5330 C.3    56  DT56        0.1811
   1114  C4'       27.3160   -3.1830    7.7780 C.3    56  DT56        0.1746
   1115  O4'       26.4920   -2.9440    8.9470 O.3    56  DT56       -0.3327
   1116  C3'       27.7900   -4.6100    8.0060 C.3    56  DT56        0.1558
   1117  O3'       28.8830   -5.0170    7.2080 O.3    56  DT56       -0.3138
   1118  C2'       28.0830   -4.6070    9.4960 C.3    56  DT56        0.0866
   1119  C1'       26.8820   -3.8090    9.9950 C.3    56  DT56        0.2106
   1120  N1        25.7000   -4.6700   10.3610 N.ar   56  DT56       -0.2559
   1121  C2        25.7400   -5.1500   11.6570 C.ar   56  DT56        0.3545
   1122  O2        26.5850   -4.8090   12.4650 O.2    56  DT56       -0.2443
   1123  N3        24.7500   -6.0490   11.9750 N.ar   56  DT56       -0.1533
   1124  C4        23.7470   -6.5060   11.1460 C.ar   56  DT56        0.2804
   1125  O4        22.9290   -7.3140   11.5760 O.2    56  DT56       -0.2654
   1126  C5        23.7740   -5.9620    9.8170 C.ar   56  DT56        0.0534
   1127  C6        24.7250   -5.0870    9.4810 C.ar   56  DT56        0.0824
   1128  C7        22.7240   -6.3980    8.8390 C.3    56  DT56        0.0377
   1129  P         28.8120   -6.4070    6.8980 P.3    57  DG57        0.2141
   1130  OP1       29.3590   -5.8370    5.6390 O.2    57  DG57       -0.5172
   1131  OP2       27.5930   -7.2640    6.8570 O.3    57  DG57       -0.4373
   1132  O5'       29.9970   -7.1990    7.5980 O.3    57  DG57       -0.3114
   1133  C5'       30.9330   -6.5220    8.4210 C.3    57  DG57        0.1811
   1134  C4'       30.9560   -7.1590    9.7850 C.3    57  DG57        0.1746
   1135  O4'       29.6960   -6.9500   10.4780 O.3    57  DG57       -0.3327
   1136  C3'       31.0020   -8.6750    9.8020 C.3    57  DG57        0.1558
   1137  O3'       32.2270   -9.2290    9.3520 O.3    57  DG57       -0.3138
   1138  C2'       30.6600   -8.9740   11.2600 C.3    57  DG57        0.0865
   1139  C1'       29.6300   -7.8770   11.5550 C.3    57  DG57        0.2094
   1140  N9        28.4170   -8.3200   11.6420 N.ar   57  DG57       -0.2713
   1141  C8        27.5320   -8.2130   10.5970 C.ar   57  DG57        0.1816
   1142  N7        26.4130   -8.8530   10.8010 N.ar   57  DG57       -0.2173
   1143  C5        26.5640   -9.4150   12.0550 C.ar   57  DG57        0.1748
   1144  C6        25.6830  -10.2260   12.8150 C.ar   57  DG57        0.3023
   1145  O6        24.5490  -10.6170   12.5120 O.2    57  DG57       -0.2633
   1146  N1        26.2330  -10.5850   14.0420 N.ar   57  DG57       -0.1709
   1147  C2        27.4800  -10.2090   14.4830 C.ar   57  DG57        0.2606
   1148  N2        27.8360  -10.6520   15.6960 N.pl3  57  DG57       -0.0859
   1149  N3        28.3100   -9.4570   13.7880 N.ar   57  DG57       -0.1918
   1150  C4        27.7970   -9.0980   12.5920 C.ar   57  DG57        0.1722
   1151  P         32.2880  -10.7070    8.9170 P.3    58  DC58        0.2141
   1152  OP1       33.4970  -10.5050    8.0810 O.2    58  DC58       -0.5172
   1153  OP2       31.2100  -11.6370    8.5010 O.3    58  DC58       -0.4373
   1154  O5'       32.6730  -11.1650   10.4030 O.3    58  DC58       -0.3114
   1155  C5'       33.5110  -12.2660   10.6970 C.3    58  DC58        0.1811
   1156  C4'       33.2720  -12.7360   12.1030 C.3    58  DC58        0.1746
   1157  O4'       32.0580  -12.1400   12.6230 O.3    58  DC58       -0.3327
   1158  C3'       32.9990  -14.2200   12.2080 C.3    58  DC58        0.1558
   1159  O3'       34.1730  -14.9970   12.1650 O.3    58  DC58       -0.3138
   1160  C2'       32.2160  -14.3410   13.5020 C.3    58  DC58        0.0866
   1161  C1'       31.3660  -13.0780   13.4240 C.3    58  DC58        0.2106
   1162  N1        30.0300  -13.3180   12.8010 N.ar   58  DC58       -0.2556
   1163  C2        29.0150  -13.9190   13.5550 C.ar   58  DC58        0.3531
   1164  O2        29.2930  -14.3680   14.6800 O.2    58  DC58       -0.2443
   1165  N3        27.7660  -13.9940   13.0380 N.ar   58  DC58       -0.1739
   1166  C4        27.5140  -13.4990   11.8250 C.ar   58  DC58        0.1759
   1167  N4        26.2680  -13.5960   11.3570 N.pl3  58  DC58       -0.1070
   1168  C5        28.5280  -12.8860   11.0450 C.ar   58  DC58        0.0566
   1169  C6        29.7610  -12.8140   11.5600 C.ar   58  DC58        0.0849
   1170  P         33.8640  -15.9410   11.3410 P.3    59  DA59        0.2141
   1171  OP1       35.2610  -16.4150   11.4240 O.3    59  DA59       -0.4373
   1172  OP2       33.1910  -15.8830   10.0070 O.2    59  DA59       -0.5172
   1173  O5'       32.9650  -16.8610   12.2850 O.3    59  DA59       -0.3114
   1174  C5'       33.2730  -17.0110   13.6670 C.3    59  DA59        0.1811
   1175  C4'       32.2560  -17.9000   14.3450 C.3    59  DA59        0.1746
   1176  O4'       31.0100  -17.1750   14.5100 O.3    59  DA59       -0.3327
   1177  C3'       31.8450  -19.1840   13.6420 C.3    59  DA59        0.1558
   1178  O3'       32.7200  -20.2920   13.8210 O.3    59  DA59       -0.3138
   1179  C2'       30.4980  -19.4850   14.2780 C.3    59  DA59        0.0865
   1180  C1'       29.9270  -18.0890   14.4970 C.3    59  DA59        0.2094
   1181  N9        29.0290  -17.6680   13.4060 N.ar   59  DA59       -0.2714
   1182  C8        29.3310  -17.0550   12.2180 C.ar   59  DA59        0.1815
   1183  N7        28.3260  -17.0130   11.3750 N.ar   59  DA59       -0.2193
   1184  C5        27.2960  -17.6410   12.0550 C.ar   59  DA59        0.1518
   1185  C6        25.9630  -17.9190   11.7050 C.ar   59  DA59        0.1919
   1186  N6        25.4210  -17.5830   10.5320 N.pl3  59  DA59       -0.1054
   1187  N1        25.1980  -18.5620   12.6130 N.ar   59  DA59       -0.2040
   1188  C2        25.7420  -18.8980   13.7880 C.ar   59  DA59        0.2016
   1189  N3        26.9790  -18.6910   14.2320 N.ar   59  DA59       -0.2048
   1190  C4        27.7140  -18.0510   13.3070 C.ar   59  DA59        0.1691
   1191  P         32.8780  -21.5500   12.5070 P.3    60  DC60        0.2141
   1192  OP1       33.7110  -22.7700   12.7210 O.3    60  DC60       -0.4373
   1193  OP2       32.5790  -21.0880   11.1330 O.2    60  DC60       -0.5172
   1194  O5'       31.5380  -21.7660   13.3360 O.3    60  DC60       -0.3114
   1195  C5'       31.6010  -22.2450   14.6740 C.3    60  DC60        0.1811
   1196  C4'       30.2960  -22.8840   15.0730 C.3    60  DC60        0.1746
   1197  O4'       29.2400  -21.8900   15.0020 O.3    60  DC60       -0.3327
   1198  C3'       29.8010  -24.0060   14.1720 C.3    60  DC60        0.1558
   1199  O3'       30.3980  -25.2490   14.5090 O.3    60  DC60       -0.3138
   1200  C2'       28.3070  -24.0020   14.4590 C.3    60  DC60        0.0866
   1201  C1'       28.0330  -22.5100   14.5980 C.3    60  DC60        0.2106
   1202  N1        27.6230  -21.9370   13.3140 N.ar   60  DC60       -0.2556
   1203  C2        26.2600  -21.8840   12.9980 C.ar   60  DC60        0.3531
   1204  O2        25.4320  -22.2140   13.8650 O.2    60  DC60       -0.2443
   1205  N3        25.8850  -21.4760   11.7620 N.ar   60  DC60       -0.1739
   1206  C4        26.8080  -21.1320   10.8640 C.ar   60  DC60        0.1759
   1207  N4        26.3910  -20.7370    9.6590 N.pl3  60  DC60       -0.1070
   1208  C5        28.1940  -21.1790   11.1640 C.ar   60  DC60        0.0566
   1209  C6        28.5600  -21.5820   12.3860 C.ar   60  DC60        0.0849
   1210  P         30.2210  -26.4910   13.5340 P.3    61  DA61        0.2141
   1211  OP1       30.8860  -27.6980   14.0950 O.3    61  DA61       -0.4373
   1212  OP2       30.6750  -25.9350   12.2320 O.2    61  DA61       -0.5172
   1213  O5'       28.6660  -26.8110   13.3970 O.3    61  DA61       -0.3114
   1214  C5'       27.8890  -27.1290   14.5520 C.3    61  DA61        0.1811
   1215  C4'       26.4230  -27.2290   14.2030 C.3    61  DA61        0.1746
   1216  O4'       25.8770  -25.9180   13.8930 O.3    61  DA61       -0.3327
   1217  C3'       26.0840  -28.0290   12.9600 C.3    61  DA61        0.1558
   1218  O3'       26.0830  -29.4060   13.1810 O.3    61  DA61       -0.3138
   1219  C2'       24.6710  -27.5670   12.6950 C.3    61  DA61        0.0865
   1220  C1'       24.8190  -26.0680   12.9500 C.3    61  DA61        0.2094
   1221  N9        25.1670  -25.3880   11.6980 N.ar   61  DA61       -0.2714
   1222  C8        26.3970  -25.0070   11.2310 C.ar   61  DA61        0.1815
   1223  N7        26.3670  -24.4800   10.0290 N.ar   61  DA61       -0.2193
   1224  C5        25.0250  -24.5190    9.6840 C.ar   61  DA61        0.1518
   1225  C6        24.3320  -24.1080    8.5320 C.ar   61  DA61        0.1919
   1226  N6        24.9240  -23.5530    7.4720 N.pl3  61  DA61       -0.1054
   1227  N1        22.9950  -24.2890    8.5070 N.ar   61  DA61       -0.2040
   1228  C2        22.4020  -24.8440    9.5700 C.ar   61  DA61        0.2016
   1229  N3        22.9450  -25.2700   10.7080 N.ar   61  DA61       -0.2048
   1230  C4        24.2740  -25.0770   10.7010 C.ar   61  DA61        0.1691
   1231  P         26.2440  -30.2880   12.0300 P.3    62  DT62        0.2141
   1232  OP1       26.7490  -31.5680   12.5840 O.3    62  DT62       -0.4373
   1233  OP2       27.1480  -29.4390   11.2140 O.2    62  DT62       -0.5172
   1234  O5'       24.9230  -30.5810   11.1880 O.3    62  DT62       -0.3114
   1235  C5'       23.7070  -30.9230   11.8530 C.3    62  DT62        0.1811
   1236  C4'       22.5150  -30.6380   10.9680 C.3    62  DT62        0.1746
   1237  O4'       22.4400  -29.2190   10.6680 O.3    62  DT62       -0.3327
   1238  C3'       22.5380  -31.2930    9.6010 C.3    62  DT62        0.1558
   1239  O3'       22.0950  -32.6410    9.6800 O.3    62  DT62       -0.3138
   1240  C2'       21.5630  -30.4220    8.8140 C.3    62  DT62        0.0866
   1241  C1'       21.8600  -29.0340    9.3870 C.3    62  DT62        0.2106
   1242  N1        22.8180  -28.3170    8.5500 N.ar   62  DT62       -0.2559
   1243  C2        22.3130  -27.5870    7.4900 C.ar   62  DT62        0.3545
   1244  O2        21.1230  -27.5200    7.2380 O.2    62  DT62       -0.2443
   1245  N3        23.2560  -26.9360    6.7320 N.ar   62  DT62       -0.1533
   1246  C4        24.6220  -26.9410    6.9220 C.ar   62  DT62        0.2804
   1247  O4        25.3420  -26.3040    6.1570 O.2    62  DT62       -0.2654
   1248  C5        25.0680  -27.7220    8.0410 C.ar   62  DT62        0.0534
   1249  C6        24.1730  -28.3660    8.7950 C.ar   62  DT62        0.0824
   1250  C7        26.5380  -27.7910    8.3310 C.3    62  DT62        0.0377
   1251  P         22.5520  -33.2560    8.6670 P.3    63  DA63        0.2141
   1252  OP1       22.6740  -34.7120    8.8930 O.3    63  DA63       -0.4373
   1253  OP2       23.3470  -32.6190    7.6050 O.2    63  DA63       -0.5172
   1254  O5'       21.0240  -32.8870    8.4390 O.3    63  DA63       -0.3114
   1255  C5'       20.3050  -33.3880    7.3250 C.3    63  DA63        0.1811
   1256  C4'       18.8750  -33.6510    7.7230 C.3    63  DA63        0.1746
   1257  O4'       18.8120  -34.7900    8.6190 O.3    63  DA63       -0.3327
   1258  C3'       18.2190  -32.5270    8.5010 C.3    63  DA63        0.1558
   1259  O3'       17.7220  -31.5480    7.5970 O.3    63  DA63       -0.3138
   1260  C2'       17.1090  -33.2630    9.2370 C.3    63  DA63        0.0865
   1261  C1'       17.7770  -34.6030    9.5570 C.3    63  DA63        0.2094
   1262  N9        18.5100  -34.8580   10.7590 N.ar   63  DA63       -0.2714
   1263  C8        19.8300  -34.5860   11.0080 C.ar   63  DA63        0.1815
   1264  N7        20.1540  -34.6550   12.2780 N.ar   63  DA63       -0.2193
   1265  C5        18.9660  -34.9950   12.9050 C.ar   63  DA63        0.1518
   1266  C6        18.6390  -35.2210   14.2540 C.ar   63  DA63        0.1919
   1267  N6        19.5210  -35.1350   15.2520 N.pl3  63  DA63       -0.1054
   1268  N1        17.3600  -35.5430   14.5430 N.ar   63  DA63       -0.2040
   1269  C2        16.4770  -35.6300   13.5420 C.ar   63  DA63        0.2016
   1270  N3        16.6640  -35.4410   12.2370 N.ar   63  DA63       -0.2048
   1271  C4        17.9440  -35.1220   11.9830 C.ar   63  DA63        0.1691
   1272  P         17.4340  -30.0130    8.0060 P.3    64  DC64        0.2141
   1273  OP1       17.9480  -29.0980    6.9560 O.2    64  DC64       -0.5172
   1274  OP2       18.0090  -29.9700    9.3770 O.3    64  DC64       -0.4373
   1275  O5'       15.8590  -29.8180    8.1370 O.3    64  DC64       -0.3114
   1276  C5'       14.9610  -30.9120    7.9990 C.3    64  DC64        0.1811
   1277  C4'       13.8540  -30.8150    9.0240 C.3    64  DC64        0.1746
   1278  O4'       13.9070  -31.9580    9.9090 O.3    64  DC64       -0.3327
   1279  C3'       13.9420  -29.6390    9.9710 C.3    64  DC64        0.1558
   1280  O3'       13.4380  -28.4650    9.4020 O.3    64  DC64       -0.3138
   1281  C2'       13.1480  -30.1010   11.1680 C.3    64  DC64        0.0866
   1282  C1'       13.5410  -31.5670   11.2210 C.3    64  DC64        0.2106
   1283  N1        14.7180  -31.7800   12.1150 N.ar   64  DC64       -0.2556
   1284  C2        14.4330  -32.0230   13.4630 C.ar   64  DC64        0.3531
   1285  O2        13.2520  -32.2150   13.8000 O.2    64  DC64       -0.2443
   1286  N3        15.4490  -32.0420   14.3590 N.ar   64  DC64       -0.1739
   1287  C4        16.7010  -31.8300   13.9510 C.ar   64  DC64        0.1759
   1288  N4        17.6700  -31.8580   14.8700 N.pl3  64  DC64       -0.1070
   1289  C5        17.0100  -31.5820   12.5890 C.ar   64  DC64        0.0566
   1290  C6        16.0040  -31.5640   11.7090 C.ar   64  DC64        0.0849
   1291  P         14.0160  -26.9670    9.8850 P.3    65  DC65        0.2141
   1292  OP1       13.5790  -27.0050    8.4670 O.2    65  DC65       -0.5172
   1293  OP2       15.3670  -26.4670   10.2250 O.3    65  DC65       -0.4373
   1294  O5'       12.9750  -26.1090   10.7360 O.3    65  DC65       -0.3114
   1295  C5'       11.5780  -26.4150   10.6650 C.3    65  DC65        0.1811
   1296  C4'       11.0200  -26.8320   12.0160 C.3    65  DC65        0.1746
   1297  O4'       11.9070  -27.7340   12.7380 O.3    65  DC65       -0.3327
   1298  C3'       10.7770  -25.7940   13.0950 C.3    65  DC65        0.1558
   1299  O3'        9.6870  -24.9220   12.8170 O.3    65  DC65       -0.3138
   1300  C2'       10.4010  -26.7180   14.2460 C.3    65  DC65        0.0866
   1301  C1'       11.4380  -27.8310   14.0820 C.3    65  DC65        0.2106
   1302  N1        12.5550  -27.8580   14.8120 N.ar   65  DC65       -0.2556
   1303  C2        12.6190  -28.1730   16.1740 C.ar   65  DC65        0.3531
   1304  O2        11.5580  -28.3170   16.8050 O.2    65  DC65       -0.2443
   1305  N3        13.8310  -28.3090   16.7630 N.ar   65  DC65       -0.1739
   1306  C4        14.9430  -28.1430   16.0460 C.ar   65  DC65        0.1759
   1307  N4        16.1150  -28.2870   16.6690 N.pl3  65  DC65       -0.1070
   1308  C5        14.9000  -27.8240   14.6650 C.ar   65  DC65        0.0566
   1309  C6        13.7010  -27.6900   14.0870 C.ar   65  DC65        0.0849
   1310  P          9.2980  -23.7570   13.9700 P.3    66  DA66        0.2141
   1311  OP1        7.9680  -23.2070   13.6030 O.2    66  DA66       -0.5172
   1312  OP2       10.5020  -22.8980   13.8550 O.3    66  DA66       -0.4373
   1313  O5'        9.2070  -24.3180   15.4520 O.3    66  DA66       -0.3114
   1314  C5'        8.1610  -25.2030   15.8210 C.3    66  DA66        0.1811
   1315  C4'        8.1970  -25.4320   17.3030 C.3    66  DA66        0.1746
   1316  O4'        9.2840  -26.3380   17.6290 O.3    66  DA66       -0.3327
   1317  C3'        8.5160  -24.1770   18.0890 C.3    66  DA66        0.1558
   1318  O3'        7.3690  -23.3720   18.2870 O.3    66  DA66       -0.3138
   1319  C2'        9.0810  -24.7530   19.3730 C.3    66  DA66        0.0865
   1320  C1'        9.9260  -25.8990   18.8170 C.3    66  DA66        0.2094
   1321  N9        11.2950  -25.3310   18.4910 N.ar   66  DA66       -0.2714
   1322  C8        11.7910  -25.0040   17.2560 C.ar   66  DA66        0.1815
   1323  N7        13.0700  -24.7100   17.2600 N.ar   66  DA66       -0.2193
   1324  C5        13.4390  -24.8540   18.5880 C.ar   66  DA66        0.1518
   1325  C6        14.6670  -24.6860   19.2520 C.ar   66  DA66        0.1919
   1326  N6        15.7950  -24.3220   18.6390 N.pl3  66  DA66       -0.1054
   1327  N1        14.6940  -24.9070   20.5840 N.ar   66  DA66       -0.2040
   1328  C2        13.5620  -25.2720   21.1970 C.ar   66  DA66        0.2016
   1329  N3        12.3500  -25.4630   20.6820 N.ar   66  DA66       -0.2048
   1330  C4        12.3560  -25.2340   19.3580 C.ar   66  DA66        0.1691
   1331  P          7.6310  -21.9710   18.3220 P.3    67  DG67        0.2141
   1332  OP1        6.2940  -21.3280   18.2720 O.3    67  DG67       -0.4373
   1333  OP2        8.4970  -21.9540   17.1150 O.2    67  DG67       -0.5172
   1334  O5'        8.4390  -21.3280   19.5390 O.3    67  DG67       -0.3114
   1335  C5'        7.8730  -21.3130   20.8570 C.3    67  DG67        0.1811
   1336  C4'        8.9250  -21.6180   21.9020 C.3    67  DG67        0.1746
   1337  O4'        9.9280  -22.5230   21.3630 O.3    67  DG67       -0.3327
   1338  C3'        9.7460  -20.4600   22.4380 C.3    67  DG67        0.1558
   1339  O3'        9.0490  -19.7330   23.4370 O.3    67  DG67       -0.3138
   1340  C2'       10.9630  -21.1730   23.0170 C.3    67  DG67        0.0865
   1341  C1'       11.1720  -22.3010   22.0120 C.3    67  DG67        0.2094
   1342  N9        12.1900  -21.7630   21.1160 N.ar   67  DG67       -0.2713
   1343  C8        11.9970  -21.5810   19.7680 C.ar   67  DG67        0.1816
   1344  N7        13.0930  -21.2810   19.1260 N.ar   67  DG67       -0.2173
   1345  C5        14.0690  -21.2630   20.1040 C.ar   67  DG67        0.1748
   1346  C6        15.4600  -20.9970   20.0160 C.ar   67  DG67        0.3023
   1347  O6        16.1230  -20.7140   19.0100 O.2    67  DG67       -0.2633
   1348  N1        16.0870  -21.0840   21.2560 N.ar   67  DG67       -0.1709
   1349  C2        15.4520  -21.3900   22.4360 C.ar   67  DG67        0.2606
   1350  N2        16.2240  -21.4290   23.5300 N.pl3  67  DG67       -0.0859
   1351  N3        14.1610  -21.6390   22.5340 N.ar   67  DG67       -0.1918
   1352  C4        13.5320  -21.5590   21.3420 C.ar   67  DG67        0.1722
   1353  P          8.9960  -18.6980   23.2090 P.3    68  DC68        0.2141
   1354  OP1        8.5100  -17.5890   24.0750 O.3    68  DC68       -0.4373
   1355  OP2        9.0620  -18.5120   21.7360 O.2    68  DC68       -0.5172
   1356  O5'       10.4430  -19.1630   23.6960 O.3    68  DC68       -0.3114
   1357  C5'       10.6730  -19.5820   25.0670 C.3    68  DC68        0.1811
   1358  C4'       11.8140  -18.7900   25.6670 C.3    68  DC68        0.1746
   1359  O4'       13.0590  -19.1710   25.0440 O.3    68  DC68       -0.3327
   1360  C3'       11.6740  -17.2900   25.4730 C.3    68  DC68        0.1558
   1361  O3'       11.0770  -16.7540   26.6390 O.3    68  DC68       -0.3138
   1362  C2'       13.1040  -16.7970   25.3330 C.3    68  DC68        0.0866
   1363  C1'       13.8130  -18.0190   24.7400 C.3    68  DC68        0.2106
   1364  N1        14.1300  -18.1350   23.1510 N.ar   68  DC68       -0.2556
   1365  C2        15.3370  -17.4770   22.8910 C.ar   68  DC68        0.3531
   1366  O2        16.1510  -17.3320   23.8190 O.2    68  DC68       -0.2443
   1367  N3        15.5820  -17.0190   21.6400 N.ar   68  DC68       -0.1739
   1368  C4        14.6780  -17.1960   20.6760 C.ar   68  DC68        0.1759
   1369  N4        14.9640  -16.7280   19.4580 N.pl3  68  DC68       -0.1070
   1370  C5        13.4490  -17.8600   20.9190 C.ar   68  DC68        0.0566
   1371  C6        13.2110  -18.3110   22.1560 C.ar   68  DC68        0.0849
   1372  P         10.9470  -15.3140   26.7490 P.3    69  DT69        0.2141
   1373  OP1        9.8180  -15.0710   27.6780 O.3    69  DT69       -0.4373
   1374  OP2       10.7310  -15.1990   25.2860 O.2    69  DT69       -0.5172
   1375  O5'       12.1500  -14.3360   27.1390 O.3    69  DT69       -0.3114
   1376  C5'       12.8750  -14.4350   28.3780 C.3    69  DT69        0.1811
   1377  C4'       14.1600  -13.6160   28.3090 C.3    69  DT69        0.1746
   1378  O4'       15.0100  -14.1280   27.2460 O.3    69  DT69       -0.3327
   1379  C3'       13.9660  -12.1580   27.9260 C.3    69  DT69        0.1558
   1380  O3'       13.5640  -11.3490   29.0230 O.3    69  DT69       -0.3138
   1381  C2'       15.3380  -11.7730   27.3800 C.3    69  DT69        0.0866
   1382  C1'       15.7380  -13.0620   26.6820 C.3    69  DT69        0.2106
   1383  N1        15.4750  -13.0260   25.2100 N.ar   69  DT69       -0.2559
   1384  C2        16.3340  -12.2140   24.4920 C.ar   69  DT69        0.3545
   1385  O2        17.2810  -11.6390   24.9980 O.2    69  DT69       -0.2443
   1386  N3        16.0420  -12.0980   23.1550 N.ar   69  DT69       -0.1533
   1387  C4        15.0010  -12.6980   22.4770 C.ar   69  DT69        0.2804
   1388  O4        14.8690  -12.4990   21.2720 O.2    69  DT69       -0.2654
   1389  C5        14.1540  -13.5240   23.2910 C.ar   69  DT69        0.0534
   1390  C6        14.4140  -13.6540   24.5950 C.ar   69  DT69        0.0824
   1391  C7        12.9930  -14.2200   22.6460 C.3    69  DT69        0.0377
   1392  P         12.8930   -9.8140   28.6910 P.3    70  DT70        0.2141
   1393  OP1       12.9700   -9.1030   29.9860 O.3    70  DT70       -0.4373
   1394  OP2       11.5710  -10.1670   28.1310 O.2    70  DT70       -0.5172
   1395  O5'       13.5340   -8.8950   27.5510 O.3    70  DT70       -0.3114
   1396  C5'       14.8280   -8.3470   27.7330 C.3    70  DT70        0.1811
   1397  C4'       15.4750   -7.9890   26.4190 C.3    70  DT70        0.1746
   1398  O4'       15.6720   -9.1780   25.6120 O.3    70  DT70       -0.3327
   1399  C3'       14.6560   -7.1020   25.5050 C.3    70  DT70        0.1558
   1400  O3'       14.6510   -5.7510   25.9120 O.3    70  DT70       -0.3138
   1401  C2'       15.3190   -7.3530   24.1600 C.3    70  DT70        0.0866
   1402  C1'       15.5290   -8.8600   24.2440 C.3    70  DT70        0.2106
   1403  N1        14.4350   -9.5570   23.6650 N.ar   70  DT70       -0.2559
   1404  C2        14.1930   -9.4590   22.3080 C.ar   70  DT70        0.3545
   1405  O2        14.8120   -8.7090   21.5740 O.2    70  DT70       -0.2443
   1406  N3        13.1920  -10.2740   21.8360 N.ar   70  DT70       -0.1533
   1407  C4        12.4270  -11.1570   22.5690 C.ar   70  DT70        0.2804
   1408  O4        11.5630  -11.8240   22.0040 O.2    70  DT70       -0.2654
   1409  C5        12.7380  -11.2000   23.9700 C.ar   70  DT70        0.0534
   1410  C6        13.7070  -10.4180   24.4550 C.ar   70  DT70        0.0824
   1411  C7        11.9590  -12.1300   24.8530 C.3    70  DT70        0.0377
   1412  P         13.4120   -5.2900   26.1010 P.3    71  DA71        0.2141
   1413  OP1       13.6820   -4.4380   27.2920 O.3    71  DA71       -0.4373
   1414  OP2       12.2510   -6.2040   25.9670 O.2    71  DA71       -0.5172
   1415  O5'       13.4070   -4.3080   24.8440 O.3    71  DA71       -0.3114
   1416  C5'       14.6600   -3.9670   24.3320 C.3    71  DA71        0.1811
   1417  C4'       14.4320   -3.6240   22.8820 C.3    71  DA71        0.1746
   1418  O4'       13.9080   -4.8460   22.4170 O.3    71  DA71       -0.3327
   1419  C3'       13.2770   -2.7760   22.4280 C.3    71  DA71        0.1558
   1420  O3'       13.5510   -1.4360   22.5380 O.3    71  DA71       -0.3138
   1421  C2'       13.0290   -3.2360   20.9760 C.3    71  DA71        0.0865
   1422  C1'       13.3280   -4.6720   21.1560 C.3    71  DA71        0.2094
   1423  N9        12.2450   -5.4130   21.0210 N.ar   71  DA71       -0.2715
   1424  C8        11.7660   -6.1250   22.0900 C.ar   71  DA71        0.1817
   1425  N7        10.7080   -6.8490   21.8110 N.ar   71  DA71       -0.2148
   1426  C5        10.4750   -6.5940   20.4690 C.ar   71  DA71        0.2031
   1427  C6         9.4960   -7.0580   19.5740 C.2    71  DA71        0.4072
   1428  N6         8.5290   -7.9140   19.9140 N.pl3  71  DA71        0.2137
   1429  N1         9.5460   -6.6080   18.3020 N.pl3  71  DA71       -0.0718
   1430  C2        10.5160   -5.7520   17.9610 C.3    71  DA71        0.3631
   1431  N3        11.4910   -5.2440   18.7120 N.2    71  DA71       -0.2033
   1432  C4        11.4130   -5.7100   19.9690 C.ar   71  DA71        0.1712
   1433  P         12.3130   -0.6150   23.1160 P.3    72  DT72        0.2141
   1434  OP1       12.8220    0.7050   23.5580 O.2    72  DT72       -0.5172
   1435  OP2       11.4700   -1.4270   24.0250 O.3    72  DT72       -0.4373
   1436  O5'       11.4200   -0.4650   21.7930 O.3    72  DT72       -0.3114
   1437  C5'       11.9800   -0.0180   20.5660 C.3    72  DT72        0.1812
   1438  C4'       10.9650   -0.0410   19.4490 C.3    72  DT72        0.1775
   1439  O4'       10.7820   -1.3990   18.9790 O.3    72  DT72       -0.3326
   1440  C3'        9.5610    0.4140   19.8180 C.3    72  DT72        0.1864
   1441  O3'        9.4050    1.8180   19.7950 O.3    72  DT72       -0.2133
   1442  C2'        8.6950   -0.2900   18.7850 C.3    72  DT72        0.0895
   1443  C1'        9.4310   -1.6150   18.6410 C.3    72  DT72        0.2107
   1444  N1         8.8610   -2.6590   19.6390 N.ar   72  DT72       -0.2559
   1445  C2         7.7160   -3.2880   19.1860 C.ar   72  DT72        0.3545
   1446  O2         7.2510   -3.1010   18.0760 O.2    72  DT72       -0.2443
   1447  N3         7.1320   -4.1480   20.0840 N.ar   72  DT72       -0.1533
   1448  C4         7.5660   -4.4360   21.3610 C.ar   72  DT72        0.2804
   1449  O4         6.9340   -5.2330   22.0500 O.2    72  DT72       -0.2654
   1450  C5         8.7600   -3.7430   21.7580 C.ar   72  DT72        0.0534
   1451  C6         9.3490   -2.9010   20.9050 C.ar   72  DT72        0.0824
   1452  C7         9.3130   -3.9890   23.1310 C.3    72  DT72        0.0377
   1453  P          8.4110    2.4190   20.8340 P.3    73  DT73        0.3939
   1454  OP1        9.3110    3.1250   19.8850 O.3    73  DT73       -0.1496
   1455  OP2        8.3670    2.7170   22.2920 O.3    73  DT73       -0.1425
   1456  O5'        6.9280    2.6010   20.2760 O.3    73  DT73       -0.2926
   1457  C5'        6.4680    1.9900   19.0730 C.3    73  DT73        0.1828
   1458  C4'        4.9790    1.7500   19.1720 C.3    73  DT73        0.1747
   1459  O4'        4.6950    0.3440   18.9280 O.3    73  DT73       -0.3327
   1460  C3'        4.3840    2.1040   20.5300 C.3    73  DT73        0.1558
   1461  O3'        4.0950    3.5160   20.5330 O.3    73  DT73       -0.3138
   1462  C2'        3.2230    1.1060   20.5540 C.3    73  DT73        0.0866
   1463  C1'        3.8890   -0.1490   19.9730 C.3    73  DT73        0.2106
   1464  N1         5.0740   -1.2240   20.8770 N.ar   73  DT73       -0.2559
   1465  C2         4.3540   -2.1370   21.6250 C.ar   73  DT73        0.3545
   1466  O2         3.1590   -2.3230   21.4750 O.2    73  DT73       -0.2443
   1467  N3         5.0850   -2.8280   22.5600 N.ar   73  DT73       -0.1533
   1468  C4         6.4340   -2.7020   22.8170 C.ar   73  DT73        0.2804
   1469  O4         6.9520   -3.3940   23.6900 O.2    73  DT73       -0.2654
   1470  C5         7.1120   -1.7340   22.0010 C.ar   73  DT73        0.0534
   1471  C6         6.4240   -1.0470   21.0840 C.ar   73  DT73        0.0824
   1472  C7         8.5830   -1.5230   22.2050 C.3    73  DT73        0.0377
   1473  P          3.4640    4.2760   21.9680 P.3    74  DC74        0.2141
   1474  OP1        3.3420    5.4690   21.1060 O.2    74  DC74       -0.5172
   1475  OP2        4.1160    4.4040   23.2910 O.3    74  DC74       -0.4373
   1476  O5'        2.0080    3.6560   22.1790 O.3    74  DC74       -0.3114
   1477  C5'        0.9870    4.3840   22.9140 C.3    74  DC74        0.1811
   1478  C4'       -0.0100    3.4320   23.5510 C.3    74  DC74        0.1746
   1479  O4'       -0.7750    2.7260   22.5410 O.3    74  DC74       -0.3327
   1480  C3'        0.5790    2.3180   24.4000 C.3    74  DC74        0.1558
   1481  O3'        0.8880    2.7950   25.6930 O.3    74  DC74       -0.3138
   1482  C2'       -0.5540    1.3060   24.4260 C.3    74  DC74        0.0866
   1483  C1'       -1.0680    1.4120   22.9930 C.3    74  DC74        0.2106
   1484  N1        -0.4120    0.4490   22.0930 N.ar   74  DC74       -0.2556
   1485  C2        -0.7630   -0.8970   22.2570 C.ar   74  DC74        0.3531
   1486  O2        -1.6420   -1.1890   23.0850 O.2    74  DC74       -0.2443
   1487  N3        -0.1350   -1.8370   21.5110 N.ar   74  DC74       -0.1739
   1488  C4         0.8030   -1.4770   20.6350 C.ar   74  DC74        0.1759
   1489  N4         1.3950   -2.4380   19.9220 N.pl3  74  DC74       -0.1070
   1490  C5         1.1730   -0.1190   20.4540 C.ar   74  DC74        0.0566
   1491  C6         0.5510    0.8060   21.1930 C.ar   74  DC74        0.0849
   1492  P          1.8820    2.1390   26.4970 P.3    75  DA75        0.2141
   1493  OP1        1.6850    2.6400   27.8650 O.3    75  DA75       -0.4373
   1494  OP2        3.2200    1.9860   25.8690 O.2    75  DA75       -0.5172
   1495  O5'        1.1330    0.7440   26.5500 O.3    75  DA75       -0.3114
   1496  C5'        0.3830    0.6030   27.7180 C.3    75  DA75        0.1811
   1497  C4'       -0.2610   -0.7530   27.7090 C.3    75  DA75        0.1746
   1498  O4'       -0.7220   -0.9970   26.3660 O.3    75  DA75       -0.3327
   1499  C3'        0.6910   -1.9070   27.9600 C.3    75  DA75        0.1558
   1500  O3'        1.0110   -2.0520   29.3380 O.3    75  DA75       -0.3138
   1501  C2'       -0.1000   -3.0830   27.3820 C.3    75  DA75        0.0865
   1502  C1'       -0.6070   -2.3990   26.1170 C.3    75  DA75        0.2094
   1503  N9         0.2490   -2.6290   24.9480 N.ar   75  DA75       -0.2714
   1504  C8         1.2770   -1.8540   24.4780 C.ar   75  DA75        0.1815
   1505  N7         1.9000   -2.3730   23.4460 N.ar   75  DA75       -0.2193
   1506  C5         1.2370   -3.5690   23.2250 C.ar   75  DA75        0.1518
   1507  C6         1.4150   -4.5870   22.2720 C.ar   75  DA75        0.1919
   1508  N6         2.3560   -4.5570   21.3250 N.pl3  75  DA75       -0.1054
   1509  N1         0.5830   -5.6490   22.3260 N.ar   75  DA75       -0.2040
   1510  C2        -0.3600   -5.6780   23.2750 C.ar   75  DA75        0.2016
   1511  N3        -0.6260   -4.7830   24.2230 N.ar   75  DA75       -0.2048
   1512  C4         0.2180   -3.7410   24.1430 C.ar   75  DA75        0.1691
   1513  P          2.5520   -2.9200   29.8020 P.3    76  DA76        0.2141
   1514  OP1        2.9480   -3.0750   31.2190 O.3    76  DA76       -0.4373
   1515  OP2        3.4910   -2.3350   28.8160 O.2    76  DA76       -0.5172
   1516  O5'        2.2070   -4.3610   29.1910 O.3    76  DA76       -0.3113
   1517  C5'        1.3970   -5.2990   29.8920 C.3    76  DA76        0.1836
   1518  C4'        0.9040   -6.4010   28.9830 C.3    76  DA76        0.1990
   1519  O4'        0.4470   -5.8200   27.7350 O.3    76  DA76       -0.3323
   1520  C3'        1.9400   -7.4230   28.5420 C.3    76  DA76        0.2379
   1521  O3'        2.1930   -8.4380   29.4930 O.3    76  DA76       -0.2491
   1522  C2'        1.3680   -7.9500   27.2340 C.3    76  DA76        0.1107
   1523  C1'        0.7750   -6.6690   26.6580 C.3    76  DA76        0.2000
   1524  N9         1.6950   -6.0080   25.8000 N.pl3  76  DA76       -0.2457
   1525  C8         2.3590   -4.8440   26.0880 C.2    76  DA76        0.1669
   1526  N7         3.1500   -4.4340   25.1250 N.2    76  DA76       -0.2209
   1527  C5         2.9950   -5.3940   24.1380 C.2    76  DA76        0.1885
   1528  C6         3.5640   -5.5370   22.8600 C.2    76  DA76        0.4091
   1529  N6         4.4390   -4.6730   22.3390 N.pl3  76  DA76        0.2138
   1530  N1         3.1990   -6.6110   22.1280 N.pl3  76  DA76       -0.0377
   1531  C2         2.3210   -7.4760   22.6500 C.2    76  DA76        0.3041
   1532  N3         1.7180   -7.4480   23.8360 N.2    76  DA76       -0.2040
   1533  C4         2.1040   -6.3700   24.5400 C.3    76  DA76        0.2331
   1534  P          3.4340   -8.7870   29.4910 P.3    77  DT77        0.4833
   1535  OP1        4.5710   -8.9040   30.4390 O.2    77  DT77       -0.2269
   1536  OP2        3.5240   -7.8410   28.3470 O.3    77  DT77       -0.2491
   1537  O5'        3.1230  -10.2340   28.9020 O.3    77  DT77       -0.2704
   1538  C5'        1.9060  -10.5000   28.2150 C.3    77  DT77        0.1856
   1539  C4'        2.1790  -10.7400   26.7500 C.3    77  DT77        0.1748
   1540  O4'        2.3120   -9.4810   26.0450 O.3    77  DT77       -0.3327
   1541  C3'        3.4770  -11.4590   26.4290 C.3    77  DT77        0.1558
   1542  O3'        3.3610  -12.8630   26.6190 O.3    77  DT77       -0.3138
   1543  C2'        3.6920  -11.0970   24.9630 C.3    77  DT77        0.0866
   1544  C1'        3.1380   -9.6690   24.9090 C.3    77  DT77        0.2106
   1545  N1         3.9370   -8.5240   24.8550 N.ar   77  DT77       -0.2559
   1546  C2         4.6980   -8.3150   23.7200 C.ar   77  DT77        0.3545
   1547  O2         4.6000   -9.0020   22.7190 O.2    77  DT77       -0.2443
   1548  N3         5.5830   -7.2670   23.7990 N.ar   77  DT77       -0.1533
   1549  C4         5.7800   -6.4270   24.8750 C.ar   77  DT77        0.2804
   1550  O4         6.6130   -5.5270   24.7960 O.2    77  DT77       -0.2654
   1551  C5         4.9540   -6.7090   26.0150 C.ar   77  DT77        0.0534
   1552  C6         4.0840   -7.7220   25.9650 C.ar   77  DT77        0.0824
   1553  C7         5.0940   -5.8500   27.2370 C.3    77  DT77        0.0377
   1554  P          4.7370  -13.6760   26.8650 P.3    78  DT78        0.2141
   1555  OP1        4.5280  -15.0470   27.3890 O.3    78  DT78       -0.4373
   1556  OP2        6.0390  -13.0020   27.0790 O.2    78  DT78       -0.5172
   1557  O5'        4.5110  -13.6390   25.2760 O.3    78  DT78       -0.3114
   1558  C5'        5.4440  -14.1050   24.3130 C.3    78  DT78        0.1811
   1559  C4'        5.2610  -13.3950   22.9930 C.3    78  DT78        0.1746
   1560  O4'        5.0730  -11.9810   23.2480 O.3    78  DT78       -0.3327
   1561  C3'        6.4430  -13.4440   22.0350 C.3    78  DT78        0.1558
   1562  O3'        6.4960  -14.6180   21.2470 O.3    78  DT78       -0.3138
   1563  C2'        6.2720  -12.1740   21.2130 C.3    78  DT78        0.0866
   1564  C1'        5.7400  -11.2130   22.2720 C.3    78  DT78        0.2106
   1565  N1         6.9640  -10.4720   23.0160 N.ar   78  DT78       -0.2559
   1566  C2         7.5920   -9.4600   22.3150 C.ar   78  DT78        0.3545
   1567  O2         7.4410   -9.2870   21.1190 O.2    78  DT78       -0.2443
   1568  N3         8.4100   -8.6530   23.0690 N.ar   78  DT78       -0.1533
   1569  C4         8.6560   -8.7550   24.4220 C.ar   78  DT78        0.2804
   1570  O4         9.4160   -7.9530   24.9600 O.2    78  DT78       -0.2654
   1571  C5         7.9680   -9.8310   25.0780 C.ar   78  DT78        0.0534
   1572  C6         7.1670  -10.6300   24.3690 C.ar   78  DT78        0.0824
   1573  C7         8.1710  -10.0250   26.5510 C.3    78  DT78        0.0377
   1574  P          7.6610  -14.9510   20.8930 P.3    79  DA79        0.2141
   1575  OP1        7.2630  -16.3580   20.6260 O.2    79  DA79       -0.5172
   1576  OP2        8.8460  -14.6680   21.7590 O.3    79  DA79       -0.4373
   1577  O5'        7.8980  -14.2060   19.5100 O.3    79  DA79       -0.3114
   1578  C5'        8.2800  -12.8370   19.5240 C.3    79  DA79        0.1811
   1579  C4'        7.9430  -12.1650   18.2270 C.3    79  DA79        0.1746
   1580  O4'        7.8480  -10.7680   18.5570 O.3    79  DA79       -0.3327
   1581  C3'        9.0330  -12.3050   17.1740 C.3    79  DA79        0.1558
   1582  O3'        8.6360  -13.2640   16.1820 O.3    79  DA79       -0.3138
   1583  C2'        9.1840  -10.8870   16.6180 C.3    79  DA79        0.0865
   1584  C1'        8.7890  -10.0310   17.8220 C.3    79  DA79        0.2093
   1585  N9        10.0360   -9.5870   18.5890 N.ar   79  DA79       -0.2721
   1586  C8        10.7520  -10.2800   19.5300 C.ar   79  DA79        0.1816
   1587  N7        11.9280   -9.7580   19.7900 N.ar   79  DA79       -0.2148
   1588  C5        11.9880   -8.6480   18.9620 C.ar   79  DA79        0.2061
   1589  C6        12.9780   -7.6690   18.7630 C.2    79  DA79        0.4328
   1590  N6        14.1440   -7.6530   19.4130 N.pl3  79  DA79        0.2178
   1591  N1        12.7240   -6.6950   17.8630 N.2    79  DA79       -0.0292
   1592  C2        11.5550   -6.7110   17.2130 C.3    79  DA79        0.3958
   1593  N3        10.5480   -7.5760   17.3140 N.pl3  79  DA79       -0.0955
   1594  C4        10.8310   -8.5300   18.2160 C.ar   79  DA79        0.1809
   1595  P          9.7280  -14.3770   15.4870 P.3    80  DG80        0.2141
   1596  OP1        9.2630  -15.3500   14.4690 O.2    80  DG80       -0.5172
   1597  OP2       10.3170  -14.8900   16.7420 O.3    80  DG80       -0.4373
   1598  O5'       10.7840  -13.3690   14.8410 O.3    80  DG80       -0.3114
   1599  C5'       10.8200  -13.2130   13.4400 C.3    80  DG80        0.1811
   1600  C4'       10.7770  -11.7480   13.0590 C.3    80  DG80        0.1746
   1601  O4'       10.7600  -10.8720   14.2160 O.3    80  DG80       -0.3327
   1602  C3'       12.0220  -11.2520   12.3500 C.3    80  DG80        0.1558
   1603  O3'       12.1620  -11.8080   11.0350 O.3    80  DG80       -0.3138
   1604  C2'       11.7440   -9.7520   12.3770 C.3    80  DG80        0.0865
   1605  C1'       11.2330   -9.5940   13.8100 C.3    80  DG80        0.2094
   1606  N9        12.2480   -9.2080   14.6230 N.ar   80  DG80       -0.2713
   1607  C8        12.5460   -9.9010   15.7720 C.ar   80  DG80        0.1816
   1608  N7        13.5260   -9.3730   16.4520 N.ar   80  DG80       -0.2173
   1609  C5        13.8990   -8.2650   15.7140 C.ar   80  DG80        0.1748
   1610  C6        14.9100   -7.2970   15.9480 C.ar   80  DG80        0.3023
   1611  O6        15.7030   -7.2310   16.8950 O.2    80  DG80       -0.2633
   1612  N1        14.9510   -6.3350   14.9430 N.ar   80  DG80       -0.1709
   1613  C2        14.1210   -6.3080   13.8470 C.ar   80  DG80        0.2606
   1614  N2        14.3120   -5.3000   12.9860 N.pl3  80  DG80       -0.0859
   1615  N3        13.1790   -7.2000   13.6170 N.ar   80  DG80       -0.1918
   1616  C4        13.1200   -8.1450   14.5790 C.ar   80  DG80        0.1722
   1617  P         13.3960  -12.3660   10.6950 P.3    81  DA81        0.2141
   1618  OP1       13.1450  -12.8650    9.3180 O.2    81  DA81       -0.5172
   1619  OP2       14.5170  -12.9360   11.4910 O.3    81  DA81       -0.4373
   1620  O5'       13.6110  -10.7920   10.6160 O.3    81  DA81       -0.3114
   1621  C5'       12.7230   -9.9710    9.8680 C.3    81  DA81        0.1811
   1622  C4'       13.3350   -8.6120    9.6720 C.3    81  DA81        0.1746
   1623  O4'       13.3090   -7.8670   10.9230 O.3    81  DA81       -0.3327
   1624  C3'       14.8060   -8.6680    9.3180 C.3    81  DA81        0.1558
   1625  O3'       15.0100   -8.9510    7.9420 O.3    81  DA81       -0.3138
   1626  C2'       15.2780   -7.2870    9.7450 C.3    81  DA81        0.0865
   1627  C1'       14.5090   -7.1160   11.0580 C.3    81  DA81        0.2094
   1628  N9        15.3400   -7.5410   12.2530 N.ar   81  DA81       -0.2714
   1629  C8        15.3270   -8.6990   12.9840 C.ar   81  DA81        0.1815
   1630  N7        16.1980   -8.7150   13.9660 N.ar   81  DA81       -0.2193
   1631  C5        16.8260   -7.4830   13.8710 C.ar   81  DA81        0.1518
   1632  C6        17.8500   -6.8830   14.6260 C.ar   81  DA81        0.1919
   1633  N6        18.4420   -7.4720   15.6680 N.pl3  81  DA81       -0.1054
   1634  N1        18.2470   -5.6440   14.2680 N.ar   81  DA81       -0.2040
   1635  C2        17.6530   -5.0550   13.2240 C.ar   81  DA81        0.2016
   1636  N3        16.6810   -5.5160   12.4400 N.ar   81  DA81       -0.2048
   1637  C4        16.3090   -6.7500   12.8210 C.ar   81  DA81        0.1691
   1638  P         16.4340   -9.7970    7.4190 P.3    82  DT82        0.2141
   1639  OP1       16.4420  -10.0890    5.9630 O.2    82  DT82       -0.5172
   1640  OP2       16.6590  -10.8930    8.3920 O.3    82  DT82       -0.4373
   1641  O5'       17.5210   -8.6790    7.7290 O.3    82  DT82       -0.3114
   1642  C5'       17.4670   -7.4010    7.0790 C.3    82  DT82        0.1811
   1643  C4'       18.6460   -6.5640    7.4960 C.3    82  DT82        0.1746
   1644  O4'       18.4540   -6.0580    8.8410 O.3    82  DT82       -0.3327
   1645  C3'       19.9590   -7.3230    7.5580 C.3    82  DT82        0.1558
   1646  O3'       20.5560   -7.4250    6.2730 O.3    82  DT82       -0.3138
   1647  C2'       20.7760   -6.4920    8.5390 C.3    82  DT82        0.0866
   1648  C1'       19.6990   -6.0160    9.5150 C.3    82  DT82        0.2106
   1649  N1        19.6360   -6.8630   10.7080 N.ar   82  DT82       -0.2559
   1650  C2        20.5200   -6.5640   11.7270 C.ar   82  DT82        0.3545
   1651  O2        21.2720   -5.6060   11.6950 O.2    82  DT82       -0.2443
   1652  N3        20.4950   -7.4330   12.7910 N.ar   82  DT82       -0.1533
   1653  C4        19.6920   -8.5450   12.9350 C.ar   82  DT82        0.2804
   1654  O4        19.7830   -9.2300   13.9510 O.2    82  DT82       -0.2654
   1655  C5        18.8020   -8.7890   11.8350 C.ar   82  DT82        0.0534
   1656  C6        18.8060   -7.9600   10.7880 C.ar   82  DT82        0.0824
   1657  C7        17.8880   -9.9770   11.8970 C.3    82  DT82        0.0377
   1658  P         21.8690   -8.6930    5.8740 P.3    83  DA83        0.2141
   1659  OP1       22.5820   -8.1160    4.7100 O.2    83  DA83       -0.5172
   1660  OP2       20.8380   -9.7270    5.6800 O.3    83  DA83       -0.4373
   1661  O5'       22.9430   -9.2400    6.9190 O.3    83  DA83       -0.3114
   1662  C5'       24.1060   -8.4800    7.1990 C.3    83  DA83        0.1811
   1663  C4'       25.1450   -9.3480    7.8760 C.3    83  DA83        0.1746
   1664  O4'       24.7100   -9.6960    9.2150 O.3    83  DA83       -0.3327
   1665  C3'       25.4080  -10.6800    7.1880 C.3    83  DA83        0.1558
   1666  O3'       26.4260  -10.5060    6.2490 O.3    83  DA83       -0.3138
   1667  C2'       25.9220  -11.5330    8.3340 C.3    83  DA83        0.0865
   1668  C1'       25.0220  -11.0600    9.4710 C.3    83  DA83        0.2094
   1669  N9        23.7740  -11.8620    9.7800 N.ar   83  DA83       -0.2714
   1670  C8        22.5350  -11.2870    9.8920 C.ar   83  DA83        0.1815
   1671  N7        21.5970  -12.1220   10.2740 N.ar   83  DA83       -0.2193
   1672  C5        22.2660  -13.3270   10.4220 C.ar   83  DA83        0.1518
   1673  C6        21.8340  -14.6070   10.8090 C.ar   83  DA83        0.1919
   1674  N6        20.5710  -14.8950   11.1300 N.pl3  83  DA83       -0.1054
   1675  N1        22.7560  -15.5930   10.8540 N.ar   83  DA83       -0.2040
   1676  C2        24.0220  -15.3030   10.5330 C.ar   83  DA83        0.2016
   1677  N3        24.5490  -14.1400   10.1570 N.ar   83  DA83       -0.2048
   1678  C4        23.6070  -13.1820   10.1210 C.ar   83  DA83        0.1691
   1679  P         26.4180  -11.3280    4.8690 P.3    84  DG84        0.2141
   1680  OP1       27.6060  -11.5930    4.0290 O.2    84  DG84       -0.5172
   1681  OP2       25.1640  -10.8310    4.2330 O.3    84  DG84       -0.4373
   1682  O5'       26.1290  -12.6580    5.7020 O.3    84  DG84       -0.3114
   1683  C5'       27.1960  -13.3950    6.3250 C.3    84  DG84        0.1811
   1684  C4'       26.8040  -14.8490    6.4900 C.3    84  DG84        0.1746
   1685  O4'       25.8140  -14.9670    7.5400 O.3    84  DG84       -0.3327
   1686  C3'       26.1320  -15.4470    5.2710 C.3    84  DG84        0.1558
   1687  O3'       27.0540  -15.9310    4.3130 O.3    84  DG84       -0.3138
   1688  C2'       25.2610  -16.5380    5.8650 C.3    84  DG84        0.0865
   1689  C1'       24.7980  -15.8770    7.1560 C.3    84  DG84        0.2094
   1690  N9        23.5100  -15.0570    6.9070 N.ar   84  DG84       -0.2713
   1691  C8        23.3820  -13.6930    7.0110 C.ar   84  DG84        0.1816
   1692  N7        22.1530  -13.2780    6.8720 N.ar   84  DG84       -0.2173
   1693  C5        21.4220  -14.4330    6.6660 C.ar   84  DG84        0.1748
   1694  C6        20.0320  -14.6200    6.4490 C.ar   84  DG84        0.3023
   1695  O6        19.1430  -13.7620    6.3970 O.2    84  DG84       -0.2633
   1696  N1        19.7080  -15.9640    6.2840 N.ar   84  DG84       -0.1709
   1697  C2        20.6110  -16.9990    6.3220 C.ar   84  DG84        0.2606
   1698  N2        20.1080  -18.2290    6.1420 N.pl3  84  DG84       -0.0859
   1699  N3        21.9040  -16.8410    6.5220 N.ar   84  DG84       -0.1918
   1700  C4        22.2430  -15.5440    6.6840 C.ar   84  DG84        0.1722
   1701  P         26.6260  -15.9220    2.6270 P.3    85  DT85        0.2141
   1702  OP1       27.3920  -16.7970    1.7040 O.2    85  DT85       -0.5172
   1703  OP2       26.4030  -14.4990    2.2700 O.3    85  DT85       -0.4373
   1704  O5'       25.2200  -16.6060    2.9100 O.3    85  DT85       -0.3114
   1705  C5'       25.1380  -17.9860    3.3030 C.3    85  DT85        0.1812
   1706  C4'       23.7540  -18.5190    3.0340 C.3    85  DT85        0.1772
   1707  O4'       22.8030  -17.8260    3.8820 O.3    85  DT85       -0.3308
   1708  C3'       23.2470  -18.2810    1.6200 C.3    85  DT85        0.1833
   1709  O3'       23.6850  -19.3080    0.7440 O.3    85  DT85       -0.3113
   1710  C2'       21.7410  -18.3010    1.8120 C.3    85  DT85        0.2052
   1711  C1'       21.6080  -17.5850    3.1580 C.3    85  DT85        0.2393
   1712  N1        21.4840  -16.0600    2.9450 N.ar   85  DT85       -0.2538
   1713  C2        20.1970  -15.5690    2.8370 C.ar   85  DT85        0.3546
   1714  O2        19.2070  -16.2700    2.9470 O.2    85  DT85       -0.2443
   1715  N3        20.1090  -14.2190    2.5930 N.ar   85  DT85       -0.1533
   1716  C4        21.1550  -13.3320    2.4490 C.ar   85  DT85        0.2804
   1717  O4        20.9170  -12.1460    2.2330 O.2    85  DT85       -0.2654
   1718  C5        22.4600  -13.9190    2.5730 C.ar   85  DT85        0.0534
   1719  C6        22.5740  -15.2280    2.8110 C.ar   85  DT85        0.0825
   1720  C7        23.6640  -13.0360    2.4310 C.3    85  DT85        0.0377
   1721  P         23.8060  -19.0520   -0.8280 P.3    86  DA86        0.2141
   1722  OP1       24.6540  -20.2610   -0.9780 O.3    86  DA86       -0.4373
   1723  OP2       24.0250  -17.8720   -1.6960 O.2    86  DA86       -0.5172
   1724  O5'       22.2540  -19.3960   -1.0340 O.3    86  DA86       -0.3114
   1725  C5'       21.7700  -20.1740   -2.1210 C.3    86  DA86        0.1811
   1726  C4'       20.5480  -20.9610   -1.7110 C.3    86  DA86        0.1748
   1727  O4'       20.8990  -22.3480   -1.4930 O.3    86  DA86       -0.3327
   1728  C3'       19.8900  -20.5230   -0.4080 C.3    86  DA86        0.1601
   1729  O3'       18.9770  -19.4600   -0.6060 O.3    86  DA86       -0.2729
   1730  C2'       19.2080  -21.7910    0.0890 C.3    86  DA86        0.0867
   1731  C1'       20.1180  -22.8930   -0.4540 C.3    86  DA86        0.2094
   1732  N9        21.1010  -23.5220    0.4770 N.ar   86  DA86       -0.2714
   1733  C8        22.4310  -23.2720    0.6950 C.ar   86  DA86        0.1815
   1734  N7        22.9540  -23.9930    1.6580 N.ar   86  DA86       -0.2193
   1735  C5        21.8950  -24.7690    2.1040 C.ar   86  DA86        0.1518
   1736  C6        21.7960  -25.7440    3.1120 C.ar   86  DA86        0.1919
   1737  N6        22.8200  -26.1170    3.8830 N.pl3  86  DA86       -0.1054
   1738  N1        20.5940  -26.3280    3.3020 N.ar   86  DA86       -0.2040
   1739  C2        19.5680  -25.9540    2.5280 C.ar   86  DA86        0.2016
   1740  N3        19.5390  -25.0520    1.5500 N.ar   86  DA86       -0.2048
   1741  C4        20.7480  -24.4890    1.3870 C.ar   86  DA86        0.1691
   1742  P         18.9820  -18.2540    0.3940 P.3    87  DA87        0.4798
   1743  OP1       18.0660  -17.2100   -0.1360 O.2    87  DA87       -0.2271
   1744  OP2       20.3040  -17.8620    0.9490 O.3    87  DA87       -0.2684
   1745  O5'       18.1940  -19.0900    1.4980 O.3    87  DA87       -0.2705
   1746  C5'       16.8480  -19.5080    1.2690 C.3    87  DA87        0.1856
   1747  C4'       16.4730  -20.6430    2.2010 C.3    87  DA87        0.1748
   1748  O4'       17.3710  -21.7720    1.9890 O.3    87  DA87       -0.3327
   1749  C3'       16.6100  -20.3920    3.6970 C.3    87  DA87        0.1558
   1750  O3'       15.5430  -19.6470    4.2650 O.3    87  DA87       -0.3138
   1751  C2'       16.6220  -21.8130    4.2320 C.3    87  DA87        0.0865
   1752  C1'       17.5350  -22.4870    3.2120 C.3    87  DA87        0.2094
   1753  N9        18.9380  -22.3850    3.6280 N.ar   87  DA87       -0.2714
   1754  C8        19.9100  -21.5510    3.1380 C.ar   87  DA87        0.1815
   1755  N7        21.0910  -21.7420    3.6770 N.ar   87  DA87       -0.2193
   1756  C5        20.8810  -22.7700    4.5820 C.ar   87  DA87        0.1518
   1757  C6        21.7410  -23.4370    5.4720 C.ar   87  DA87        0.1919
   1758  N6        23.0390  -23.1540    5.5980 N.pl3  87  DA87       -0.1054
   1759  N1        21.2130  -24.4170    6.2370 N.ar   87  DA87       -0.2040
   1760  C2        19.9120  -24.7000    6.1100 C.ar   87  DA87        0.2016
   1761  N3        19.0040  -24.1450    5.3100 N.ar   87  DA87       -0.2048
   1762  C4        19.5600  -23.1750    4.5640 C.ar   87  DA87        0.1691
   1763  P         15.7910  -18.8950    5.4530 P.3    88  DG88        0.2141
   1764  OP1       14.3440  -18.5270    5.5330 O.3    88  DG88       -0.4373
   1765  OP2       16.7430  -17.8740    4.9420 O.2    88  DG88       -0.5172
   1766  O5'       16.3190  -19.4330    6.8840 O.3    88  DG88       -0.3114
   1767  C5'       15.4190  -20.1340    7.7270 C.3    88  DG88        0.1811
   1768  C4'       16.0960  -21.0600    8.7130 C.3    88  DG88        0.1746
   1769  O4'       17.3090  -21.6440    8.1950 O.3    88  DG88       -0.3327
   1770  C3'       16.5730  -20.3280    9.9340 C.3    88  DG88        0.1558
   1771  O3'       15.5450  -20.1530   10.8120 O.3    88  DG88       -0.3138
   1772  C2'       17.6370  -21.2260   10.5470 C.3    88  DG88        0.0865
   1773  C1'       18.2020  -21.8620    9.2820 C.3    88  DG88        0.2094
   1774  N9        19.4930  -21.2830    8.8350 N.ar   88  DG88       -0.2713
   1775  C8        19.6860  -20.5050    7.7200 C.ar   88  DG88        0.1816
   1776  N7        20.9280  -20.1400    7.5550 N.ar   88  DG88       -0.2173
   1777  C5        21.5980  -20.7100    8.6220 C.ar   88  DG88        0.1748
   1778  C6        22.9690  -20.6650    8.9820 C.ar   88  DG88        0.3023
   1779  O6        23.8950  -20.0860    8.4000 O.2    88  DG88       -0.2633
   1780  N1        23.2260  -21.3840   10.1460 N.ar   88  DG88       -0.1709
   1781  C2        22.2780  -22.0630   10.8730 C.ar   88  DG88        0.2606
   1782  N2        22.7170  -22.7000   11.9670 N.pl3  88  DG88       -0.0859
   1783  N3        21.0010  -22.1140   10.5520 N.ar   88  DG88       -0.1918
   1784  C4        20.7280  -21.4220    9.4250 C.ar   88  DG88        0.1722
   1785  P         15.8810  -18.9860   11.6310 P.3    89  DT89        0.2141
   1786  OP1       14.7430  -18.6600   12.5200 O.3    89  DT89       -0.4373
   1787  OP2       16.5220  -17.9020   10.8530 O.2    89  DT89       -0.5172
   1788  O5'       17.0230  -19.7230   12.4790 O.3    89  DT89       -0.3114
   1789  C5'       16.6760  -20.6830   13.4720 C.3    89  DT89        0.1811
   1790  C4'       17.8890  -21.1250   14.2740 C.3    89  DT89        0.1746
   1791  O4'       18.9780  -21.4610   13.3760 O.3    89  DT89       -0.3327
   1792  C3'       18.4920  -20.0730   15.1920 C.3    89  DT89        0.1558
   1793  O3'       17.7740  -19.9780   16.4140 O.3    89  DT89       -0.3138
   1794  C2'       19.8900  -20.6410   15.3930 C.3    89  DT89        0.0866
   1795  C1'       20.2120  -21.1160   13.9760 C.3    89  DT89        0.2106
   1796  N1        20.9100  -20.1520   13.1650 N.ar   89  DT89       -0.2559
   1797  C2        22.2810  -20.0440   13.2920 C.ar   89  DT89        0.3545
   1798  O2        22.9260  -20.6840   14.1030 O.2    89  DT89       -0.2443
   1799  N3        22.8770  -19.1540   12.4300 N.ar   89  DT89       -0.1533
   1800  C4        22.2510  -18.3780   11.4760 C.ar   89  DT89        0.2804
   1801  O4        22.9220  -17.6250   10.7750 O.2    89  DT89       -0.2654
   1802  C5        20.8270  -18.5460   11.4070 C.ar   89  DT89        0.0534
   1803  C6        20.2230  -19.4050   12.2320 C.ar   89  DT89        0.0824
   1804  C7        20.0550  -17.7450   10.4010 C.3    89  DT89        0.0377
   1805  P         17.7020  -18.9180   16.7590 P.3    90  DG90        0.2141
   1806  OP1       16.7390  -19.2390   17.8410 O.3    90  DG90       -0.4373
   1807  OP2       17.4110  -17.7980   15.8240 O.2    90  DG90       -0.5172
   1808  O5'       19.1470  -18.6680   17.3880 O.3    90  DG90       -0.3114
   1809  C5'       19.7000  -19.5880   18.3460 C.3    90  DG90        0.1811
   1810  C4'       21.1640  -19.2880   18.5850 C.3    90  DG90        0.1746
   1811  O4'       21.9120  -19.4930   17.3610 O.3    90  DG90       -0.3327
   1812  C3'       21.5220  -17.8590   18.9640 C.3    90  DG90        0.1558
   1813  O3'       21.2720  -17.5760   20.3330 O.3    90  DG90       -0.3138
   1814  C2'       23.0060  -17.8220   18.6420 C.3    90  DG90        0.0865
   1815  C1'       23.0300  -18.6170   17.3380 C.3    90  DG90        0.2094
   1816  N9        22.9210  -17.7200   16.2180 N.ar   90  DG90       -0.2713
   1817  C8        21.7780  -17.4740   15.4970 C.ar   90  DG90        0.1816
   1818  N7        21.9520  -16.6090   14.5350 N.ar   90  DG90       -0.2173
   1819  C5        23.2880  -16.2630   14.6220 C.ar   90  DG90        0.1748
   1820  C6        24.0610  -15.3630   13.8450 C.ar   90  DG90        0.3023
   1821  O6        23.6950  -14.6690   12.8870 O.2    90  DG90       -0.2633
   1822  N1        25.3840  -15.3080   14.2740 N.ar   90  DG90       -0.1709
   1823  C2        25.8990  -16.0310   15.3230 C.ar   90  DG90        0.2606
   1824  N2        27.1990  -15.8450   15.5870 N.pl3  90  DG90       -0.0859
   1825  N3        25.1930  -16.8700   16.0550 N.ar   90  DG90       -0.1918
   1826  C4        23.9050  -16.9400   15.6570 C.ar   90  DG90        0.1722
   1827  P         20.7710  -16.1380   20.7610 P.3    91  DC91        0.2141
   1828  OP1       20.3870  -16.0840   22.1990 O.3    91  DC91       -0.4373
   1829  OP2       19.9370  -15.4400   19.7430 O.2    91  DC91       -0.5172
   1830  O5'       22.2590  -15.6260   20.5380 O.3    91  DC91       -0.3114
   1831  C5'       23.3110  -16.0450   21.3920 C.3    91  DC91        0.1811
   1832  C4'       24.5060  -15.1450   21.2050 C.3    91  DC91        0.1746
   1833  O4'       25.0910  -15.4090   19.9060 O.3    91  DC91       -0.3327
   1834  C3'       24.2070  -13.6560   21.2040 C.3    91  DC91        0.1558
   1835  O3'       24.1460  -13.0970   22.5160 O.3    91  DC91       -0.3138
   1836  C2'       25.3510  -13.0900   20.3720 C.3    91  DC91        0.0866
   1837  C1'       25.5850  -14.2070   19.3550 C.3    91  DC91        0.2106
   1838  N1        24.8700  -13.9120   18.0930 N.ar   91  DC91       -0.2556
   1839  C2        25.5400  -13.1320   17.1440 C.ar   91  DC91        0.3531
   1840  O2        26.7220  -12.8150   17.3580 O.2    91  DC91       -0.2443
   1841  N3        24.8820  -12.7450   16.0250 N.ar   91  DC91       -0.1739
   1842  C4        23.6120  -13.1080   15.8380 C.ar   91  DC91        0.1759
   1843  N4        23.0050  -12.7030   14.7200 N.pl3  91  DC91       -0.1070
   1844  C5        22.9160  -13.8980   16.7880 C.ar   91  DC91        0.0566
   1845  C6        23.5690  -14.2780   17.8910 C.ar   91  DC91        0.0849
   1846  P         23.4770  -11.5580   22.7400 P.3    92  DA92        0.2141
   1847  OP1       23.3810  -11.4390   24.2120 O.3    92  DA92       -0.4373
   1848  OP2       22.2590  -11.6400   21.9020 O.2    92  DA92       -0.5172
   1849  O5'       24.2620  -10.2880   22.1560 O.3    92  DA92       -0.3114
   1850  C5'       25.3670   -9.7460   22.8630 C.3    92  DA92        0.1811
   1851  C4'       26.2890   -8.9540   21.9680 C.3    92  DA92        0.1746
   1852  O4'       26.3940   -9.5940   20.6720 O.3    92  DA92       -0.3327
   1853  C3'       25.8740   -7.5310   21.6370 C.3    92  DA92        0.1558
   1854  O3'       26.1900   -6.6240   22.6770 O.3    92  DA92       -0.3138
   1855  C2'       26.6680   -7.2670   20.3680 C.3    92  DA92        0.0865
   1856  C1'       26.6160   -8.6250   19.6800 C.3    92  DA92        0.2094
   1857  N9        25.4820   -8.8000   18.6540 N.ar   92  DA92       -0.2714
   1858  C8        24.3820   -9.6150   18.7220 C.ar   92  DA92        0.1815
   1859  N7        23.6740   -9.6420   17.6180 N.ar   92  DA92       -0.2193
   1860  C5        24.3540   -8.7860   16.7670 C.ar   92  DA92        0.1518
   1861  C6        24.1140   -8.3830   15.4410 C.ar   92  DA92        0.1919
   1862  N6        23.0790   -8.8100   14.7150 N.pl3  92  DA92       -0.1054
   1863  N1        24.9860   -7.5160   14.8830 N.ar   92  DA92       -0.2040
   1864  C2        26.0240   -7.0900   15.6120 C.ar   92  DA92        0.2016
   1865  N3        26.3540   -7.3970   16.8640 N.ar   92  DA92       -0.2048
   1866  C4        25.4690   -8.2590   17.3910 C.ar   92  DA92        0.1691
   1867  P         25.4580   -5.2040   22.9920 P.3    93  DA93        0.2141
   1868  OP1       25.8820   -4.2320   24.0300 O.3    93  DA93       -0.4373
   1869  OP2       24.1960   -5.9790   23.1370 O.2    93  DA93       -0.5172
   1870  O5'       25.4640   -4.4720   21.5700 O.3    93  DA93       -0.3114
   1871  C5'       26.7150   -3.9990   21.0750 C.3    93  DA93        0.1811
   1872  C4'       26.7180   -3.8760   19.5650 C.3    93  DA93        0.1746
   1873  O4'       26.3850   -5.1320   18.9290 O.3    93  DA93       -0.3327
   1874  C3'       25.6550   -2.9590   19.0030 C.3    93  DA93        0.1558
   1875  O3'       25.9600   -1.6210   19.2700 O.3    93  DA93       -0.3138
   1876  C2'       25.7840   -3.3200   17.5340 C.3    93  DA93        0.0865
   1877  C1'       25.8490   -4.8420   17.6490 C.3    93  DA93        0.2094
   1878  N9        24.6200   -5.4770   17.5250 N.ar   93  DA93       -0.2714
   1879  C8        24.0640   -6.1340   18.5910 C.ar   93  DA93        0.1815
   1880  N7        22.9470   -6.7590   18.3040 N.ar   93  DA93       -0.2193
   1881  C5        22.7560   -6.4940   16.9570 C.ar   93  DA93        0.1518
   1882  C6        21.7500   -6.8740   16.0510 C.ar   93  DA93        0.1919
   1883  N6        20.7040   -7.6330   16.3850 N.pl3  93  DA93       -0.1054
   1884  N1        21.8570   -6.4400   14.7770 N.ar   93  DA93       -0.2040
   1885  C2        22.9060   -5.6790   14.4440 C.ar   93  DA93        0.2016
   1886  N3        23.9140   -5.2580   15.2040 N.ar   93  DA93       -0.2048
   1887  C4        23.7780   -5.7050   16.4640 C.ar   93  DA93        0.1691
   1888  P         24.6850   -0.7100   19.5870 P.3    94  DT94        0.2141
   1889  OP1       25.1360    0.5620   20.1490 O.2    94  DT94       -0.5172
   1890  OP2       23.8620   -1.5240   20.4910 O.3    94  DT94       -0.4373
   1891  O5'       23.9310   -0.4070   18.2000 O.3    94  DT94       -0.3114
   1892  C5'       24.4530    0.5030   17.2030 C.3    94  DT94        0.1811
   1893  C4'       23.6400    0.5400   15.9160 C.3    94  DT94        0.1746
   1894  O4'       23.6740   -0.7730   15.2990 O.3    94  DT94       -0.3327
   1895  C3'       22.1440    0.7830   16.0600 C.3    94  DT94        0.1558
   1896  O3'       21.8490    2.1360   16.1190 O.3    94  DT94       -0.3138
   1897  C2'       21.5650    0.1180   14.8120 C.3    94  DT94        0.0866
   1898  C1'       22.4010   -1.1380   14.7910 C.3    94  DT94        0.2106
   1899  N1        21.6780   -2.1720   15.7000 N.ar   94  DT94       -0.2559
   1900  C2        20.6570   -2.9140   15.1370 C.ar   94  DT94        0.3545
   1901  O2        20.2310   -2.7120   14.0140 O.2    94  DT94       -0.2443
   1902  N3        20.1490   -3.9060   15.9410 N.ar   94  DT94       -0.1533
   1903  C4        20.5500   -4.2230   17.2220 C.ar   94  DT94        0.2804
   1904  O4        19.9970   -5.1440   17.8180 O.2    94  DT94       -0.2654
   1905  C5        21.6130   -3.4070   17.7360 C.ar   94  DT94        0.0534
   1906  C6        22.1260   -2.4360   16.9760 C.ar   94  DT94        0.0824
   1907  C7        22.1190   -3.6730   19.1230 C.3    94  DT94        0.0377
   1908  P         20.6710    2.4360   16.9340 P.3    95  DC95        0.2141
   1909  OP1       20.6670    3.8500   17.3710 O.2    95  DC95       -0.5172
   1910  OP2       20.4740    1.3410   17.9120 O.3    95  DC95       -0.4373
   1911  O5'       19.5330    2.1930   15.8430 O.3    95  DC95       -0.3115
   1912  C5'       19.8890    2.4420   14.4940 C.3    95  DC95        0.1785
   1913  C4'       19.0830    1.6030   13.5370 C.3    95  DC95        0.1473
   1914  O4'       19.4340    0.1990   13.6510 O.3    95  DC95       -0.3353
   1915  C3'       17.5770    1.6100   13.7390 C.3    95  DC95        0.0368
   1916  O3'       16.9570    2.7980   13.2710 O.3    95  DC95       -0.1145
   1917  C2'       17.1730    0.3670   12.9600 C.3    95  DC95        0.0566
   1918  C1'       18.3090   -0.5890   13.3160 C.3    95  DC95        0.2081
   1919  N1        17.8940   -1.4600   14.3990 N.ar   95  DC95       -0.2557
   1920  C2        17.0750   -2.5700   14.1630 C.ar   95  DC95        0.3531
   1921  O2        16.6050   -2.7340   13.0240 O.2    95  DC95       -0.2443
   1922  N3        16.8200   -3.4290   15.1780 N.ar   95  DC95       -0.1739
   1923  C4        17.3460   -3.2120   16.3840 C.ar   95  DC95        0.1759
   1924  N4        17.0660   -4.0860   17.3540 N.pl3  95  DC95       -0.1070
   1925  C5        18.1780   -2.0930   16.6440 C.ar   95  DC95        0.0566
   1926  C6        18.4280   -1.2470   15.6380 C.ar   95  DC95        0.0849
   1927  P         15.7680    3.4010   13.7240 P.3    96  DT96        0.5327
   1928  OP1       14.6720    4.2350   14.2860 O.2    96  DT96       -0.2224
   1929  OP2       16.7410    2.7470   14.6420 O.3    96  DT96       -0.1145
   1930  O5'       15.1470    2.2680   12.7900 O.3    96  DT96       -0.2675
   1931  C5'       14.1650    1.3820   13.3030 C.3    96  DT96        0.1857
   1932  C4'       13.4180    0.6980   12.1830 C.3    96  DT96        0.1755
   1933  O4'       14.2150   -0.4040   11.6630 O.3    96  DT96       -0.3510
   1934  C3'       12.1390    0.0390   12.6720 C.3    96  DT96        0.1839
   1935  O3'       11.0660    0.9680   12.7090 O.3    96  DT96       -0.2204
   1936  C2'       11.9480   -1.1110   11.6930 C.3    96  DT96        0.0676
   1937  C1'       13.3960   -1.5490   11.4680 C.3    96  DT96        0.1450
   1938  N1        13.8320   -1.6960   14.5660 N.2    96  DT96       -0.1608
   1939  C2        13.4530   -2.8980   15.1340 C.1    96  DT96        0.2395
   1940  O2        12.7210   -3.6950   14.5740 O.2    96  DT96       -0.2041
   1941  N3        13.9620   -3.1350   16.3880 N.am   96  DT96       -0.0881
   1942  C4        14.7930   -2.3090   17.1150 C.2    96  DT96        0.2768
   1943  O4        15.1690   -2.6590   18.2310 O.2    96  DT96       -0.2676
   1944  C5        15.1410   -1.0800   16.4590 C.2    96  DT96        0.0541
   1945  C6        14.6600   -0.8240   15.2390 C.2    96  DT96        0.1126
   1946  C7        16.0410   -0.1130   17.1700 C.3    96  DT96        0.0376
@<TRIPOS>BOND
     1   620   619    2
     2   619   618   ar
     3   619   621   ar
     4   623   621    1
     5   606   604    2
     6   605   604    1
     7   618   616   ar
     8   621   622   ar
     9   604   607    1
    10   604   593    1
    11   616   617    2
    12   616   615   ar
    13   622   615   ar
    14   607   608    1
    15   615   614    1
    16   610   614    1
    17   610   609    1
    18   608   609    1
    19   593   592    1
    20   601   600    1
    21   587   585    2
    22   592   594    1
    23   592   590    1
    24   614   613    1
    25   609   611    1
    26   586   585    1
    27   599   600   ar
    28   599   597   ar
    29   600   602   ar
    30   598   597    2
    31   597   596   ar
    32   589   590    1
    33   589   588    1
    34   602   603   ar
    35   594   595    1
    36   585   588    1
    37   585   574    1
    38   596   603   ar
    39   596   595    1
    40   590   591    1
    41   613   611    1
    42   611   612    1
    43   595   591    1
    44   612   624    1
    45   582   581    1
    46   574   573    1
    47   568   566    2
    48   626   624    2
    49   581   580   ar
    50   581   583   ar
    51   580   578   ar
    52   567   566    1
    53   573   575    1
    54   573   571    1
    55   583   584   ar
    56   624   625    1
    57   624   627    1
    58   575   576    1
    59   566   569    1
    60   566   553    1
    61   578   579    2
    62   578   577   ar
    63   569   570    1
    64   584   577   ar
    65   577   576    1
    66   643   641    1
    67   570   571    1
    68   571   572    1
    69   576   572    1
    70   641   639   ar
    71   641   642   ar
    72   640   639    2
    73   553   552    1
    74   627   628    1
    75   639   638   ar
    76   552   554    1
    77   552   550    1
    78   642   635   ar
    79   444   443    2
    80   554   555    1
    81   630   634    1
    82   630   629    1
    83   628   629    1
    84   638   636   ar
    85   635   634    1
    86   635   636   ar
    87   466   465    2
    88   634   633    1
    89   636   637    2
    90   629   631    1
    91   546   545    2
    92   547   545    1
    93   548   549    1
    94   548   545    1
    95   550   549    1
    96   550   551    1
    97   443   445    1
    98   443   432    1
    99   443   446    1
   100   555   556    1
   101   555   551    1
   102   561   560    1
   103   558   557   ar
   104   558   559   ar
   105   560   559   ar
   106   560   562   ar
   107   557   556   ar
   108   559   565   ar
   109   545   533    1
   110   562   563   ar
   111   556   565   ar
   112   565   564   ar
   113   563   564   ar
   114   465   467    1
   115   465   468    1
   116   465   451    1
   117   432   431    1
   118   486   484    2
   119   544   542    1
   120   446   447    1
   121   633   631    1
   122   485   484    1
   123   631   632    1
   124   447   448    1
   125   541   540    2
   126   507   505    2
   127   468   469    1
   128   524   522    1
   129   521   520    2
   130   527   525    2
   131   451   450    1
   132   506   505    1
   133   484   473    1
   134   484   487    1
   135   425   424    2
   136   469   470    1
   137   542   540   ar
   138   542   543   ar
   139   540   539   ar
   140   660   659    1
   141   533   532    1
   142   428   429    1
   143   428   427    1
   144   431   429    1
   145   431   433    1
   146   473   472    1
   147   632   644    1
   148   505   508    1
   149   505   492    1
   150   448   450    1
   151   448   449    1
   152   429   430    1
   153   520   522   ar
   154   520   519   ar
   155   450   452    1
   156   657   658   ar
   157   657   656   ar
   158   522   523   ar
   159   543   536   ar
   160   528   525    1
   161   528   529    1
   162   532   534    1
   163   532   530    1
   164   659   658   ar
   165   659   661   ar
   166   539   537   ar
   167   525   526    1
   168   525   513    1
   169   487   488    1
   170   472   470    1
   171   472   474    1
   172   658   664   ar
   173   656   655   ar
   174   646   644    2
   175   433   434    1
   176   470   471    1
   177   508   509    1
   178   424   427    1
   179   424   412    1
   180   424   426    1
   181   534   535    1
   182   661   662   ar
   183   519   517   ar
   184   523   516   ar
   185   536   537   ar
   186   536   535    1
   187   449   453    1
   188   644   647    1
   189   644   645    1
   190   492   491    1
   191   537   538    2
   192   430   434    1
   193   529   530    1
   194   412   411    1
   195   664   655   ar
   196   664   663   ar
   197   488   489    1
   198   655   654    1
   199   452   453    1
   200   530   531    1
   201   497   496   ar
   202   497   498   ar
   203   535   531    1
   204   491   489    1
   205   491   493    1
   206   471   475    1
   207   434   435    1
   208   513   512    1
   209   662   663   ar
   210   512   514    1
   211   512   510    1
   212   647   648    1
   213   500   499    1
   214   496   495   ar
   215   455   456   ar
   216   455   454   ar
   217   650   654    1
   218   650   649    1
   219   483   482   ar
   220   483   476   ar
   221   509   510    1
   222   516   517   ar
   223   516   515    1
   224   474   475    1
   225   517   518    2
   226   482   480   ar
   227   453   454    1
   228   654   653    1
   229   489   490    1
   230   456   457   ar
   231   514   515    1
   232   454   464   ar
   233   498   499   ar
   234   498   504   ar
   235   493   494    1
   236   648   649    1
   237   475   476    1
   238   499   501   ar
   239   510   511    1
   240   411   413    1
   241   411   409    1
   242   476   477   ar
   243   681   680    2
   244   495   504   ar
   245   495   494    1
   246   515   511    1
   247   649   651    1
   248   435   442   ar
   249   435   436   ar
   250   413   414    1
   251   480   481    1
   252   480   479   ar
   253   409   408    1
   254   409   410    1
   255   684   682    1
   256   504   503   ar
   257   490   494    1
   258   457   464   ar
   259   457   458   ar
   260   442   441   ar
   261   464   463   ar
   262   408   407    1
   263   437   436    2
   264   680   682   ar
   265   680   679   ar
   266   501   502   ar
   267   477   479   ar
   268   477   478    2
   269   800   799    2
   270   653   651    1
   271   436   438   ar
   272   682   683   ar
   273   679   677   ar
   274   651   652    1
   275   405   404    2
   276   784   783    1
   277   812   811    1
   278   812   816    1
   279   463   461   ar
   280   811   810    1
   281   811   813    1
   282   458   459    2
   283   458   460   ar
   284   407   404    1
   285   503   502   ar
   286   414   410    1
   287   414   415    1
   288   810   809    1
   289   441   439   ar
   290   683   676   ar
   291   796   797    1
   292   796   794    1
   293   797   793    1
   294   797   798    1
   295   816   815    1
   296   816   817    1
   297   677   676   ar
   298   677   678    2
   299   438   439   ar
   300   799   798   ar
   301   799   801   ar
   302   701   700    1
   303   404   406    1
   304   404   391    1
   305   461   460   ar
   306   461   462    1
   307   676   675    1
   308   417   416    2
   309   815   813    1
   310   783   785    1
   311   783   782    2
   312   793   792    1
   313   439   440    1
   314   652   665    1
   315   785   786    2
   316   813   814    1
   317   798   805   ar
   318   814   826    1
   319   415   416   ar
   320   415   422   ar
   321   795   794    1
   322   795   806    1
   323   792   794    1
   324   792   791    1
   325   702   700   ar
   326   702   703   ar
   327   819   818    2
   328   700   699   ar
   329   801   802   ar
   330   809   806    1
   331   416   418   ar
   332   667   665    2
   333   817   818   ar
   334   817   824   ar
   335   675   671    1
   336   675   674    1
   337   671   670    1
   338   391   390    1
   339   807   806    2
   340   775   774    1
   341   775   771    1
   342   775   776    1
   343   782   780    1
   344   818   820   ar
   345   422   421   ar
   346   703   704   ar
   347   806   808    1
   348   774   772    1
   349   699   698   ar
   350   699   705   ar
   351   665   668    1
   352   665   666    1
   353   824   823   ar
   354   786   776    1
   355   786   779    1
   356   830   831    1
   357   830   829    1
   358   771   770    1
   359   791   790    1
   360   805   804   ar
   361   832   831    1
   362   832   836    1
   363   827   826    2
   364   668   669    1
   365   831   833    1
   366   698   697   ar
   367   762   763    1
   368   762   761    1
   369   762   779    1
   370   418   419   ar
   371   802   804   ar
   372   802   803    1
   373   392   390    1
   374   392   393    1
   375   776   777    1
   376   826   829    1
   377   826   828    1
   378   704   705   ar
   379   705   696   ar
   380   763   764    2
   381   390   388    1
   382   770   772    1
   383   770   769    1
   384   674   672    1
   385   421   419   ar
   386   421   423    1
   387   820   821   ar
   388   670   669    1
   389   670   672    1
   390   761   780    1
   391   761   759    1
   392   780   779    1
   393   780   781    1
   394   836   835    1
   395   836   837    1
   396   772   773    1
   397   697   696   ar
   398   823   821   ar
   399   823   825    1
   400   738   737    2
   401   722   721    1
   402   779   778    1
   403   419   420    2
   404   401   402   ar
   405   401   400   ar
   406   790   787    1
   407   402   403   ar
   408   773   787    1
   409   720   721   ar
   410   720   718   ar
   411   696   695    1
   412   719   718    2
   413   821   822    2
   414   833   835    1
   415   833   834    1
   416   672   673    1
   417   834   846    1
   418   721   723   ar
   419   769   768    1
   420   847   846    2
   421   764   755   ar
   422   764   758   ar
   423   739   737   ar
   424   739   740   ar
   425   777   778    2
   426   388   387    1
   427   388   389    1
   428   718   717   ar
   429   737   736   ar
   430   754   753    1
   431   754   755    1
   432   754   750    1
   433   393   394    1
   434   393   389    1
   435   400   398   ar
   436   837   844   ar
   437   837   838   ar
   438   753   751    1
   439   759   758    2
   440   759   760    1
   441   695   691    1
   442   695   694    1
   443   403   394   ar
   444   403   397   ar
   445   787   788    2
   446   787   789    1
   447   839   838    2
   448   755   756   ar
   449   691   690    1
   450   844   843   ar
   451   394   395   ar
   452   758   757   ar
   453   741   740    1
   454   838   840   ar
   455   387   386    1
   456   750   749    1
   457   740   742   ar
   458   846   848    1
   459   846   849    1
   460   687   685    2
   461   723   724   ar
   462   398   397   ar
   463   398   399    1
   464   717   724   ar
   465   717   716    1
   466   736   735    1
   467   736   743   ar
   468   673   685    1
   469   768   752    1
   470   397   396   ar
   471   735   734    1
   472   735   731    1
   473   850   849    1
   474   850   851    1
   475   843   845    1
   476   843   841   ar
   477   749   751    1
   478   749   748    1
   479   751   752    1
   480   386   383    1
   481   694   692    1
   482   840   841   ar
   483   201   200    2
   484   756   757   ar
   485   395   396   ar
   486   716   715    1
   487   716   712    1
   488   734   732    1
   489   222   221    2
   490   685   688    1
   491   685   686    1
   492   742   743   ar
   493   690   689    1
   494   690   692    1
   495   852   851    1
   496   852   856    1
   497   841   842    2
   498   851   853    1
   499   688   689    1
   500   731   730    1
   501   766   765    1
   502   715   713    1
   503   692   693    1
   504   765   767    2
   505   384   383    2
   506   712   711    1
   507   204   205    1
   508   204   203    1
   509   748   747    1
   510   208   221    1
   511   208   207    1
   512   221   224    1
   513   221   223    1
   514   380   379   ar
   515   380   381   ar
   516   383   385    1
   517   383   370    1
   518   242   241    2
   519   379   377   ar
   520   856   857    1
   521   856   855    1
   522   200   203    1
   523   200   188    1
   524   200   202    1
   525   224   225    1
   526   730   732    1
   527   730   729    1
   528   243   241    1
   529   732   733    1
   530   225   226    1
   531   858   857   ar
   532   858   859   ar
   533   205   207    1
   534   205   206    1
   535   381   382   ar
   536   747   744    1
   537   370   369    1
   538   188   187    1
   539   853   855    1
   540   853   854    1
   541   241   229    1
   542   241   244    1
   543   377   378    1
   544   377   376   ar
   545   857   866   ar
   546   713   711    1
   547   713   714    1
   548   693   706    1
   549   207   209    1
   550   371   369    1
   551   371   372    1
   552   711   710    1
   553   854   867    1
   554   733   744    1
   555   859   860   ar
   556   709   706    1
   557   709   710    1
   558   229   228    1
   559   708   706    2
   560   382   376   ar
   561   382   373   ar
   562   369   367    1
   563   729   728    1
   564   376   375   ar
   565   182   180    1
   566   744   746    2
   567   744   745    1
   568   226   228    1
   569   226   227    1
   570   706   707    1
   571   206   210    1
   572   866   860   ar
   573   866   865   ar
   574   181   180    1
   575   181   168    1
   576   228   230    1
   577   860   861   ar
   578   714   725    1
   579   187   185    1
   580   187   189    1
   581   184   185    1
   582   184   183    1
   583   209   210    1
   584   185   186    1
   585   868   867    2
   586   373   372    1
   587   373   374   ar
   588   372   368    1
   589   728   725    1
   590   244   245    1
   591   867   869    1
   592   867   870    1
   593   180   183    1
   594   375   374   ar
   595   865   864   ar
   596   727   725    2
   597   189   190    1
   598   725   726    1
   599   210   211    1
   600   245   246    1
   601   861   862    1
   602   861   863   ar
   603   367   368    1
   604   367   366    1
   605   227   231    1
   606   168   167    1
   607   886   884    1
   608   864   863   ar
   609   186   190    1
   610   230   231    1
   611   870   871    1
   612   263   261    2
   613   871   872    1
   614   358   357    2
   615   365   366    1
   616   365   362    1
   617   212   211   ar
   618   212   213   ar
   619   190   191    1
   620   211   220   ar
   621   262   261    1
   622   231   232    1
   623   356   357   ar
   624   356   354   ar
   625   240   238    1
   626   239   232   ar
   627   239   238   ar
   628   884   885   ar
   629   884   882   ar
   630   357   359   ar
   631   246   248    1
   632   246   247    1
   633   355   354    2
   634   261   249    1
   635   261   264    1
   636   249   248    1
   637   364   362    2
   638   873   872    1
   639   873   877    1
   640   167   169    1
   641   167   165    1
   642   885   878   ar
   643   354   353   ar
   644   169   170    1
   645   248   250    1
   646   260   258    1
   647   872   874    1
   648   232   233   ar
   649   238   236   ar
   650   362   363    1
   651   362   350    1
   652   213   214   ar
   653   883   882    2
   654   165   164    1
   655   165   166    1
   656   191   198   ar
   657   191   192   ar
   658   882   881   ar
   659   247   251    1
   660   359   361    1
   661   359   360   ar
   662   220   219   ar
   663   220   214   ar
   664   351   349    1
   665   351   352    1
   666   338   337    2
   667   198   197   ar
   668   353   360   ar
   669   353   352    1
   670   878   877    1
   671   878   879   ar
   672   164   163    1
   673   259   258   ar
   674   259   252   ar
   675   877   876    1
   676   193   192    2
   677   350   349    1
   678   219   218   ar
   679   258   256   ar
   680   214   215   ar
   681   264   265    1
   682   192   194   ar
   683   349   347    1
   684   170   166    1
   685   170   171    1
   686   352   348    1
   687   874   876    1
   688   874   875    1
   689   881   879   ar
   690   250   251    1
   691   233   234    2
   692   233   235   ar
   693   317   316    1
   694   236   235   ar
   695   236   237    2
   696  1017  1018    1
   697  1017  1015    1
   698   251   252    1
   699   336   337   ar
   700   336   334   ar
   701   163   160    1
   702   337   339   ar
   703  1033  1034    1
   704  1033  1032    1
   705   879   880    2
   706   173   172    2
   707   197   199    1
   708   197   195   ar
   709   889   887    2
   710  1034  1035    1
   711  1034  1036    1
   712  1027  1026   ar
   713  1027  1028   ar
   714   252   253   ar
   715   906   904    1
   716  1018  1014    1
   717  1018  1019    1
   718  1016  1015    1
   719  1016  1029    1
   720  1035  1039    1
   721   875   887    1
   722   265   266    1
   723  1026  1025   ar
   724  1001  1000    2
   725  1013  1014    1
   726  1013  1015    1
   727  1013  1012    1
   728   171   172   ar
   729   171   178   ar
   730   282   280    2
   731   194   195   ar
   732   278   279   ar
   733   278   276   ar
   734   218   217   ar
   735   335   334    2
   736   161   160    2
   737   172   174   ar
   738   903   902    2
   739   256   257    2
   740   256   255   ar
   741   334   333   ar
   742   215   217   ar
   743   215   216    1
   744   316   318   ar
   745   316   315   ar
   746   348   347    1
   747   318   319   ar
   748   296   295    1
   749  1030  1029    2
   750   347   346    1
   751   195   196    2
   752   339   341    1
   753   339   340   ar
   754   277   276    1
   755  1032  1029    1
   756   887   888    1
   757   887   890    1
   758   279   272   ar
   759   160   149    1
   760   160   162    1
   761  1037  1036    1
   762  1037  1048    1
   763  1028  1019   ar
   764  1028  1022   ar
   765  1029  1031    1
   766   904   902   ar
   767   904   905   ar
   768  1019  1020   ar
   769  1039  1038    1
   770  1039  1040    1
   771  1036  1038    1
   772   178   177   ar
   773   902   901   ar
   774   253   255   ar
   775   253   254    2
   776   345   346    1
   777   345   342    1
   778   276   275   ar
   779  1025  1023   ar
   780   997   998    1
   781   997   995    1
   782  1012  1011    1
   783  1000  1002   ar
   784  1000   999   ar
   785   281   280    1
   786   174   175   ar
   787   149   148    1
   788   266   268    1
   789   266   267    1
   790   280   269    1
   791   280   283    1
   792   344   342    2
   793   333   340   ar
   794   333   332    1
   795   998   999    1
   796   998   994    1
   797   315   314   ar
   798   315   321   ar
   799  1049  1048    2
   800   293   294   ar
   801   293   292   ar
   802   319   320   ar
   803   268   269    1
   804   268   270    1
   805   905   898   ar
   806  1011  1008    1
   807   314   313   ar
   808   295   294   ar
   809   295   297   ar
   810   267   271    1
   811   154   153    2
   812   150   148    1
   813   150   151    1
   814  1002  1003   ar
   815  1022  1023   ar
   816  1022  1021   ar
   817   999  1006   ar
   818  1048  1050    1
   819  1048  1051    1
   820  1040  1047   ar
   821  1040  1041   ar
   822   177   175   ar
   823   177   179    1
   824   272   271    1
   825   272   273   ar
   826   901   899   ar
   827   890   891    1
   828   342   343    1
   829   342   330    1
   830   981   980    2
   831  1020  1021   ar
   832  1023  1024    1
   833   294   300   ar
   834   331   332    1
   835   331   329    1
   836   175   176    2
   837   996   995    1
   838   996  1008    1
   839   148   146    1
   840   275   273   ar
   841  1047  1046   ar
   842   283   284    1
   843   994   993    1
   844   995   993    1
   845   292   291   ar
   846   923   922    1
   847   321   320   ar
   848   321   312   ar
   849  1042  1041    2
   850   332   328    1
   851   297   298   ar
   852   271   270    1
   853   993   992    1
   854   898   899   ar
   855   898   897    1
   856   329   330    1
   857   329   327    1
   858   153   155   ar
   859   153   152   ar
   860   964   965   ar
   861   964   962   ar
   862   313   312   ar
   863  1041  1043   ar
   864   273   274    2
   865   893   897    1
   866   893   892    1
   867   899   900    2
   868   891   892    1
   869   324   322    2
   870   303   301    2
   871   963   962    1
   872   942   941    1
   873   151   152    1
   874   151   147    1
   875  1008  1009    2
   876  1008  1010    1
   877   980   982   ar
   878   980   979   ar
   879   155   156   ar
   880   982   983   ar
   881  1003  1004    2
   882  1003  1005   ar
   883   965   966   ar
   884  1006  1005   ar
   885   312   311    1
   886   146   147    1
   887   146   145    1
   888   300   291   ar
   889   300   299   ar
   890   152   159   ar
   891  1051  1052    1
   892   897   896    1
   893  1046  1044   ar
   894   962   961   ar
   895   922   924   ar
   896   922   921   ar
   897   291   290    1
   898   328   327    1
   899  1052  1053    1
   900   284   285    1
   901   325   322    1
   902   325   326    1
   903   892   894    1
   904   943   941   ar
   905   943   944   ar
   906   298   299   ar
   907   924   925   ar
   908  1005  1007    1
   909   327   326    1
   910  1043  1044   ar
   911   941   940   ar
   912   992   991    1
   913   322   323    1
   914   322   309    1
   915   156   157    1
   916   156   158   ar
   917   984   983    2
   918   983   985   ar
   919   921   919   ar
   920   979   978    1
   921   979   986   ar
   922  1044  1045    1
   923   978   977    1
   924   978   974    1
   925   301   304    1
   926   301   302    1
   927   301   288    1
   928   145   144    1
   929   977   975    1
   930   894   896    1
   931   894   895    1
   932   159   158   ar
   933   966   967   ar
   934   304   305    1
   935   286   285    1
   936   286   290    1
   937   310   311    1
   938   310   308    1
   939   138   137    1
   940   311   307    1
   941   287   285    1
   942   287   288    1
   943   287   289    1
   944   991   988    1
   945   944   945   ar
   946   308   309    1
   947   308   306    1
   948   290   289    1
   949   961   967   ar
   950   961   960   ar
   951   909   907    2
   952   925   918   ar
   953  1053  1054    1
   954  1053  1055    1
   955   144   141    1
   956   967   958   ar
   957   940   939   ar
   958   940   946   ar
   959   919   918   ar
   960   919   920    2
   961   986   985   ar
   962   307   306    1
   963   985   987    1
   964  1054  1058    1
   965   974   973    1
   966   895   907    1
   967   137   136   ar
   968   137   139   ar
   969  1072  1070    2
   970   136   134   ar
   971   306   305    1
   972   918   917    1
   973   939   938   ar
   974   975   973    1
   975   975   976    1
   976   960   959   ar
   977   945   946   ar
   978  1725  1726    1
   979  1725  1724    1
   980  1055  1056    1
   981  1055  1057    1
   982  1071  1070    1
   983  1060  1061   ar
   984  1060  1059   ar
   985  1056  1070    1
   986   907   908    1
   987   907   910    1
   988   973   972    1
   989   946   937   ar
   990   988   976    1
   991   988   990    2
   992   988   989    1
   993  1070  1073    1
   994   139   140   ar
   995  1726  1727    1
   996  1726  1728    1
   997  1723  1721    2
   998  1061  1062   ar
   999   958   959   ar
  1000   958   957    1
  1001  1727  1731    1
  1002   134   135    2
  1003   134   133   ar
  1004   141   142    2
  1005   141   143    1
  1006   141   127    1
  1007   917   913    1
  1008   917   916    1
  1009  1058  1059    1
  1010  1058  1057    1
  1011   913   912    1
  1012  1059  1069   ar
  1013   938   937   ar
  1014  1724  1721    1
  1015  1722  1721    1
  1016  1721  1709    1
  1017   140   133   ar
  1018   140   130   ar
  1019   910   911    1
  1020   937   936    1
  1021  1089  1087    1
  1022  1729  1728    1
  1023  1729  1742    1
  1024   133   132   ar
  1025   957   956    1
  1026   957   953    1
  1027   972   971    1
  1028   956   954    1
  1029   128   126    1
  1030   128   129    1
  1031  1731  1730    1
  1032  1731  1732    1
  1033  1728  1730    1
  1034  1073  1074    1
  1035  1062  1069   ar
  1036  1062  1063   ar
  1037   971   968    1
  1038   127   126    1
  1039  1743  1742    2
  1040   916   914    1
  1041  1069  1068   ar
  1042   912   911    1
  1043   912   914    1
  1044   130   129    1
  1045   130   131   ar
  1046   126   124    1
  1047   914   915    1
  1048  1742  1744    1
  1049  1742  1745    1
  1050  1732  1733   ar
  1051  1732  1741   ar
  1052   132   131   ar
  1053  1064  1063    2
  1054   129   125    1
  1055   936   935    1
  1056   936   932    1
  1057  1074  1075    1
  1058  1063  1065   ar
  1059   114   113    1
  1060   953   952    1
  1061  1733  1734   ar
  1062   954   955    1
  1063   954   952    1
  1064  1087  1088   ar
  1065  1087  1085   ar
  1066  1709  1708    1
  1067   928   926    2
  1068   970   968    2
  1069  1744  1710    1
  1070   115   113   ar
  1071   115   116   ar
  1072   968   955    1
  1073   968   969    1
  1074  1086  1085    2
  1075  1092  1090    2
  1076   935   933    1
  1077  1746  1745    1
  1078  1746  1747    1
  1079  1068  1066   ar
  1080  1088  1081   ar
  1081   932   931    1
  1082  1741  1740   ar
  1083  1741  1735   ar
  1084   113   112   ar
  1085  1740  1739   ar
  1086  1085  1084   ar
  1087  1708  1710    1
  1088  1708  1706    1
  1089   952   951    1
  1090  1734  1735   ar
  1091   915   926    1
  1092   124   125    1
  1093   124   123    1
  1094  1702  1701    2
  1095  1710  1711    1
  1096   929   926    1
  1097   929   930    1
  1098   949   947    2
  1099   116   117   ar
  1100  1065  1066   ar
  1101   926   927    1
  1102  1748  1747    1
  1103  1748  1752    1
  1104  1075  1076    1
  1105  1075  1077    1
  1106   933   931    1
  1107   933   934    1
  1108  1735  1736   ar
  1109  1066  1067    1
  1110  1747  1749    1
  1111   950   951    1
  1112   950   947    1
  1113  1717  1716    2
  1114  1703  1701    1
  1115  1076  1080    1
  1116  1077  1078    1
  1117  1077  1079    1
  1118  1720  1718    1
  1119  1090  1091    1
  1120  1090  1078    1
  1121  1090  1093    1
  1122  1716  1718   ar
  1123  1716  1715   ar
  1124   112   111   ar
  1125   112   118   ar
  1126   931   930    1
  1127  1739  1738   ar
  1128  1106  1105    1
  1129  1718  1719   ar
  1130  1715  1713   ar
  1131  1701  1704    1
  1132  1701  1687    1
  1133  1081  1080    1
  1134  1081  1082   ar
  1135   122   123    1
  1136   122   119    1
  1137  1719  1712   ar
  1138  1713  1712   ar
  1139  1713  1714    2
  1140  1704  1705    1
  1141  1084  1082   ar
  1142   947   934    1
  1143   947   948    1
  1144  1712  1711    1
  1145   117   118   ar
  1146  1107  1105   ar
  1147  1107  1108   ar
  1148  1706  1705    1
  1149  1706  1707    1
  1150   111   110   ar
  1151  1736  1738   ar
  1152  1736  1737    1
  1153  1754  1753   ar
  1154  1754  1755   ar
  1155  1711  1707    1
  1156   118   109   ar
  1157  1752  1753    1
  1158  1752  1751    1
  1159  1080  1079    1
  1160    95    94    1
  1161  1105  1104   ar
  1162  1082  1083    2
  1163  1093  1094    1
  1164  1753  1762   ar
  1165  1755  1756   ar
  1166  1749  1751    1
  1167  1749  1750    1
  1168   121   119    2
  1169    93    94   ar
  1170    93    91   ar
  1171  1108  1101   ar
  1172   119   120    1
  1173   119   106    1
  1174  1110  1109    2
  1175  1680  1679    2
  1176   110   109   ar
  1177    76    75    1
  1178   109   108    1
  1179    94    96   ar
  1180  1681  1679    1
  1181  1750  1763    1
  1182  1687  1686    1
  1183    55    54    1
  1184    92    91    2
  1185  1762  1756   ar
  1186  1762  1761   ar
  1187  1756  1757   ar
  1188    91    90   ar
  1189  1659  1658    2
  1190   107   105    1
  1191   107   108    1
  1192  1104  1102   ar
  1193  1679  1682    1
  1194  1679  1666    1
  1195  1765  1763    2
  1196  1094  1095    1
  1197   100    98    2
  1198  1101  1102   ar
  1199  1101  1100    1
  1200   105   106    1
  1201   105   103    1
  1202   108   104    1
  1203  1686  1688    1
  1204  1686  1684    1
  1205  1761  1760   ar
  1206    75    74   ar
  1207    75    77   ar
  1208  1109  1111    1
  1209  1109  1098    1
  1210  1109  1112    1
  1211    74    72   ar
  1212    96    97   ar
  1213  1763  1764    1
  1214  1763  1766    1
  1215  1757  1758    1
  1216  1757  1759   ar
  1217    54    56   ar
  1218    54    53   ar
  1219    56    57   ar
  1220  1097  1095    1
  1221  1097  1099    1
  1222  1097  1098    1
  1223  1102  1103    2
  1224  1130  1129    2
  1225  1660  1658    1
  1226  1682  1683    1
  1227  1096  1095    1
  1228  1096  1100    1
  1229    90    97   ar
  1230    90    89    1
  1231  1688  1689    1
  1232  1658  1646    1
  1233  1658  1661    1
  1234  1639  1638    2
  1235  1100  1099    1
  1236   101    98    1
  1237   101   102    1
  1238  1760  1759   ar
  1239    88    89    1
  1240    88    86    1
  1241  1698  1697    1
  1242  1247  1246    2
  1243    98    99    1
  1244    98    87    1
  1245  1666  1665    1
  1246  1646  1645    1
  1247  1696  1697   ar
  1248  1696  1694   ar
  1249  1697  1699   ar
  1250  1683  1684    1
  1251   104   103    1
  1252  1695  1694    2
  1253  1112  1113    1
  1254  1694  1693   ar
  1255  1684  1685    1
  1256    77    78   ar
  1257  1699  1700   ar
  1258  1113  1114    1
  1259    72    73    2
  1260    72    71   ar
  1261   103   102    1
  1262  1693  1700   ar
  1263  1693  1692   ar
  1264  1700  1690   ar
  1265    57    58   ar
  1266  1245  1246   ar
  1267  1245  1243   ar
  1268    53    52   ar
  1269    53    59   ar
  1270    89    85    1
  1271  1131  1129    1
  1272  1692  1691   ar
  1273  1766  1767    1
  1274  1129  1117    1
  1275  1129  1132    1
  1276  1690  1691   ar
  1277  1690  1689    1
  1278  1661  1662    1
  1279  1246  1248   ar
  1280  1273  1272    2
  1281    86    87    1
  1282    86    84    1
  1283    52    51   ar
  1284  1642  1643    1
  1285  1642  1641    1
  1286  1689  1685    1
  1287  1665  1663    1
  1288  1665  1667    1
  1289  1662  1663    1
  1290  1117  1116    1
  1291  1244  1243    2
  1292  1255  1256    1
  1293  1255  1254    1
  1294  1638  1641    1
  1295  1638  1625    1
  1296  1638  1640    1
  1297  1226  1225    1
  1298  1243  1242   ar
  1299  1643  1645    1
  1300  1643  1644    1
  1301  1776  1775   ar
  1302  1776  1777   ar
  1303  1645  1647    1
  1304  1259  1272    1
  1305  1259  1258    1
  1306  1132  1133    1
  1307  1253  1251    2
  1308    78    71   ar
  1309  1775  1774   ar
  1310  1256  1258    1
  1311  1256  1257    1
  1312  1767  1768    1
  1313    71    70    1
  1314  1114  1116    1
  1315  1114  1115    1
  1316    59    58   ar
  1317    59    50   ar
  1318  1663  1664    1
  1319  1625  1624    1
  1320  1276  1275    1
  1321  1276  1277    1
  1322  1116  1118    1
  1323  1272  1275    1
  1324  1272  1274    1
  1325  1248  1250    1
  1326  1248  1249   ar
  1327    85    84    1
  1328  1152  1151    2
  1329  1769  1768    1
  1330  1769  1773    1
  1331  1667  1668    1
  1332    84    83    1
  1333    51    50   ar
  1334  1779  1778    2
  1335  1133  1134    1
  1336  1254  1251    1
  1337  1292  1291    2
  1338  1258  1260    1
  1339  1153  1151    1
  1340  1227  1225   ar
  1341  1227  1228   ar
  1342  1225  1224   ar
  1343  1647  1648    1
  1344    40    39    2
  1345  1242  1249   ar
  1346  1242  1241    1
  1347  1257  1261    1
  1348  1777  1778   ar
  1349  1777  1784   ar
  1350  1251  1252    1
  1351  1251  1239    1
  1352  1768  1770    1
  1353  1240  1241    1
  1354  1240  1238    1
  1355  1774  1773    1
  1356  1774  1784   ar
  1357  1128  1126    1
  1358  1644  1648    1
  1359  1151  1137    1
  1360  1151  1154    1
  1361    50    49    1
  1362  1115  1119    1
  1363  1778  1780   ar
  1364  1277  1278    1
  1365  1277  1279    1
  1366    70    69    1
  1367    70    66    1
  1368    82    83    1
  1369    82    79    1
  1370  1664  1668    1
  1371  1260  1261    1
  1372  1773  1772    1
  1373    69    67    1
  1374  1618  1617    2
  1375  1624  1622    1
  1376  1624  1626    1
  1377  1137  1136    1
  1378  1241  1237    1
  1379  1280  1291    1
  1380  1280  1279    1
  1381  1784  1783   ar
  1382  1668  1669    1
  1383  1127  1126   ar
  1384  1127  1120   ar
  1385  1118  1119    1
  1386  1648  1649    1
  1387  1261  1262    1
  1388  1228  1229   ar
  1389  1238  1239    1
  1390  1238  1236    1
  1391  1207  1206    1
  1392  1622  1621    1
  1393  1622  1623    1
  1394  1224  1223   ar
  1395  1224  1230   ar
  1396    81    79    2
  1397  1626  1627    1
  1398    62    60    2
  1399  1669  1670   ar
  1400  1669  1678   ar
  1401  1134  1136    1
  1402  1134  1135    1
  1403  1136  1138    1
  1404  1126  1124   ar
  1405  1621  1620    1
  1406  1291  1293    1
  1407  1291  1294    1
  1408  1670  1671   ar
  1409    43    42    1
  1410    43    44    1
  1411  1278  1282    1
  1412  1770  1772    1
  1413  1770  1771    1
  1414  1279  1281    1
  1415    39    27    1
  1416    39    42    1
  1417    39    41    1
  1418  1119  1120    1
  1419  1172  1170    2
  1420  1223  1222   ar
  1421    67    68    1
  1422    67    65    1
  1423    66    65    1
  1424  1678  1677   ar
  1425  1678  1672   ar
  1426  1780  1781   ar
  1427  1677  1676   ar
  1428    79    68    1
  1429    79    80    1
  1430    27    26    1
  1431  1671  1672   ar
  1432  1120  1121   ar
  1433    49    48    1
  1434    49    45    1
  1435  1804  1802    1
  1436  1154  1155    1
  1437  1672  1673   ar
  1438  1135  1139    1
  1439  1186  1185    1
  1440  1676  1675   ar
  1441  1783  1781   ar
  1442    63    60    1
  1443    63    64    1
  1444  1141  1142   ar
  1445  1141  1140   ar
  1446  1620  1617    1
  1447  1295  1294    1
  1448  1295  1296    1
  1449  1237  1236    1
  1450  1617  1603    1
  1451  1617  1619    1
  1452  1155  1156    1
  1453  1230  1229   ar
  1454  1230  1221   ar
  1455  1649  1656   ar
  1456  1649  1650   ar
  1457    46    48    1
  1458    46    44    1
  1459    46    47    1
  1460  1262  1263   ar
  1461  1262  1271   ar
  1462  1801  1800    2
  1463  1656  1655   ar
  1464  1142  1143   ar
  1465  1673  1675   ar
  1466  1673  1674    1
  1467  1771  1785    1
  1468  1787  1785    2
  1469  1206  1208   ar
  1470  1206  1205   ar
  1471  1781  1782    1
  1472  1623  1627    1
  1473    60    61    2
  1474  1236  1235    1
  1475    65    64    1
  1476  1263  1264   ar
  1477    44    45    1
  1478  1603  1602    1
  1479  1168  1169   ar
  1480  1168  1166   ar
  1481  1627  1628    1
  1482  1193  1191    2
  1483  1124  1125    2
  1484  1124  1123   ar
  1485  1208  1209   ar
  1486  1281  1282    1
  1487  1234  1235    1
  1488  1234  1231    1
  1489  1233  1231    2
  1490  1282  1283    1
  1491    20    19    2
  1492  1222  1221   ar
  1493  1138  1139    1
  1494  1170  1171    1
  1495  1170  1159    1
  1496  1170  1173    1
  1497  1167  1166    1
  1498  1183  1184   ar
  1499  1183  1182   ar
  1500    26    24    1
  1501    26    28    1
  1502  1802  1800   ar
  1503  1802  1803   ar
  1504  1937  1933    1
  1505  1937  1936    1
  1506  1800  1799   ar
  1507  1139  1140    1
  1508  1169  1162   ar
  1509    23    24    1
  1510    23    22    1
  1511    24    25    1
  1512  1785  1788    1
  1513  1785  1786    1
  1514  1140  1150   ar
  1515  1121  1123   ar
  1516  1121  1122    2
  1517  1933  1932    1
  1518  1936  1934    1
  1519  1651  1650    2
  1520  1221  1220    1
  1521  1185  1184   ar
  1522  1185  1187   ar
  1523  1290  1283   ar
  1524  1290  1289   ar
  1525  1650  1652   ar
  1526  1205  1203   ar
  1527  1166  1165   ar
  1528  1655  1657    1
  1529  1655  1653   ar
  1530  1271  1270   ar
  1531  1271  1265   ar
  1532  1296  1297    1
  1533  1296  1298    1
  1534  1231  1232    1
  1535  1231  1218    1
  1536  1184  1190   ar
  1537  1143  1150   ar
  1538  1143  1144   ar
  1539  1156  1158    1
  1540  1156  1157    1
  1541  1283  1284   ar
  1542  1159  1158    1
  1543  1932  1934    1
  1544  1932  1931    1
  1545  1158  1160    1
  1546  1182  1181   ar
  1547  1803  1796   ar
  1548  1212  1210    2
  1549  1270  1269   ar
  1550  1628  1637   ar
  1551  1628  1629   ar
  1552  1264  1265   ar
  1553  1173  1174    1
  1554  1602  1604    1
  1555  1602  1600    1
  1556  1604  1605    1
  1557  1209  1202   ar
  1558    22    19    1
  1559  1799  1797   ar
  1560  1636  1637   ar
  1561  1636  1635   ar
  1562  1788  1789    1
  1563    19     6    1
  1564    19    21    1
  1565  1191  1192    1
  1566  1191  1194    1
  1567  1191  1178    1
  1568  1145  1144    2
  1569     6     5    1
  1570  1289  1287   ar
  1571  1150  1149   ar
  1572  1187  1188   ar
  1573  1157  1161    1
  1574  1934  1935    1
  1575  1219  1220    1
  1576  1219  1217    1
  1577  1297  1301    1
  1578    28    29    1
  1579  1930  1931    1
  1580  1930  1927    1
  1581  1652  1653   ar
  1582  1162  1161    1
  1583  1162  1163   ar
  1584  1144  1146   ar
  1585  1299  1298    1
  1586  1299  1310    1
  1587  1637  1631   ar
  1588  1821  1820    2
  1589  1265  1266   ar
  1590    25    29    1
  1591  1653  1654    2
  1592  1220  1216    1
  1593  1217  1218    1
  1594  1217  1215    1
  1595  1917  1918    1
  1596  1917  1915    1
  1597  1629  1630   ar
  1598  1614  1613    1
  1599  1203  1202   ar
  1600  1203  1204    2
  1601  1921  1920    2
  1602  1165  1163   ar
  1603  1600  1599    1
  1604  1600  1601    1
  1605  1298  1300    1
  1606  1796  1797   ar
  1607  1796  1795    1
  1608  1635  1634   ar
  1609  1916  1927    1
  1610  1916  1929    1
  1611  1797  1798    2
  1612  1190  1181   ar
  1613  1190  1189   ar
  1614  1202  1201    1
  1615  1918  1914    1
  1616  1918  1919    1
  1617  1194  1195    1
  1618  1791  1795    1
  1619  1791  1790    1
  1620  1213  1210    1
  1621  1213  1214    1
  1622  1181  1180    1
  1623  1161  1160    1
  1624  1599  1598    1
  1625  1284  1285    2
  1626  1284  1286   ar
  1627  1789  1790    1
  1628  1210  1211    1
  1629  1210  1199    1
  1630  1913  1914    1
  1631  1913  1915    1
  1632  1913  1912    1
  1633  1269  1268   ar
  1634  1163  1164    2
  1635    29    30    1
  1636  1311  1310    2
  1637  1615  1613   ar
  1638  1615  1616   ar
  1639  1177  1178    1
  1640  1177  1179    1
  1641  1177  1175    1
  1642  1174  1175    1
  1643  1927  1928    2
  1644  1927  1929    1
  1645  1149  1147   ar
  1646  1188  1189   ar
  1647  1605  1601    1
  1648  1605  1606    1
  1649     5     3    1
  1650     5     7    1
  1651  1820  1822   ar
  1652  1820  1819   ar
  1653  1613  1612   ar
  1654  1312  1310    1
  1655  1631  1630   ar
  1656  1631  1632   ar
  1657  1216  1215    1
  1658  1287  1286   ar
  1659  1287  1288    1
  1660  1310  1313    1
  1661  1795  1794    1
  1662     3     2    1
  1663     3     4    1
  1664  1901  1900    2
  1665  1146  1147   ar
  1666     7     8    1
  1667  1301  1300    1
  1668  1301  1302    1
  1669  1309  1308   ar
  1670  1309  1302   ar
  1671  1920  1919   ar
  1672  1920  1922   ar
  1673  1198  1200    1
  1674  1198  1199    1
  1675  1198  1196    1
  1676  1215  1214    1
  1677  1266  1268   ar
  1678  1266  1267    1
  1679  1634  1632   ar
  1680  1822  1823   ar
  1681  1790  1792    1
  1682  1179  1180    1
  1683  1175  1176    1
  1684  1919  1926   ar
  1685  1885  1884   ar
  1686  1885  1886   ar
  1687  1200  1201    1
  1688  1596  1595    2
  1689     2     1    1
  1690  1147  1148    1
  1691  1912  1911    1
  1692  1180  1176    1
  1693  1818  1819   ar
  1694  1818  1817   ar
  1695  1938  1939    2
  1696  1938  1945    1
  1697  1940  1939    2
  1698  1616  1606   ar
  1699  1616  1609   ar
  1700  1201  1197    1
  1701  1819  1826   ar
  1702  1606  1607   ar
  1703  1632  1633    1
  1704  1308  1306   ar
  1705  1195  1196    1
  1706  1862  1861    1
  1707  1843  1842    1
  1708    30    37   ar
  1709    30    31   ar
  1710  1884  1882   ar
  1711  1898  1897    1
  1712  1898  1894    1
  1713  1898  1899    1
  1714  1302  1303   ar
  1715  1897  1895    1
  1716  1598  1595    1
  1717  1863  1861   ar
  1718  1863  1864   ar
  1719    37    36   ar
  1720  1612  1610   ar
  1721     4     8    1
  1722  1197  1196    1
  1723  1939  1941   am
  1724  1900  1899   ar
  1725  1900  1902   ar
  1726  1922  1923   ar
  1727  1792  1794    1
  1728  1792  1793    1
  1729  1886  1887   ar
  1730     8     9    1
  1731  1945  1944    2
  1732  1894  1893    1
  1733  1823  1824    1
  1734  1823  1825   ar
  1735  1861  1860   ar
  1736  1313  1314    1
  1737  1595  1582    1
  1738  1595  1597    1
  1739  1817  1816   ar
  1740  1864  1865   ar
  1741  1926  1925   ar
  1742  1826  1825   ar
  1743  1826  1816   ar
  1744    32    31    2
  1745  1899  1906   ar
  1746  1609  1610   ar
  1747  1609  1608   ar
  1748  1607  1608   ar
  1749    31    33   ar
  1750  1314  1315    1
  1751  1807  1805    2
  1752  1842  1841   ar
  1753  1842  1844   ar
  1754  1911  1908    1
  1755  1893  1895    1
  1756  1893  1892    1
  1757  1902  1903   ar
  1758  1610  1611    2
  1759    36    38    1
  1760    36    34   ar
  1761  1841  1839   ar
  1762  1306  1307    1
  1763  1306  1305   ar
  1764  1882  1883    1
  1765  1882  1881   ar
  1766  1895  1896    1
  1767  1896  1908    1
  1768  1303  1305   ar
  1769  1303  1304    2
  1770  1582  1581    1
  1771  1816  1815    1
  1772  1923  1925   ar
  1773  1923  1924    1
  1774  1941  1942   am
  1775  1793  1805    1
  1776     9    18   ar
  1777     9    10   ar
  1778  1944  1942    1
  1779  1944  1946    1
  1780  1887  1881   ar
  1781  1887  1878   ar
  1782  1583  1581    1
  1783  1583  1584    1
  1784    17    18   ar
  1785    17    16   ar
  1786  1805  1808    1
  1787  1805  1806    1
  1788  1860  1866   ar
  1789  1860  1859   ar
  1790  1844  1845   ar
  1791  1865  1866   ar
  1792    33    34   ar
  1793  1908  1909    2
  1794  1908  1910    1
  1795  1881  1880   ar
  1796  1906  1905   ar
  1797  1942  1943    2
  1798  1333  1331    2
  1799    34    35    2
  1800  1839  1840    2
  1801  1839  1838   ar
  1802    18    12   ar
  1803  1581  1579    1
  1804  1892  1891    1
  1805  1592  1593    1
  1806  1592  1591    1
  1807  1592  1430    1
  1808  1903  1905   ar
  1809  1903  1904    2
  1810  1322  1323   ar
  1811  1322  1321   ar
  1812  1323  1324   ar
  1813    10    11   ar
  1814  1315  1316    1
  1815  1315  1317    1
  1816  1593  1594    1
  1817  1593  1429    1
  1818  1815  1811    1
  1819  1815  1814    1
  1820  1811  1810    1
  1821  1808  1809    1
  1822  1866  1857   ar
  1823  1878  1877    1
  1824  1878  1879   ar
  1825  1876  1877    1
  1826  1876  1874    1
  1827  1859  1858   ar
  1828  1316  1320    1
  1829  1877  1873    1
  1830    16    15   ar
  1831  1905  1907    1
  1832  1584  1580    1
  1833  1584  1585    1
  1834  1591  1589    2
  1835  1845  1838   ar
  1836  1430  1429    1
  1837  1430  1431    1
  1838  1446  1445    2
  1839  1317  1318    1
  1840  1317  1319    1
  1841  1838  1837    1
  1842  1891  1888    1
  1843  1594  1585   ar
  1844  1594  1588   ar
  1845  1579  1580    1
  1846  1579  1578    1
  1847  1332  1331    1
  1848  1318  1331    1
  1849  1429  1427    1
  1850  1880  1879   ar
  1851  1331  1334    1
  1852  1809  1810    1
  1853    12    11   ar
  1854    12    13   ar
  1855  1321  1320    1
  1856  1321  1330   ar
  1857  1810  1812    1
  1858  1324  1325   ar
  1859  1324  1330   ar
  1860  1585  1586   ar
  1861  1326  1325    1
  1862  1443  1442    1
  1863  1443  1439    1
  1864  1443  1444    1
  1865  1814  1812    1
  1866  1857  1858   ar
  1867  1857  1856    1
  1868  1431  1432    2
  1869  1589  1588    1
  1870  1589  1590    1
  1871  1442  1440    1
  1872  1320  1319    1
  1873  1459  1458    1
  1874  1459  1463    1
  1875  1873  1872    1
  1876    15    13   ar
  1877  1588  1587   ar
  1878  1812  1813    1
  1879  1439  1438    1
  1880  1874  1875    1
  1881  1874  1872    1
  1882  1347  1346    2
  1883  1457  1458    1
  1884  1457  1456    1
  1885  1344  1343   ar
  1886  1344  1345   ar
  1887  1458  1460    1
  1888  1445  1444   ar
  1889  1445  1447   ar
  1890  1325  1327   ar
  1891  1875  1888    1
  1892    13    14    1
  1893  1837  1833    1
  1894  1837  1836    1
  1895  1330  1329   ar
  1896  1438  1440    1
  1897  1438  1437    1
  1898  1369  1368    1
  1899  1577  1578    1
  1900  1577  1574    1
  1901  1586  1587   ar
  1902  1334  1335    1
  1903  1872  1871    1
  1904  1427  1428    1
  1905  1427  1426    2
  1906  1888  1889    2
  1907  1888  1890    1
  1908  1444  1451   ar
  1909  1856  1855    1
  1910  1856  1852    1
  1911  1829  1827    2
  1912  1343  1342   ar
  1913  1441  1440    1
  1914  1441  1454    1
  1915  1454  1453    1
  1916  1833  1832    1
  1917  1489  1488    1
  1918  1432  1426   ar
  1919  1432  1423   ar
  1920  1463  1462    1
  1921  1463  1464    1
  1922  1346  1345   ar
  1923  1346  1348   ar
  1924  1447  1448   ar
  1925  1345  1352   ar
  1926  1456  1453    1
  1927  1813  1827    1
  1928  1855  1853    1
  1929  1836  1834    1
  1930  1490  1488   ar
  1931  1490  1491   ar
  1932  1426  1425   ar
  1933  1460  1461    1
  1934  1460  1462    1
  1935  1461  1473    1
  1936  1830  1827    1
  1937  1830  1831    1
  1938    14  1530    1
  1939  1437  1436    1
  1940  1327  1328   ar
  1941  1575  1574    2
  1942  1488  1487   ar
  1943  1852  1851    1
  1944  1368  1370   ar
  1945  1368  1367   ar
  1946  1329  1328   ar
  1947  1827  1828    1
  1948  1453  1455    1
  1949  1335  1336    1
  1950  1464  1471   ar
  1951  1464  1465   ar
  1952  1574  1562    1
  1953  1574  1576    1
  1954  1451  1450   ar
  1955  1370  1371   ar
  1956  1421  1422    1
  1957  1421  1419    1
  1958  1423  1422    1
  1959  1423  1424   ar
  1960  1871  1870    1
  1961  1471  1470   ar
  1962  1474  1473    2
  1963  1342  1352   ar
  1964  1342  1341    1
  1965  1567  1566    2
  1966  1422  1418    1
  1967  1491  1484   ar
  1968  1834  1832    1
  1969  1834  1835    1
  1970  1832  1831    1
  1971  1563  1561    1
  1972  1563  1564    1
  1973  1562  1561    1
  1974  1348  1349   ar
  1975  1388  1387    2
  1976  1508  1507    1
  1977  1352  1351   ar
  1978  1448  1450   ar
  1979  1448  1449    2
  1980  1337  1336    1
  1981  1337  1341    1
  1982  1466  1465    2
  1983  1487  1485   ar
  1984  1870  1867    1
  1985  1405  1404    2
  1986  1465  1467   ar
  1987  1853  1851    1
  1988  1853  1854    1
  1989  1367  1365   ar
  1990  1355  1353    2
  1991  1450  1452    1
  1992  1436  1433    1
  1993  1425  1424   ar
  1994  1406  1404   ar
  1995  1406  1407   ar
  1996  1336  1338    1
  1997  1848  1846    2
  1998  1851  1850    1
  1999  1473  1476    1
  2000  1473  1475    1
  2001  1470  1472    1
  2002  1470  1468   ar
  2003  1408  1407    2
  2004  1341  1340    1
  2005  1561  1559    1
  2006  1484  1485   ar
  2007  1484  1483    1
  2008  1530  1531    1
  2009  1530  1528    1
  2010  1849  1846    1
  2011  1849  1850    1
  2012  1371  1364   ar
  2013  1476  1477    1
  2014  1485  1486    2
  2015  1564  1565    1
  2016  1564  1560    1
  2017  1507  1509   ar
  2018  1507  1506   ar
  2019  1404  1403   ar
  2020  1566  1565   ar
  2021  1566  1568   ar
  2022  1509  1510   ar
  2023  1529  1528    1
  2024  1418  1417    1
  2025  1419  1420    1
  2026  1419  1417    1
  2027  1349  1351   ar
  2028  1349  1350    1
  2029  1338  1340    1
  2030  1338  1339    1
  2031  1387  1386   ar
  2032  1387  1389   ar
  2033  1835  1846    1
  2034  1420  1433    1
  2035  1479  1483    1
  2036  1479  1478    1
  2037  1467  1468   ar
  2038  1407  1409   ar
  2039  1391  1389    1
  2040  1531  1532    2
  2041  1854  1867    1
  2042  1547  1546    2
  2043  1846  1847    1
  2044  1468  1469    2
  2045  1528  1527    2
  2046  1417  1416    1
  2047  1365  1364   ar
  2048  1365  1366    2
  2049  1477  1478    1
  2050  1867  1869    2
  2051  1867  1868    1
  2052  1483  1482    1
  2053  1559  1560    1
  2054  1559  1558    1
  2055  1565  1572   ar
  2056  1568  1569   ar
  2057  1433  1434    2
  2058  1433  1435    1
  2059  1364  1363    1
  2060  1386  1384   ar
  2061  1353  1339    1
  2062  1353  1356    1
  2063  1353  1354    1
  2064  1506  1505   ar
  2065  1506  1512   ar
  2066  1510  1511   ar
  2067  1389  1390   ar
  2068  1505  1504   ar
  2069  1478  1480    1
  2070  1403  1402    1
  2071  1403  1410   ar
  2072  1356  1357    1
  2073  1546  1548   ar
  2074  1546  1545   ar
  2075  1548  1549   ar
  2076  1532  1533    1
  2077  1409  1410   ar
  2078  1409  1411    1
  2079  1527  1533    1
  2080  1527  1526    1
  2081  1512  1511   ar
  2082  1512  1503   ar
  2083  1401  1402    1
  2084  1401  1399    1
  2085  1402  1398    1
  2086  1558  1557    1
  2087  1416  1415    1
  2088  1572  1571   ar
  2089  1480  1482    1
  2090  1480  1481    1
  2091  1569  1570    2
  2092  1569  1571   ar
  2093  1504  1503   ar
  2094  1384  1385    2
  2095  1384  1383   ar
  2096  1533  1524    1
  2097  1390  1383   ar
  2098  1363  1359    1
  2099  1363  1362    1
  2100  1550  1549    2
  2101  1415  1412    1
  2102  1545  1544    1
  2103  1545  1552   ar
  2104  1549  1551   ar
  2105  1544  1543    1
  2106  1544  1540    1
  2107  1503  1502    1
  2108  1543  1541    1
  2109  1359  1358    1
  2110  1357  1358    1
  2111  1571  1573    1
  2112  1526  1525    2
  2113  1383  1382    1
  2114  1557  1554    1
  2115  1374  1372    2
  2116  1362  1360    1
  2117  1360  1358    1
  2118  1360  1361    1
  2119  1399  1400    1
  2120  1399  1397    1
  2121  1398  1397    1
  2122  1481  1492    1
  2123  1524  1525    1
  2124  1524  1523    1
  2125  1494  1492    2
  2126  1400  1412    1
  2127  1552  1551   ar
  2128  1414  1412    2
  2129  1551  1553    1
  2130  1540  1539    1
  2131  1412  1413    1
  2132  1502  1498    1
  2133  1502  1501    1
  2134  1498  1497    1
  2135  1397  1396    1
  2136  1541  1542    1
  2137  1541  1539    1
  2138  1492  1495    1
  2139  1492  1493    1
  2140  1495  1496    1
  2141  1542  1554    1
  2142  1361  1372    1
  2143  1523  1522    1
  2144  1523  1519    1
  2145  1382  1378    1
  2146  1382  1381    1
  2147  1372  1375    1
  2148  1372  1373    1
  2149  1539  1538    1
  2150  1554  1556    2
  2151  1554  1555    1
  2152  1375  1376    1
  2153  1522  1520    1
  2154  1378  1377    1
  2155  1381  1379    1
  2156  1501  1499    1
  2157  1395  1396    1
  2158  1395  1392    1
  2159  1497  1496    1
  2160  1497  1499    1
  2161  1519  1518    1
  2162  1379  1377    1
  2163  1379  1380    1
  2164  1499  1500    1
  2165  1394  1392    2
  2166  1538  1537    1
  2167  1377  1376    1
  2168  1536  1520    1
  2169  1536  1534    1
  2170  1520  1518    1
  2171  1520  1521    1
  2172  1392  1380    1
  2173  1392  1393    1
  2174  1515  1513    2
  2175  1537  1534    1
  2176  1518  1517    1
  2177  1516  1513    1
  2178  1516  1517    1
  2179  1500  1513    1
  2180  1534  1521    1
  2181  1534  1535    2
  2182  1513  1514    1
