@<TRIPOS>MOLECULE
dna.pdb
 1573 1760 0 0 0
SMALL
GASTEIGER

@<TRIPOS>ATOM
      1  O5'        1.2410    3.1360   11.4070 O.3     1  DA1        -0.2176
      2  C5'        0.7700    4.4140   11.0240 C.3     1  DA1         0.2140
      3  C4'       -0.0790    4.3240    9.7900 C.3     1  DA1         0.1776
      4  O4'       -0.6990    5.6140    9.5740 O.3     1  DA1        -0.3326
      5  C3'        0.6700    4.0290    8.5030 C.3     1  DA1         0.1559
      6  O3'        0.7920    2.6250    8.3090 O.3     1  DA1        -0.3138
      7  C2'       -0.2480    4.6400    7.4540 C.3     1  DA1         0.0865
      8  C1'       -0.7600    5.8810    8.1890 C.3     1  DA1         0.2094
      9  N9         0.0130    7.0890    7.9470 N.ar    1  DA1        -0.2714
     10  C8        -0.1300    7.9990    6.9320 C.ar    1  DA1         0.1815
     11  N7         0.7240    8.9930    6.9890 N.ar    1  DA1        -0.2191
     12  C5         1.4780    8.7190    8.1190 C.ar    1  DA1         0.1545
     13  C6         2.5510    9.3940    8.7270 C.ar    1  DA1         0.2060
     14  N6         3.0690   10.5320    8.2590 N.2     1  DA1        -0.1252
     15  N1         3.0780    8.8530    9.8460 N.ar    1  DA1        -0.2017
     16  C2         2.5590    7.7120   10.3140 C.ar    1  DA1         0.2017
     17  N3         1.5540    6.9850    9.8300 N.ar    1  DA1        -0.2048
     18  C4         1.0510    7.5500    8.7200 C.ar    1  DA1         0.1693
     19  P          1.7730    2.2690    7.0000 P.3     2  DT2         0.2141
     20  OP1        1.5060    0.8310    6.8790 O.2     2  DT2        -0.5172
     21  OP2        2.7230    2.6910    8.0410 O.3     2  DT2        -0.4373
     22  O5'        2.3810    2.8920    5.6600 O.3     2  DT2        -0.3114
     23  C5'        1.7640    2.8990    4.3940 C.3     2  DT2         0.1811
     24  C4'        1.1530    4.2570    4.1080 C.3     2  DT2         0.1746
     25  O4'        0.9610    5.0160    5.3300 O.3     2  DT2        -0.3327
     26  C3'        1.9580    5.2190    3.2570 C.3     2  DT2         0.1558
     27  O3'        1.8400    4.8940    1.9000 O.3     2  DT2        -0.3138
     28  C2'        1.2280    6.5200    3.5520 C.3     2  DT2         0.0866
     29  C1'        1.0420    6.4050    5.0550 C.3     2  DT2         0.2106
     30  N1         2.0900    6.9450    5.8350 N.ar    2  DT2        -0.2559
     31  C2         2.4260    8.2860    5.8590 C.ar    2  DT2         0.3545
     32  O2         1.9140    9.1120    5.1240 O.2     2  DT2        -0.2443
     33  N3         3.3890    8.6270    6.7770 N.ar    2  DT2        -0.1533
     34  C4         4.0360    7.7820    7.6550 C.ar    2  DT2         0.2804
     35  O4         4.8800    8.2370    8.4230 O.2     2  DT2        -0.2654
     36  C5         3.6330    6.4060    7.5690 C.ar    2  DT2         0.0534
     37  C6         2.6990    6.0470    6.6840 C.ar    2  DT2         0.0824
     38  C7         4.2790    5.4080    8.4830 C.3     2  DT2         0.0377
     39  P          2.7890    5.1830    1.1890 P.3     3  DA3         0.2141
     40  OP1        2.9440    4.4850   -0.1080 O.2     3  DA3        -0.5172
     41  OP2        3.8740    5.1500    2.1990 O.3     3  DA3        -0.4373
     42  O5'        2.5540    6.7390    0.9240 O.3     3  DA3        -0.3114
     43  C5'        1.5210    7.1880    0.0660 C.3     3  DA3         0.1811
     44  C4'        1.5260    8.6890   -0.0040 C.3     3  DA3         0.1746
     45  O4'        1.4290    9.2110    1.3440 O.3     3  DA3        -0.3327
     46  C3'        2.8020    9.3130   -0.5500 C.3     3  DA3         0.1558
     47  O3'        2.8530    9.3380   -1.9660 O.3     3  DA3        -0.3138
     48  C2'        2.7980   10.6970    0.0900 C.3     3  DA3         0.0865
     49  C1'        2.1970   10.3890    1.4620 C.3     3  DA3         0.2094
     50  N9         3.2680   10.1790    2.4510 N.ar    3  DA3        -0.2714
     51  C8         3.6930    8.9620    2.9170 C.ar    3  DA3         0.1815
     52  N7         4.5490    9.0450    3.9080 N.ar    3  DA3        -0.2193
     53  C5         4.6960   10.4090    4.1050 C.ar    3  DA3         0.1518
     54  C6         5.4680   11.1550    5.0130 C.ar    3  DA3         0.1919
     55  N6         6.2680   10.6060    5.9300 N.pl3   3  DA3        -0.1054
     56  N1         5.3880   12.5010    4.9450 N.ar    3  DA3        -0.2040
     57  C2         4.5850   13.0510    4.0270 C.ar    3  DA3         0.2016
     58  N3         3.8120   12.4560    3.1210 N.ar    3  DA3        -0.2048
     59  C4         3.9150   11.1200    3.2150 C.ar    3  DA3         0.1691
     60  P          4.1050    8.9430   -2.7190 P.3     4  DC4         0.2141
     61  OP1        3.7860    8.9970   -4.1640 O.2     4  DC4        -0.5172
     62  OP2        4.9280    7.8310   -2.1900 O.3     4  DC4        -0.4373
     63  O5'        4.8260   10.3380   -2.3120 O.3     4  DC4        -0.3114
     64  C5'        4.2180   11.5820   -2.6720 C.3     4  DC4         0.1811
     65  C4'        5.1280   12.7940   -2.4180 C.3     4  DC4         0.1746
     66  O4'        5.1730   13.1490   -1.0150 O.3     4  DC4        -0.3327
     67  C3'        6.5220   12.4960   -2.8290 C.3     4  DC4         0.1558
     68  O3'        6.7670   12.8490   -4.1720 O.3     4  DC4        -0.3138
     69  C2'        7.3910   13.2440   -1.8960 C.3     4  DC4         0.0866
     70  C1'        6.5440   13.5190   -0.6750 C.3     4  DC4         0.2106
     71  N1         7.0580   12.6400    0.5330 N.ar    4  DC4        -0.2556
     72  C2         7.9080   13.3020    1.4270 C.ar    4  DC4         0.3531
     73  O2         8.0400   14.5340    1.3250 O.2     4  DC4        -0.2443
     74  N3         8.5600   12.5840    2.3720 N.ar    4  DC4        -0.1739
     75  C4         8.3890   11.2640    2.4430 C.ar    4  DC4         0.1759
     76  N4         9.0520   10.5980    3.3910 N.pl3   4  DC4        -0.1070
     77  C5         7.5320   10.5740    1.5470 C.ar    4  DC4         0.0566
     78  C6         6.8900   11.2870    0.6150 C.ar    4  DC4         0.0849
     79  P          8.2070   12.1530   -4.9990 P.3     5  DC5         0.2141
     80  OP1        7.9930   13.2910   -5.9440 O.2     5  DC5        -0.5172
     81  OP2        7.8460   10.7660   -5.4180 O.3     5  DC5        -0.4373
     82  O5'        9.7110   12.1050   -4.4490 O.3     5  DC5        -0.3114
     83  C5'       10.4240   13.2750   -4.0370 C.3     5  DC5         0.1811
     84  C4'       11.7120   12.8620   -3.3470 C.3     5  DC5         0.1746
     85  O4'       11.5200   12.8010   -1.9120 O.3     5  DC5        -0.3327
     86  C3'       12.1840   11.4790   -3.7670 C.3     5  DC5         0.1558
     87  O3'       13.0240   11.5910   -4.9030 O.3     5  DC5        -0.3138
     88  C2'       12.8680   10.9270   -2.5220 C.3     5  DC5         0.0866
     89  C1'       12.0430   11.5830   -1.4040 C.3     5  DC5         0.2106
     90  N1        10.8520   10.8360   -0.9470 N.ar    5  DC5        -0.2556
     91  C2        11.1980    9.7520   -0.1330 C.ar    5  DC5         0.3531
     92  O2        12.3590    9.6800    0.3060 O.2     5  DC5        -0.2443
     93  N3        10.2620    8.8150    0.1510 N.ar    5  DC5        -0.1739
     94  C4         9.0290    8.9330   -0.3430 C.ar    5  DC5         0.1759
     95  N4         8.1400    7.9850   -0.0360 N.pl3   5  DC5        -0.1070
     96  C5         8.6580   10.0240   -1.1700 C.ar    5  DC5         0.0566
     97  C6         9.5860   10.9470   -1.4480 C.ar    5  DC5         0.0849
     98  P         13.3870   10.2830   -5.8850 P.3     6  DA6         0.2141
     99  OP1       14.4450   10.4670   -6.9090 O.2     6  DA6        -0.5172
    100  OP2       12.0520    9.8020   -6.3050 O.3     6  DA6        -0.4373
    101  O5'       13.9400    9.2770   -4.7890 O.3     6  DA6        -0.3114
    102  C5'       15.1700    9.5280   -4.1140 C.3     6  DA6         0.1811
    103  C4'       15.5980    8.2890   -3.3980 C.3     6  DA6         0.1746
    104  O4'       14.7940    8.1360   -2.2120 O.3     6  DA6        -0.3327
    105  C3'       15.3820    7.0510   -4.2390 C.3     6  DA6         0.1558
    106  O3'       16.6100    6.8530   -4.9250 O.3     6  DA6        -0.3138
    107  C2'       15.0390    5.9770   -3.2080 C.3     6  DA6         0.0865
    108  C1'       14.3610    6.7990   -2.0890 C.3     6  DA6         0.2094
    109  N9        12.9480    6.8560   -1.8720 N.ar    6  DA6        -0.2714
    110  C8        12.0040    7.6760   -2.4330 C.ar    6  DA6         0.1815
    111  N7        10.7930    7.1700   -2.4290 N.ar    6  DA6        -0.2193
    112  C5        10.9540    5.9330   -1.8250 C.ar    6  DA6         0.1518
    113  C6        10.0450    4.9040   -1.5200 C.ar    6  DA6         0.1919
    114  N6         8.7400    4.9650   -1.7950 N.pl3   6  DA6        -0.1054
    115  N1        10.5300    3.7980   -0.9160 N.ar    6  DA6        -0.2040
    116  C2        11.8380    3.7380   -0.6400 C.ar    6  DA6         0.2016
    117  N3        12.7890    4.6390   -0.8760 N.ar    6  DA6        -0.2048
    118  C4        12.2750    5.7250   -1.4770 C.ar    6  DA6         0.1691
    119  P         16.7670    5.9450   -6.3350 P.3     7  DG7         0.2141
    120  OP1       18.0900    5.7780   -7.0090 O.2     7  DG7        -0.5172
    121  OP2       15.4910    6.4140   -6.9830 O.3     7  DG7        -0.4373
    122  O5'       16.3880    4.6170   -5.5060 O.3     7  DG7        -0.3113
    123  C5'       17.4910    3.8730   -4.9840 C.3     7  DG7         0.1837
    124  C4'       17.0820    2.7570   -4.0580 C.3     7  DG7         0.2014
    125  O4'       16.1060    3.2690   -3.1400 O.3     7  DG7        -0.3300
    126  C3'       16.3050    1.6150   -4.6460 C.3     7  DG7         0.2569
    127  O3'       17.1740    0.7030   -5.1830 O.3     7  DG7        -0.1920
    128  C2'       15.6690    0.9810   -3.4420 C.3     7  DG7         0.1160
    129  C1'       15.1630    2.2610   -2.8060 C.3     7  DG7         0.2121
    130  N9        13.8380    2.6570   -3.3420 N.ar    7  DG7        -0.2713
    131  C8        13.6040    3.8240   -4.0280 C.ar    7  DG7         0.1816
    132  N7        12.3380    4.0360   -4.2660 N.ar    7  DG7        -0.2173
    133  C5        11.6960    2.9480   -3.7040 C.ar    7  DG7         0.1748
    134  C6        10.3180    2.6180   -3.6460 C.ar    7  DG7         0.3023
    135  O6         9.3580    3.2550   -4.1000 O.2     7  DG7        -0.2633
    136  N1        10.0980    1.4160   -2.9810 N.ar    7  DG7        -0.1709
    137  C2        11.0840    0.6280   -2.4380 C.ar    7  DG7         0.2606
    138  N2        10.6770   -0.4970   -1.8340 N.pl3   7  DG7        -0.0859
    139  N3        12.3690    0.9200   -2.4850 N.ar    7  DG7        -0.1918
    140  C4        12.6060    2.0830   -3.1270 C.ar    7  DG7         0.1722
    141  P         16.7190    0.1780   -6.6550 P.3     8  DC8         0.3681
    142  OP1       16.7690   -0.0940   -8.1120 O.3     8  DC8        -0.1446
    143  OP2       16.3090    1.5360   -6.1790 O.3     8  DC8        -0.2704
    144  O5'       15.7490   -0.9300   -6.0150 O.3     8  DC8        -0.2940
    145  C5'       16.3900   -1.8710   -5.1690 C.3     8  DC8         0.1827
    146  C4'       15.4060   -2.8090   -4.5550 C.3     8  DC8         0.1747
    147  O4'       14.3880   -2.0080   -3.9090 O.3     8  DC8        -0.3327
    148  C3'       14.6660   -3.6630   -5.5740 C.3     8  DC8         0.1558
    149  O3'       15.4130   -4.8020   -6.0140 O.3     8  DC8        -0.3138
    150  C2'       13.4920   -4.0530   -4.7000 C.3     8  DC8         0.0866
    151  C1'       13.1720   -2.7090   -4.0130 C.3     8  DC8         0.2106
    152  N1        12.1330   -1.7400   -4.7240 N.ar    8  DC8        -0.2556
    153  C2        10.7620   -1.9890   -4.5910 C.ar    8  DC8         0.3531
    154  O2        10.3930   -2.9340   -3.8740 O.2     8  DC8        -0.2443
    155  N3         9.8820   -1.1960   -5.2470 N.ar    8  DC8        -0.1739
    156  C4        10.3250   -0.1940   -6.0070 C.ar    8  DC8         0.1759
    157  N4         9.4200    0.5610   -6.6350 N.pl3   8  DC8        -0.1070
    158  C5        11.7100    0.0750   -6.1550 C.ar    8  DC8         0.0566
    159  C6        12.5760   -0.7110   -5.5050 C.ar    8  DC8         0.0849
    160  P         15.2350   -5.3810   -7.5450 P.3     9  DT9         0.2141
    161  OP1       16.4690   -5.8630   -8.2050 O.3     9  DT9        -0.4373
    162  OP2       14.2010   -4.6870   -8.3470 O.2     9  DT9        -0.5172
    163  O5'       14.4560   -6.6130   -6.8810 O.3     9  DT9        -0.3114
    164  C5'       13.4370   -7.3050   -7.5860 C.3     9  DT9         0.1811
    165  C4'       12.2910   -7.6290   -6.6640 C.3     9  DT9         0.1746
    166  O4'       11.8160   -6.4040   -6.0480 O.3     9  DT9        -0.3327
    167  C3'       11.0350   -8.1940   -7.3040 C.3     9  DT9         0.1558
    168  O3'       11.1240   -9.5590   -7.6660 O.3     9  DT9        -0.3138
    169  C2'       10.0080   -7.8940   -6.2240 C.3     9  DT9         0.0866
    170  C1'       10.4150   -6.4630   -5.8780 C.3     9  DT9         0.2106
    171  N1         9.7360   -5.2710   -6.8640 N.ar    9  DT9        -0.2559
    172  C2         8.3730   -5.0440   -6.8380 C.ar    9  DT9         0.3545
    173  O2         7.5820   -5.8070   -6.3120 O.2     9  DT9        -0.2443
    174  N3         7.9650   -3.8850   -7.4540 N.ar    9  DT9        -0.1533
    175  C4         8.7650   -2.9520   -8.0790 C.ar    9  DT9         0.2804
    176  O4         8.2520   -1.9590   -8.5880 O.2     9  DT9        -0.2654
    177  C5        10.1680   -3.2590   -8.0650 C.ar    9  DT9         0.0534
    178  C6        10.5920   -4.3790   -7.4720 C.ar    9  DT9         0.0824
    179  C7        11.1210   -2.3040   -8.7210 C.3     9  DT9         0.0377
    180  P         11.0890   -9.5730   -8.8580 P.3    10  DT10        0.2141
    181  OP1       11.8280  -10.8000   -9.2540 O.3    10  DT10       -0.4373
    182  OP2       11.1600   -8.3630   -9.7050 O.2    10  DT10       -0.5172
    183  O5'        9.5500   -9.9380   -8.6830 O.3    10  DT10       -0.3114
    184  C5'        9.1250  -10.8240   -7.6580 C.3    10  DT10        0.1811
    185  C4'        7.6340  -10.7550   -7.5180 C.3    10  DT10        0.1746
    186  O4'        7.2640   -9.4470   -7.0110 O.3    10  DT10       -0.3327
    187  C3'        6.8610  -10.8730   -8.8210 C.3    10  DT10        0.1558
    188  O3'        6.7090  -12.2390   -9.1930 O.3    10  DT10       -0.3138
    189  C2'        5.5390  -10.2000   -8.4660 C.3    10  DT10        0.0866
    190  C1'        6.0170   -9.0630   -7.5600 C.3    10  DT10        0.2106
    191  N1         6.2130   -7.8110   -8.2260 N.ar   10  DT10       -0.2559
    192  C2         5.1510   -6.9330   -8.3300 C.ar   10  DT10        0.3545
    193  O2         4.0620   -7.1450   -7.8260 O.2    10  DT10       -0.2443
    194  N3         5.4080   -5.7930   -9.0520 N.ar   10  DT10       -0.1533
    195  C4         6.5950   -5.4490   -9.6650 C.ar   10  DT10        0.2804
    196  O4         6.6740   -4.3870  -10.2780 O.2    10  DT10       -0.2654
    197  C5         7.6490   -6.4120   -9.5120 C.ar   10  DT10        0.0534
    198  C6         7.4260   -7.5290   -8.8160 C.ar   10  DT10        0.0824
    199  C7         8.9800   -6.1300  -10.1440 C.3    10  DT10        0.0377
    200  P          6.3600  -12.6360  -10.8280 P.3    11  DA11        0.2141
    201  OP1        6.3980  -14.0680  -10.4560 O.3    11  DA11       -0.4373
    202  OP2        7.5270  -12.0030  -11.4810 O.2    11  DA11       -0.5172
    203  O5'        5.1560  -12.3670  -11.8500 O.3    11  DA11       -0.3114
    204  C5'        3.8270  -12.7920  -11.5750 C.3    11  DA11        0.1811
    205  C4'        2.8080  -11.8330  -12.1450 C.3    11  DA11        0.1746
    206  O4'        3.0870  -10.4920  -11.6700 O.3    11  DA11       -0.3327
    207  C3'        2.7640  -11.7210  -13.6640 C.3    11  DA11        0.1558
    208  O3'        1.8820  -12.6800  -14.2260 O.3    11  DA11       -0.3138
    209  C2'        2.3140  -10.2820  -13.9080 C.3    11  DA11        0.0865
    210  C1'        2.8480   -9.5410  -12.6820 C.3    11  DA11        0.2094
    211  N9         4.0270   -8.8310  -12.8980 N.ar   11  DA11       -0.2714
    212  C8         5.3080   -9.1900  -12.5700 C.ar   11  DA11        0.1815
    213  N7         6.2080   -8.2910  -12.8910 N.ar   11  DA11       -0.2193
    214  C5         5.4680   -7.2720  -13.4690 C.ar   11  DA11        0.1518
    215  C6         5.8350   -6.0310  -14.0190 C.ar   11  DA11        0.1919
    216  N6         7.0940   -5.5900  -14.0740 N.pl3  11  DA11       -0.1054
    217  N1         4.8510   -5.2500  -14.5140 N.ar   11  DA11       -0.2040
    218  C2         3.5900   -5.6930  -14.4580 C.ar   11  DA11        0.2016
    219  N3         3.1220   -6.8380  -13.9660 N.ar   11  DA11       -0.2048
    220  C4         4.1240   -7.5910  -13.4820 C.ar   11  DA11        0.1691
    221  P          2.0240  -13.4220  -15.5810 P.3    12  DT12        0.2141
    222  OP1        1.0290  -14.5180  -15.6860 O.2    12  DT12       -0.5172
    223  OP2        3.4010  -13.7150  -15.1090 O.3    12  DT12       -0.4373
    224  O5'        2.1070  -12.6710  -16.9780 O.3    12  DT12       -0.3114
    225  C5'        0.9530  -12.0300  -17.4860 C.3    12  DT12        0.1811
    226  C4'        1.3070  -10.7370  -18.1710 C.3    12  DT12        0.1746
    227  O4'        1.9290   -9.7950  -17.2540 O.3    12  DT12       -0.3327
    228  C3'        2.3120  -10.7770  -19.2960 C.3    12  DT12        0.1558
    229  O3'        1.8050  -11.3730  -20.4600 O.3    12  DT12       -0.3138
    230  C2'        2.6390   -9.3080  -19.4560 C.3    12  DT12        0.0866
    231  C1'        2.7200   -8.8740  -17.9980 C.3    12  DT12        0.2106
    232  N1         4.1210   -8.9700  -17.6360 N.ar   12  DT12       -0.2559
    233  C2         5.0380   -8.0020  -18.0000 C.ar   12  DT12        0.3545
    234  O2         4.8040   -7.1450  -18.8330 O.2    12  DT12       -0.2443
    235  N3         6.2470   -8.0740  -17.3510 N.ar   12  DT12       -0.1533
    236  C4         6.6220   -8.9960  -16.3960 C.ar   12  DT12        0.2804
    237  O4         7.7450   -8.9320  -15.9010 O.2    12  DT12       -0.2654
    238  C5         5.6160   -9.9680  -16.0730 C.ar   12  DT12        0.0534
    239  C6         4.4320   -9.9210  -16.6890 C.ar   12  DT12        0.0824
    240  C7         5.9290  -11.0150  -15.0450 C.3    12  DT12        0.0377
    241  P          2.5630  -12.7620  -20.7460 P.3    13  DT13        0.2141
    242  OP1        1.6810  -13.8660  -21.2630 O.2    13  DT13       -0.5172
    243  OP2        3.5000  -13.1320  -19.6200 O.3    13  DT13       -0.4373
    244  O5'        3.4930  -12.0490  -21.8680 O.3    13  DT13       -0.3114
    245  C5'        2.6260  -11.2470  -22.7420 C.3    13  DT13        0.1811
    246  C4'        3.4610  -10.0480  -23.1440 C.3    13  DT13        0.1746
    247  O4'        3.8520   -9.2930  -22.0140 O.3    13  DT13       -0.3327
    248  C3'        4.7740  -10.4110  -23.8240 C.3    13  DT13        0.1558
    249  O3'        4.5820  -10.8500  -25.1570 O.3    13  DT13       -0.3138
    250  C2'        5.5410   -9.1100  -23.6800 C.3    13  DT13        0.0866
    251  C1'        5.0960   -8.6660  -22.2890 C.3    13  DT13        0.2106
    252  N1         6.0440   -9.0100  -21.2910 N.ar   13  DT13       -0.2559
    253  C2         7.1850   -8.2590  -21.0810 C.ar   13  DT13        0.3545
    254  O2         7.4640   -7.2750  -21.7420 O.2    13  DT13       -0.2443
    255  N3         7.9930   -8.7040  -20.0630 N.ar   13  DT13       -0.1533
    256  C4         7.7800   -9.8000  -19.2530 C.ar   13  DT13        0.2804
    257  O4         8.5980  -10.0740  -18.3780 O.2    13  DT13       -0.2654
    258  C5         6.5750  -10.5280  -19.5340 C.ar   13  DT13        0.0534
    259  C6         5.7710  -10.1170  -20.5190 C.ar   13  DT13        0.0824
    260  C7         6.2540  -11.7370  -18.7070 C.3    13  DT13        0.0377
    261  P          5.7470  -11.8030  -26.0940 P.3    14  DC14        0.2141
    262  OP1        5.2150  -12.3700  -27.3560 O.2    14  DC14       -0.5172
    263  OP2        6.1980  -12.6890  -24.9900 O.3    14  DC14       -0.4373
    264  O5'        6.9650  -10.8480  -26.4930 O.3    14  DC14       -0.3114
    265  C5'        6.8180   -9.7350  -27.3500 C.3    14  DC14        0.1811
    266  C4'        8.1270   -8.9740  -27.3170 C.3    14  DC14        0.1746
    267  O4'        8.2220   -8.2360  -26.0740 O.3    14  DC14       -0.3327
    268  C3'        9.3710   -9.8510  -27.3200 C.3    14  DC14        0.1558
    269  O3'        9.6890  -10.2140  -28.6560 O.3    14  DC14       -0.3138
    270  C2'       10.3970   -8.9020  -26.7070 C.3    14  DC14        0.0866
    271  C1'        9.5720   -8.1750  -25.6480 C.3    14  DC14        0.2106
    272  N1         9.6440   -8.7870  -24.3370 N.ar   14  DC14       -0.2556
    273  C2        10.7620   -8.4960  -23.5470 C.ar   14  DC14        0.3531
    274  O2        11.5920   -7.6710  -23.9650 O.2    14  DC14       -0.2443
    275  N3        10.9070   -9.1220  -22.3540 N.ar   14  DC14       -0.1739
    276  C4         9.9920  -10.0010  -21.9460 C.ar   14  DC14        0.1759
    277  N4        10.1780  -10.5930  -20.7640 N.pl3  14  DC14       -0.1070
    278  C5         8.8520  -10.3100  -22.7320 C.ar   14  DC14        0.0566
    279  C6         8.7120   -9.6900  -23.9090 C.ar   14  DC14        0.0849
    280  P         10.8170  -11.3620  -29.0300 P.3    15  DA15        0.2141
    281  OP1       10.9540  -11.1050  -30.4880 O.2    15  DA15       -0.5172
    282  OP2       10.4920  -12.7320  -28.5520 O.3    15  DA15       -0.4373
    283  O5'       12.1510  -10.8770  -28.3020 O.3    15  DA15       -0.3114
    284  C5'       12.7550   -9.6150  -28.6370 C.3    15  DA15        0.1811
    285  C4'       13.9180   -9.3260  -27.7190 C.3    15  DA15        0.1746
    286  O4'       13.4360   -9.0770  -26.3750 O.3    15  DA15       -0.3327
    287  C3'       14.9400  -10.4390  -27.5600 C.3    15  DA15        0.1558
    288  O3'       15.8950  -10.4430  -28.6160 O.3    15  DA15       -0.3138
    289  C2'       15.5770  -10.1260  -26.2090 C.3    15  DA15        0.0865
    290  C1'       14.3990   -9.5260  -25.4340 C.3    15  DA15        0.2094
    291  N9        13.7520  -10.4590  -24.5180 N.ar   15  DA15       -0.2714
    292  C8        12.6830  -11.2910  -24.7250 C.ar   15  DA15        0.1815
    293  N7        12.3830  -12.0360  -23.6880 N.ar   15  DA15       -0.2193
    294  C5        13.3190  -11.6690  -22.7340 C.ar   15  DA15        0.1518
    295  C6        13.5400  -12.0950  -21.4120 C.ar   15  DA15        0.1919
    296  N6        12.7990  -13.0210  -20.8010 N.pl3  15  DA15       -0.1054
    297  N1        14.5610  -11.5280  -20.7340 N.ar   15  DA15       -0.2040
    298  C2        15.3020  -10.5990  -21.3480 C.ar   15  DA15        0.2016
    299  N3        15.1920  -10.1170  -22.5830 N.ar   15  DA15       -0.2048
    300  C4        14.1700  -10.7000  -23.2310 C.ar   15  DA15        0.1691
    301  P         16.8460  -11.7870  -28.8750 P.3    16  DA16        0.2141
    302  OP1       17.8190  -11.7060  -29.9870 O.2    16  DA16       -0.5172
    303  OP2       15.7840  -12.8210  -28.8260 O.3    16  DA16       -0.4373
    304  O5'       17.6920  -12.0060  -27.5410 O.3    16  DA16       -0.3114
    305  C5'       18.9670  -11.3870  -27.4570 C.3    16  DA16        0.1811
    306  C4'       19.4390  -11.3250  -26.0300 C.3    16  DA16        0.1746
    307  O4'       18.2970  -11.0890  -25.1660 O.3    16  DA16       -0.3327
    308  C3'       20.0630  -12.5980  -25.4810 C.3    16  DA16        0.1558
    309  O3'       21.4320  -12.7270  -25.8240 O.3    16  DA16       -0.3138
    310  C2'       19.8370  -12.4640  -23.9820 C.3    16  DA16        0.0865
    311  C1'       18.5090  -11.7070  -23.9170 C.3    16  DA16        0.2094
    312  N9        17.4430  -12.6090  -23.6090 N.ar   16  DA16       -0.2714
    313  C8        16.4490  -12.9600  -24.4850 C.ar   16  DA16        0.1815
    314  N7        15.4890  -13.6680  -23.9380 N.ar   16  DA16       -0.2193
    315  C5        15.8790  -13.7900  -22.6140 C.ar   16  DA16        0.1518
    316  C6        15.2890  -14.4280  -21.5090 C.ar   16  DA16        0.1919
    317  N6        14.1310  -15.0890  -21.5690 N.pl3  16  DA16       -0.1054
    318  N1        15.9380  -14.3630  -20.3270 N.ar   16  DA16       -0.2040
    319  C2        17.0990  -13.6990  -20.2680 C.ar   16  DA16        0.2016
    320  N3        17.7520  -13.0590  -21.2360 N.ar   16  DA16       -0.2048
    321  C4        17.0810  -13.1440  -22.3970 C.ar   16  DA16        0.1691
    322  P         22.0310  -14.1760  -26.0280 P.3    17  DT17        0.2141
    323  OP1       23.4390  -14.2310  -26.4780 O.3    17  DT17       -0.4373
    324  OP2       20.9920  -14.9380  -26.7690 O.2    17  DT17       -0.5172
    325  O5'       21.9730  -14.6160  -24.4960 O.3    17  DT17       -0.3114
    326  C5'       22.7100  -13.8850  -23.5280 C.3    17  DT17        0.1811
    327  C4'       22.5740  -14.4780  -22.1410 C.3    17  DT17        0.1746
    328  O4'       21.1970  -14.2920  -21.6890 O.3    17  DT17       -0.3327
    329  C3'       22.8330  -15.9810  -22.1140 C.3    17  DT17        0.1558
    330  O3'       24.1160  -16.4540  -21.7420 O.3    17  DT17       -0.3138
    331  C2'       21.6460  -16.6510  -21.4350 C.3    17  DT17        0.0866
    332  C1'       20.6550  -15.5170  -21.2310 C.3    17  DT17        0.2106
    333  N1        19.5170  -15.8160  -21.9320 N.ar   17  DT17       -0.2559
    334  C2        18.7130  -16.8130  -21.4130 C.ar   17  DT17        0.3545
    335  O2        18.8860  -17.2980  -20.3090 O.2    17  DT17       -0.2443
    336  N3        17.6950  -17.2270  -22.2380 N.ar   17  DT17       -0.1533
    337  C4        17.4050  -16.7530  -23.5010 C.ar   17  DT17        0.2804
    338  O4        16.4550  -17.2240  -24.1200 O.2    17  DT17       -0.2654
    339  C5        18.2850  -15.7200  -23.9690 C.ar   17  DT17        0.0534
    340  C6        19.2840  -15.2990  -23.1880 C.ar   17  DT17        0.0824
    341  C7        18.0530  -15.1400  -25.3330 C.3    17  DT17        0.0377
    342  P         24.6290  -17.9070  -22.2940 P.3    18  DT18        0.2141
    343  OP1       26.0130  -17.8250  -21.7380 O.3    18  DT18       -0.4373
    344  OP2       24.4140  -18.1530  -23.7520 O.2    18  DT18       -0.5172
    345  O5'       23.8580  -19.0380  -21.4960 O.3    18  DT18       -0.3114
    346  C5'       24.3350  -19.4770  -20.2320 C.3    18  DT18        0.1811
    347  C4'       23.5570  -20.6800  -19.7900 C.3    18  DT18        0.1746
    348  O4'       22.1720  -20.2910  -19.5940 O.3    18  DT18       -0.3327
    349  C3'       23.4950  -21.7920  -20.8220 C.3    18  DT18        0.1558
    350  O3'       24.5890  -22.6700  -20.7330 O.3    18  DT18       -0.3138
    351  C2'       22.2060  -22.5100  -20.4720 C.3    18  DT18        0.0866
    352  C1'       21.3180  -21.3400  -20.0220 C.3    18  DT18        0.2106
    353  N1        20.5050  -20.8220  -21.1570 N.ar   18  DT18       -0.2559
    354  C2        19.3540  -21.5260  -21.4580 C.ar   18  DT18        0.3545
    355  O2        18.9560  -22.4650  -20.7910 O.2    18  DT18       -0.2443
    356  N3        18.6810  -21.0890  -22.5730 N.ar   18  DT18       -0.1533
    357  C4        19.0350  -20.0440  -23.4000 C.ar   18  DT18        0.2804
    358  O4        18.3280  -19.7700  -24.3660 O.2    18  DT18       -0.2654
    359  C5        20.2420  -19.3640  -23.0220 C.ar   18  DT18        0.0534
    360  C6        20.9160  -19.7670  -21.9420 C.ar   18  DT18        0.0824
    361  C7        20.7120  -18.2120  -23.8600 C.3    18  DT18        0.0377
    362  P         24.9380  -23.7010  -22.0190 P.3    19  DA19        0.2141
    363  OP1       26.2230  -24.2580  -21.5290 O.3    19  DA19       -0.4373
    364  OP2       24.9530  -22.6080  -23.0270 O.2    19  DA19       -0.5172
    365  O5'       24.0700  -24.9060  -22.6010 O.3    19  DA19       -0.3114
    366  C5'       23.8330  -26.0760  -21.8180 C.3    19  DA19        0.1811
    367  C4'       22.6650  -26.8600  -22.3710 C.3    19  DA19        0.1746
    368  O4'       21.4390  -26.0960  -22.2240 O.3    19  DA19       -0.3327
    369  C3'       22.7220  -27.2030  -23.8510 C.3    19  DA19        0.1558
    370  O3'       23.5150  -28.3540  -24.1030 O.3    19  DA19       -0.3138
    371  C2'       21.2530  -27.4110  -24.2060 C.3    19  DA19        0.0865
    372  C1'       20.5650  -26.3900  -23.2980 C.3    19  DA19        0.2094
    373  N9        20.2860  -25.1080  -24.0260 N.ar   19  DA19       -0.2714
    374  C8        21.0600  -23.9780  -24.0840 C.ar   19  DA19        0.1815
    375  N7        20.5370  -23.0160  -24.8070 N.ar   19  DA19       -0.2193
    376  C5        19.3400  -23.5510  -25.2560 C.ar   19  DA19        0.1518
    377  C6        18.3180  -23.0320  -26.0690 C.ar   19  DA19        0.1919
    378  N6        18.3430  -21.8050  -26.5950 N.pl3  19  DA19       -0.1054
    379  N1        17.2570  -23.8260  -26.3260 N.ar   19  DA19       -0.2040
    380  C2        17.2320  -25.0560  -25.7980 C.ar   19  DA19        0.2016
    381  N3        18.1310  -25.6540  -25.0190 N.ar   19  DA19       -0.2048
    382  C4        19.1720  -24.8390  -24.7840 C.ar   19  DA19        0.1691
    383  P         24.2810  -28.4870  -25.4420 P.3    20  DA20        0.2141
    384  OP1       24.8820  -29.8280  -25.2410 O.3    20  DA20       -0.4373
    385  OP2       25.0480  -27.3830  -26.0680 O.2    20  DA20       -0.5172
    386  O5'       23.0180  -28.6750  -26.3860 O.3    20  DA20       -0.3114
    387  C5'       22.3320  -29.8850  -26.1610 C.3    20  DA20        0.1811
    388  C4'       21.1740  -29.9500  -27.0970 C.3    20  DA20        0.1746
    389  O4'       20.2770  -28.8500  -26.8120 O.3    20  DA20       -0.3327
    390  C3'       21.5250  -29.7380  -28.5520 C.3    20  DA20        0.1558
    391  O3'       22.0760  -30.9010  -29.1380 O.3    20  DA20       -0.3138
    392  C2'       20.1760  -29.3260  -29.1210 C.3    20  DA20        0.0865
    393  C1'       19.6610  -28.4270  -28.0050 C.3    20  DA20        0.2094
    394  N9        19.9260  -26.9540  -28.1490 N.ar   20  DA20       -0.2714
    395  C8        20.9810  -26.2030  -27.6990 C.ar   20  DA20        0.1815
    396  N7        20.9370  -24.9480  -28.0810 N.ar   20  DA20       -0.2193
    397  C5        19.7750  -24.8700  -28.8330 C.ar   20  DA20        0.1518
    398  C6        19.1610  -23.8070  -29.5170 C.ar   20  DA20        0.1919
    399  N6        19.6560  -22.5680  -29.5550 N.pl3  20  DA20       -0.1054
    400  N1        18.0080  -24.0650  -30.1700 N.ar   20  DA20       -0.2040
    401  C2        17.5120  -25.3070  -30.1310 C.ar   20  DA20        0.2016
    402  N3        17.9960  -26.3870  -29.5220 N.ar   20  DA20       -0.2048
    403  C4        19.1430  -26.0980  -28.8840 C.ar   20  DA20        0.1691
    404  P         23.2090  -30.7580  -30.6030 P.3    21  DT21        0.2141
    405  OP1       23.6360  -32.1550  -30.8570 O.2    21  DT21       -0.5172
    406  OP2       24.2190  -29.6680  -30.5990 O.3    21  DT21       -0.4373
    407  O5'       22.0440  -30.3820  -31.6190 O.3    21  DT21       -0.3114
    408  C5'       21.1030  -31.3730  -32.0270 C.3    21  DT21        0.1811
    409  C4'       20.0830  -30.7850  -32.9770 C.3    21  DT21        0.1746
    410  O4'       19.2210  -29.8470  -32.2640 O.3    21  DT21       -0.3327
    411  C3'       20.6110  -29.9930  -34.1690 C.3    21  DT21        0.1558
    412  O3'       21.1230  -30.8860  -35.1680 O.3    21  DT21       -0.3138
    413  C2'       19.3830  -29.1570  -34.5110 C.3    21  DT21        0.0866
    414  C1'       18.9350  -28.7410  -33.1030 C.3    21  DT21        0.2106
    415  N1        19.6780  -27.5420  -32.5420 N.ar   21  DT21       -0.2559
    416  C2        19.1350  -26.3060  -32.8390 C.ar   21  DT21        0.3545
    417  O2        18.0840  -26.1700  -33.4400 O.2    21  DT21       -0.2443
    418  N3        19.8700  -25.2300  -32.4060 N.ar   21  DT21       -0.1533
    419  C4        21.0670  -25.2640  -31.7210 C.ar   21  DT21        0.2804
    420  O4        21.6090  -24.2100  -31.3970 O.2    21  DT21       -0.2654
    421  C5        21.5660  -26.5830  -31.4510 C.ar   21  DT21        0.0534
    422  C6        20.8710  -27.6480  -31.8610 C.ar   21  DT21        0.0824
    423  C7        22.8630  -26.7260  -30.7110 C.3    21  DT21        0.0377
    424  P         20.8560  -30.1240  -36.8460 P.3    22  DC22        0.2141
    425  OP1       20.9920  -31.2720  -37.7770 O.2    22  DC22       -0.5172
    426  OP2       22.0380  -29.2740  -36.5500 O.3    22  DC22       -0.4373
    427  O5'       19.6850  -29.1870  -37.3800 O.3    22  DC22       -0.3114
    428  C5'       19.9770  -27.9650  -38.0470 C.3    22  DC22        0.1811
    429  C4'       19.8490  -26.8140  -37.0830 C.3    22  DC22        0.1746
    430  O4'       20.6910  -27.0740  -35.9320 O.3    22  DC22       -0.3327
    431  C3'       20.3120  -25.4640  -37.6040 C.3    22  DC22        0.1558
    432  O3'       19.2590  -24.8190  -38.3080 O.3    22  DC22       -0.3138
    433  C2'       20.6830  -24.7300  -36.3200 C.3    22  DC22        0.0866
    434  C1'       21.2770  -25.8660  -35.4790 C.3    22  DC22        0.2106
    435  N1        22.6090  -25.8450  -35.3780 N.ar   22  DC22       -0.2556
    436  C2        23.3590  -24.8540  -34.7340 C.ar   22  DC22        0.3531
    437  O2        22.7870  -23.8100  -34.3750 O.2    22  DC22       -0.2443
    438  N3        24.6810  -25.0600  -34.5230 N.ar   22  DC22       -0.1739
    439  C4        25.2520  -26.1950  -34.9270 C.ar   22  DC22        0.1759
    440  N4        26.5570  -26.3540  -34.6970 N.pl3  22  DC22       -0.1070
    441  C5        24.5100  -27.2120  -35.5810 C.ar   22  DC22        0.0566
    442  C6        23.2050  -27.0040  -35.7880 C.ar   22  DC22        0.0849
    443  P         19.4590  -23.1320  -38.7920 P.3    23  DG23        0.2141
    444  OP1       18.0440  -22.6990  -38.6220 O.3    23  DG23       -0.4373
    445  OP2       20.0230  -23.2770  -40.1610 O.2    23  DG23       -0.5172
    446  O5'       20.3320  -22.1040  -37.9430 O.3    23  DG23       -0.3114
    447  C5'       19.9200  -21.7540  -36.6190 C.3    23  DG23        0.1812
    448  C4'       20.6840  -20.5570  -36.1190 C.3    23  DG23        0.1775
    449  O4'       22.0680  -20.9060  -35.8790 O.3    23  DG23       -0.3326
    450  C3'       20.7700  -19.3700  -37.0510 C.3    23  DG23        0.1864
    451  O3'       19.5900  -18.5950  -37.0200 O.3    23  DG23       -0.2133
    452  C2'       21.9550  -18.6080  -36.4790 C.3    23  DG23        0.0894
    453  C1'       22.8740  -19.7560  -36.0570 C.3    23  DG23        0.2095
    454  N9        23.9000  -20.0680  -37.0990 N.ar   23  DG23       -0.2713
    455  C8        23.9110  -20.9660  -38.1390 C.ar   23  DG23        0.1816
    456  N7        24.8770  -20.7560  -38.9910 N.ar   23  DG23       -0.2173
    457  C5        25.5470  -19.6560  -38.4870 C.ar   23  DG23        0.1748
    458  C6        26.6820  -18.9610  -38.9780 C.ar   23  DG23        0.3023
    459  O6        27.3420  -19.1970  -39.9970 O.2    23  DG23       -0.2633
    460  N1        27.0350  -17.8950  -38.1550 N.ar   23  DG23       -0.1709
    461  C2        26.3760  -17.5420  -37.0020 C.ar   23  DG23        0.2606
    462  N2        26.8660  -16.4840  -36.3420 N.pl3  23  DG23       -0.0859
    463  N3        25.3200  -18.1770  -36.5340 N.ar   23  DG23       -0.1918
    464  C4        24.9580  -19.2160  -37.3170 C.ar   23  DG23        0.1722
    465  P         19.6160  -17.6800  -39.0030 P.3    24  DC24        0.3939
    466  OP1       19.5160  -18.0130  -37.5610 O.3    24  DC24       -0.1496
    467  OP2       18.4020  -17.5450  -39.8390 O.3    24  DC24       -0.1425
    468  O5'       20.3530  -16.2700  -39.1800 O.3    24  DC24       -0.2926
    469  C5'       21.0930  -15.7180  -38.0920 C.3    24  DC24        0.1829
    470  C4'       20.6500  -14.3100  -37.7770 C.3    24  DC24        0.1775
    471  O4'       20.9400  -13.4710  -38.9260 O.3    24  DC24       -0.3326
    472  C3'       19.1570  -14.1510  -37.4970 C.3    24  DC24        0.1864
    473  O3'       18.9320  -13.0870  -36.5720 O.3    24  DC24       -0.2133
    474  C2'       18.6030  -13.7320  -38.8510 C.3    24  DC24        0.0895
    475  C1'       19.7480  -12.8820  -39.4010 C.3    24  DC24        0.2107
    476  N1        19.4040  -12.8590  -40.7630 N.ar   24  DC24       -0.2556
    477  C2        20.2760  -12.0840  -41.5370 C.ar   24  DC24        0.3531
    478  O2        21.1860  -11.4590  -40.9670 O.2    24  DC24       -0.2443
    479  N3        20.1010  -12.0380  -42.8800 N.ar   24  DC24       -0.1739
    480  C4        19.1100  -12.7250  -43.4480 C.ar   24  DC24        0.1759
    481  N4        18.9770  -12.6490  -44.7740 N.pl3  24  DC24       -0.1070
    482  C5        18.2160  -13.5160  -42.6810 C.ar   24  DC24        0.0566
    483  C6        18.3920  -13.5590  -41.3560 C.ar   24  DC24        0.0849
    484  P         18.5930  -13.8590  -34.6730 P.3    25  DA25        0.3939
    485  OP1       18.0940  -12.5340  -35.1230 O.3    25  DA25       -0.1496
    486  OP2       19.5200  -13.9340  -33.5170 O.3    25  DA25       -0.1425
    487  O5'       17.3450  -14.7980  -34.3680 O.3    25  DA25       -0.2926
    488  C5'       16.2880  -14.9080  -35.3160 C.3    25  DA25        0.1828
    489  C4'       15.9270  -16.3540  -35.5570 C.3    25  DA25        0.1747
    490  O4'       17.1320  -17.1570  -35.5770 O.3    25  DA25       -0.3327
    491  C3'       15.0290  -17.0490  -34.5420 C.3    25  DA25        0.1558
    492  O3'       13.6550  -16.7690  -34.7990 O.3    25  DA25       -0.3138
    493  C2'       15.3460  -18.5180  -34.7960 C.3    25  DA25        0.0865
    494  C1'       16.8420  -18.4620  -35.1060 C.3    25  DA25        0.2094
    495  N9        17.4880  -18.8580  -33.8980 N.ar   25  DA25       -0.2714
    496  C8        18.3220  -17.9920  -33.2390 C.ar   25  DA25        0.1815
    497  N7        19.0710  -18.5680  -32.3290 N.ar   25  DA25       -0.2193
    498  C5        18.7030  -19.9030  -32.3940 C.ar   25  DA25        0.1518
    499  C6        19.1330  -21.0380  -31.6830 C.ar   25  DA25        0.1919
    500  N6        20.0660  -21.0030  -30.7290 N.pl3  25  DA25       -0.1054
    501  N1        18.5630  -22.2230  -31.9910 N.ar   25  DA25       -0.2040
    502  C2        17.6290  -22.2560  -32.9480 C.ar   25  DA25        0.2016
    503  N3        17.1440  -21.2600  -33.6850 N.ar   25  DA25       -0.2048
    504  C4        17.7290  -20.0970  -33.3540 C.ar   25  DA25        0.1691
    505  P         12.6590  -16.8460  -33.6380 P.3    26  DT26        0.2141
    506  OP1       11.5420  -16.2560  -34.4070 O.2    26  DT26       -0.5172
    507  OP2       12.9510  -16.4290  -32.2530 O.3    26  DT26       -0.4373
    508  O5'       12.4790  -18.4250  -33.5190 O.3    26  DT26       -0.3114
    509  C5'       11.4670  -19.1060  -34.2620 C.3    26  DT26        0.1811
    510  C4'       11.6550  -20.6080  -34.2060 C.3    26  DT26        0.1746
    511  O4'       13.0560  -20.9560  -34.4030 O.3    26  DT26       -0.3327
    512  C3'       11.3030  -21.1980  -32.8610 C.3    26  DT26        0.1558
    513  O3'        9.9320  -21.3970  -32.8480 O.3    26  DT26       -0.3138
    514  C2'       12.0830  -22.4930  -32.9500 C.3    26  DT26        0.0866
    515  C1'       13.3950  -22.0110  -33.5290 C.3    26  DT26        0.2106
    516  N1        14.3210  -21.5990  -32.4170 N.ar   26  DT26       -0.2559
    517  C2        15.0630  -22.5870  -31.7990 C.ar   26  DT26        0.3545
    518  O2        14.9330  -23.7720  -32.0510 O.2    26  DT26       -0.2443
    519  N3        15.9690  -22.1370  -30.8690 N.ar   26  DT26       -0.1533
    520  C4        16.2000  -20.8270  -30.5030 C.ar   26  DT26        0.2804
    521  O4        17.0490  -20.5780  -29.6500 O.2    26  DT26       -0.2654
    522  C5        15.3890  -19.8610  -31.1880 C.ar   26  DT26        0.0534
    523  C6        14.5010  -20.2710  -32.0980 C.ar   26  DT26        0.0824
    524  C7        15.5660  -18.4080  -30.8590 C.3    26  DT26        0.0377
    525  P          9.2860  -21.2950  -31.7200 P.3    27  DT27        0.2141
    526  OP1        7.8510  -21.3290  -32.1020 O.2    27  DT27       -0.5172
    527  OP2        9.8900  -20.0300  -31.2400 O.3    27  DT27       -0.4373
    528  O5'        9.5650  -22.4050  -30.6180 O.3    27  DT27       -0.3114
    529  C5'        9.1340  -23.7610  -30.7990 C.3    27  DT27        0.1811
    530  C4'        9.8130  -24.6440  -29.7900 C.3    27  DT27        0.1746
    531  O4'       11.2340  -24.6870  -30.0740 O.3    27  DT27       -0.3327
    532  C3'        9.7250  -24.1390  -28.3600 C.3    27  DT27        0.1558
    533  O3'        8.5020  -24.5780  -27.7610 O.3    27  DT27       -0.3138
    534  C2'       10.9430  -24.7850  -27.7050 C.3    27  DT27        0.0866
    535  C1'       11.9530  -24.8140  -28.8610 C.3    27  DT27        0.2106
    536  N1        12.9530  -23.8300  -28.9150 N.ar   27  DT27       -0.2559
    537  C2        14.0970  -24.0940  -28.1860 C.ar   27  DT27        0.3545
    538  O2        14.3650  -25.1990  -27.7490 O.2    27  DT27       -0.2443
    539  N3        14.9200  -23.0120  -27.9850 N.ar   27  DT27       -0.1533
    540  C4        14.7190  -21.7220  -28.4300 C.ar   27  DT27        0.2804
    541  O4        15.5510  -20.8560  -28.1700 O.2    27  DT27       -0.2654
    542  C5        13.5090  -21.5280  -29.1780 C.ar   27  DT27        0.0534
    543  C6        12.6900  -22.5630  -29.3880 C.ar   27  DT27        0.0824
    544  C7        13.2000  -20.1580  -29.7050 C.3    27  DT27        0.0377
    545  P          7.4010  -23.3550  -26.8750 P.3    28  DA28        0.2141
    546  OP1        6.0380  -23.9590  -26.6810 O.3    28  DA28       -0.4373
    547  OP2        7.4640  -21.8750  -26.7510 O.2    28  DA28       -0.5172
    548  O5'        8.4940  -24.0820  -26.0040 O.3    28  DA28       -0.3114
    549  C5'        8.2690  -25.5150  -25.8460 C.3    28  DA28        0.1811
    550  C4'        9.3400  -25.9020  -24.8480 C.3    28  DA28        0.1746
    551  O4'       10.6130  -25.8160  -25.4200 O.3    28  DA28       -0.3327
    552  C3'        9.4260  -24.9620  -23.6510 C.3    28  DA28        0.1558
    553  O3'        8.3850  -25.1680  -22.7220 O.3    28  DA28       -0.3138
    554  C2'       10.8190  -25.3570  -23.1320 C.3    28  DA28        0.0865
    555  C1'       11.6120  -25.4710  -24.4230 C.3    28  DA28        0.2094
    556  N9        12.1810  -24.1600  -24.7640 N.ar   28  DA28       -0.2714
    557  C8        11.6120  -23.1220  -25.4550 C.ar   28  DA28        0.1815
    558  N7        12.3100  -22.0120  -25.4100 N.ar   28  DA28       -0.2193
    559  C5        13.4110  -22.3430  -24.6360 C.ar   28  DA28        0.1518
    560  C6        14.5280  -21.6020  -24.2150 C.ar   28  DA28        0.1919
    561  N6        14.7260  -20.3200  -24.5300 N.pl3  28  DA28       -0.1054
    562  N1        15.4460  -22.2310  -23.4500 N.ar   28  DA28       -0.2040
    563  C2        15.2470  -23.5160  -23.1350 C.ar   28  DA28        0.2016
    564  N3        14.2390  -24.3180  -23.4710 N.ar   28  DA28       -0.2048
    565  C4        13.3440  -23.6630  -24.2300 C.ar   28  DA28        0.1691
    566  P          7.8230  -24.3880  -21.4750 P.3    29  DC29        0.2141
    567  OP1        6.6840  -25.0480  -20.7810 O.3    29  DC29       -0.4373
    568  OP2        7.6300  -23.0590  -22.1250 O.2    29  DC29       -0.5172
    569  O5'        9.0510  -24.2470  -20.4670 O.3    29  DC29       -0.3114
    570  C5'        9.4920  -25.3790  -19.7000 C.3    29  DC29        0.1811
    571  C4'       10.8340  -25.1160  -19.0470 C.3    29  DC29        0.1746
    572  O4'       11.8650  -24.9430  -20.0590 O.3    29  DC29       -0.3327
    573  C3'       10.9990  -23.8910  -18.1590 C.3    29  DC29        0.1558
    574  O3'       10.4370  -23.9970  -16.8530 O.3    29  DC29       -0.3138
    575  C2'       12.5180  -23.7430  -18.1170 C.3    29  DC29        0.0866
    576  C1'       12.9000  -24.1230  -19.5410 C.3    29  DC29        0.2106
    577  N1        12.9490  -22.8470  -20.4000 N.ar   29  DC29       -0.2556
    578  C2        14.0800  -22.0420  -20.2240 C.ar   29  DC29        0.3531
    579  O2        14.9950  -22.4490  -19.4880 O.2    29  DC29       -0.2443
    580  N3        14.1440  -20.8460  -20.8580 N.ar   29  DC29       -0.1739
    581  C4        13.1370  -20.4500  -21.6370 C.ar   29  DC29        0.1759
    582  N4        13.2440  -19.2640  -22.2410 N.pl3  29  DC29       -0.1070
    583  C5        11.9820  -21.2510  -21.8280 C.ar   29  DC29        0.0566
    584  C6        11.9230  -22.4310  -21.2010 C.ar   29  DC29        0.0849
    585  P         10.4240  -22.6160  -15.8500 P.3    30  DC30        0.2141
    586  OP1        9.7810  -23.1130  -14.6030 O.3    30  DC30       -0.4373
    587  OP2        9.6550  -21.8890  -16.8870 O.2    30  DC30       -0.5172
    588  O5'       11.6570  -21.6830  -15.4490 O.3    30  DC30       -0.3114
    589  C5'       12.5670  -22.1660  -14.4820 C.3    30  DC30        0.1811
    590  C4'       13.9120  -21.4670  -14.5560 C.3    30  DC30        0.1746
    591  O4'       14.5010  -21.5550  -15.8820 O.3    30  DC30       -0.3327
    592  C3'       13.8550  -19.9860  -14.2580 C.3    30  DC30        0.1558
    593  O3'       13.7660  -19.8350  -12.8400 O.3    30  DC30       -0.3138
    594  C2'       15.1650  -19.5270  -14.9040 C.3    30  DC30        0.0866
    595  C1'       15.2410  -20.3790  -16.1800 C.3    30  DC30        0.2106
    596  N1        14.6340  -19.8370  -17.4380 N.ar   30  DC30       -0.2556
    597  C2        15.4020  -18.8330  -18.0380 C.ar   30  DC30        0.3531
    598  O2        16.5330  -18.5930  -17.5830 O.2    30  DC30       -0.2443
    599  N3        14.8910  -18.1540  -19.0930 N.ar   30  DC30       -0.1739
    600  C4        13.6720  -18.4460  -19.5470 C.ar   30  DC30        0.1759
    601  N4        13.2100  -17.7500  -20.5890 N.pl3  30  DC30       -0.1070
    602  C5        12.8780  -19.4600  -18.9530 C.ar   30  DC30        0.0566
    603  C6        13.3860  -20.1270  -17.9110 C.ar   30  DC30        0.0849
    604  P         13.3990  -18.3620  -12.1650 P.3    31  DT31        0.2141
    605  OP1       13.3890  -18.3010  -10.6850 O.3    31  DT31       -0.4373
    606  OP2       12.1880  -18.0060  -12.9420 O.2    31  DT31       -0.5172
    607  O5'       14.5210  -17.3620  -12.7300 O.3    31  DT31       -0.3114
    608  C5'       15.8110  -17.3280  -12.1300 C.3    31  DT31        0.1811
    609  C4'       16.8780  -16.7800  -13.0490 C.3    31  DT31        0.1746
    610  O4'       16.7150  -17.3210  -14.3860 O.3    31  DT31       -0.3327
    611  C3'       16.8740  -15.2800  -13.2850 C.3    31  DT31        0.1558
    612  O3'       17.4230  -14.5290  -12.2150 O.3    31  DT31       -0.3138
    613  C2'       17.6690  -15.1740  -14.5770 C.3    31  DT31        0.0866
    614  C1'       17.1190  -16.3710  -15.3470 C.3    31  DT31        0.2106
    615  N1        16.0100  -16.0050  -16.2390 N.ar   31  DT31       -0.2559
    616  C2        16.1930  -15.2120  -17.3560 C.ar   31  DT31        0.3545
    617  O2        17.2580  -14.6910  -17.6340 O.2    31  DT31       -0.2443
    618  N3        15.0770  -15.0480  -18.1400 N.ar   31  DT31       -0.1533
    619  C4        13.8250  -15.5850  -17.9240 C.ar   31  DT31        0.2804
    620  O4        12.9190  -15.3480  -18.7200 O.2    31  DT31       -0.2654
    621  C5        13.7150  -16.3950  -16.7440 C.ar   31  DT31        0.0534
    622  C6        14.7850  -16.5720  -15.9640 C.ar   31  DT31        0.0824
    623  C7        12.3920  -17.0240  -16.4220 C.3    31  DT31        0.0377
    624  P         16.5410  -13.3460  -11.6110 P.3    32  DT32        0.2141
    625  OP1       17.1420  -12.9690  -10.3090 O.3    32  DT32       -0.4373
    626  OP2       15.0640  -13.3070  -11.7760 O.2    32  DT32       -0.5172
    627  O5'       17.1420  -12.4560  -12.7920 O.3    32  DT32       -0.3114
    628  C5'       18.5400  -12.2170  -12.8840 C.3    32  DT32        0.1811
    629  C4'       18.9040  -11.6970  -14.2560 C.3    32  DT32        0.1746
    630  O4'       18.3430  -12.5820  -15.2500 O.3    32  DT32       -0.3327
    631  C3'       18.4270  -10.3180  -14.6890 C.3    32  DT32        0.1558
    632  O3'       19.2860   -9.2700  -14.2550 O.3    32  DT32       -0.3138
    633  C2'       18.5170  -10.4110  -16.1990 C.3    32  DT32        0.0866
    634  C1'       18.1360  -11.8670  -16.4490 C.3    32  DT32        0.2106
    635  N1        16.7480  -11.9860  -16.7670 N.ar   32  DT32       -0.2559
    636  C2        16.2870  -11.7700  -18.0510 C.ar   32  DT32        0.3545
    637  O2        17.0010  -11.3780  -18.9570 O.2    32  DT32       -0.2443
    638  N3        14.9500  -12.0290  -18.2400 N.ar   32  DT32       -0.1533
    639  C4        14.0500  -12.4720  -17.2940 C.ar   32  DT32        0.2804
    640  O4        12.8790  -12.6600  -17.6150 O.2    32  DT32       -0.2654
    641  C5        14.6050  -12.6720  -15.9850 C.ar   32  DT32        0.0534
    642  C6        15.9010  -12.4280  -15.7740 C.ar   32  DT32        0.0824
    643  C7        13.7050  -13.1530  -14.8860 C.3    32  DT32        0.0377
    644  P         18.8360   -7.7390  -14.4320 P.3    33  DA33        0.2141
    645  OP1       19.7210   -6.7030  -13.8440 O.2    33  DA33       -0.5172
    646  OP2       17.6060   -8.1210  -13.7080 O.3    33  DA33       -0.4373
    647  O5'       18.4350   -7.3010  -15.9110 O.3    33  DA33       -0.3114
    648  C5'       19.4150   -7.0190  -16.8990 C.3    33  DA33        0.1811
    649  C4'       18.7170   -6.4110  -18.0940 C.3    33  DA33        0.1746
    650  O4'       18.0360   -7.4570  -18.8250 O.3    33  DA33       -0.3327
    651  C3'       17.6260   -5.4060  -17.7420 C.3    33  DA33        0.1558
    652  O3'       18.1770   -4.0870  -17.5680 O.3    33  DA33       -0.3138
    653  C2'       16.7420   -5.4960  -18.9820 C.3    33  DA33        0.0865
    654  C1'       16.7560   -6.9980  -19.2290 C.3    33  DA33        0.2094
    655  N9        15.6370   -7.7370  -18.5720 N.ar   33  DA33       -0.2714
    656  C8        15.6400   -8.3890  -17.3660 C.ar   33  DA33        0.1815
    657  N7        14.4910   -8.9440  -17.0620 N.ar   33  DA33       -0.2193
    658  C5        13.6780   -8.6350  -18.1410 C.ar   33  DA33        0.1518
    659  C6        12.3350   -8.9350  -18.4300 C.ar   33  DA33        0.1919
    660  N6        11.5450   -9.6440  -17.6200 N.pl3  33  DA33       -0.1054
    661  N1        11.8260   -8.4750  -19.5930 N.ar   33  DA33       -0.2040
    662  C2        12.6190   -7.7650  -20.4050 C.ar   33  DA33        0.2016
    663  N3        13.8940   -7.4200  -20.2430 N.ar   33  DA33       -0.2048
    664  C4        14.3690   -7.8910  -19.0780 C.ar   33  DA33        0.1691
    665  P         17.4790   -2.8440  -16.5360 P.3    34  DT34        0.2141
    666  OP1       18.4030   -1.9830  -15.7620 O.3    34  DT34       -0.4373
    667  OP2       16.1070   -3.0990  -16.0430 O.2    34  DT34       -0.5172
    668  O5'       17.2740   -2.2570  -18.0100 O.3    34  DT34       -0.3114
    669  C5'       16.1820   -1.3790  -18.2050 C.3    34  DT34        0.1811
    670  C4'       15.4680   -1.6200  -19.5070 C.3    34  DT34        0.1746
    671  O4'       15.3870   -3.0360  -19.8100 O.3    34  DT34       -0.3327
    672  C3'       14.0090   -1.2080  -19.5020 C.3    34  DT34        0.1558
    673  O3'       13.8030    0.1900  -19.5160 O.3    34  DT34       -0.3138
    674  C2'       13.4710   -1.9690  -20.7000 C.3    34  DT34        0.0866
    675  C1'       14.1470   -3.3120  -20.4370 C.3    34  DT34        0.2106
    676  N1        13.0630   -4.0340  -19.5140 N.ar   34  DT34       -0.2559
    677  C2        11.9360   -4.6030  -20.0770 C.ar   34  DT34        0.3545
    678  O2        11.5050   -4.2800  -21.1700 O.2    34  DT34       -0.2443
    679  N3        11.3280   -5.5680  -19.3110 N.ar   34  DT34       -0.1533
    680  C4        11.7250   -6.0110  -18.0670 C.ar   34  DT34        0.2804
    681  O4        11.0750   -6.8870  -17.5010 O.2    34  DT34       -0.2654
    682  C5        12.9020   -5.3720  -17.5500 C.ar   34  DT34        0.0534
    683  C6        13.5130   -4.4300  -18.2740 C.ar   34  DT34        0.0824
    684  C7        13.4130   -5.7850  -16.2020 C.3    34  DT34        0.0377
    685  P         13.3140    0.7250  -18.2180 P.3    35  DA35        0.2141
    686  OP1       13.4190    2.2000  -18.2750 O.2    35  DA35       -0.5172
    687  OP2       13.3790    0.0400  -16.9050 O.3    35  DA35       -0.4373
    688  O5'       11.9720    0.2990  -18.9830 O.3    35  DA35       -0.3114
    689  C5'       11.6250    1.0110  -20.1560 C.3    35  DA35        0.1811
    690  C4'       10.3720    0.4320  -20.7790 C.3    35  DA35        0.1746
    691  O4'       10.4740   -1.0090  -20.8850 O.3    35  DA35       -0.3327
    692  C3'        9.1030    0.6430  -19.9810 C.3    35  DA35        0.1558
    693  O3'        8.6320    1.9340  -20.2500 O.3    35  DA35       -0.3138
    694  C2'        8.2330   -0.4140  -20.6370 C.3    35  DA35        0.0865
    695  C1'        9.1980   -1.5880  -20.6970 C.3    35  DA35        0.2094
    696  N9         9.2350   -2.3360  -19.4770 N.ar   35  DA35       -0.2714
    697  C8        10.2620   -2.3690  -18.5710 C.ar   35  DA35        0.1815
    698  N7        10.1040   -3.2630  -17.6240 N.ar   35  DA35       -0.2193
    699  C5         8.8900   -3.8580  -17.9280 C.ar   35  DA35        0.1518
    700  C6         8.1560   -4.8840  -17.3070 C.ar   35  DA35        0.1919
    701  N6         8.5610   -5.5180  -16.2040 N.pl3  35  DA35       -0.1054
    702  N1         6.9800   -5.2400  -17.8660 N.ar   35  DA35       -0.2040
    703  C2         6.5760   -4.6050  -18.9720 C.ar   35  DA35        0.2016
    704  N3         7.1770   -3.6280  -19.6470 N.ar   35  DA35       -0.2048
    705  C4         8.3420   -3.2960  -19.0660 C.ar   35  DA35        0.1691
    706  P          7.7990    2.6450  -19.1500 P.3    36  DC36        0.2141
    707  OP1        7.5990    4.0970  -19.3630 O.2    36  DC36       -0.5172
    708  OP2        8.7500    2.1960  -18.1050 O.3    36  DC36       -0.4373
    709  O5'        6.3810    1.9390  -18.8640 O.3    36  DC36       -0.3114
    710  C5'        5.2750    2.2280  -19.7230 C.3    36  DC36        0.1811
    711  C4'        4.1020    1.2970  -19.5060 C.3    36  DC36        0.1746
    712  O4'        4.5050   -0.0750  -19.7070 O.3    36  DC36       -0.3327
    713  C3'        3.5310    1.3200  -18.1040 C.3    36  DC36        0.1558
    714  O3'        2.6170    2.3820  -18.0110 O.3    36  DC36       -0.3138
    715  C2'        2.8540   -0.0490  -18.0110 C.3    36  DC36        0.0866
    716  C1'        3.8280   -0.9240  -18.7910 C.3    36  DC36        0.2106
    717  N1         4.8170   -1.6370  -17.9180 N.ar   36  DC36       -0.2556
    718  C2         4.5170   -2.8480  -17.2850 C.ar   36  DC36        0.3531
    719  O2         3.3870   -3.3400  -17.4400 O.2    36  DC36       -0.2443
    720  N3         5.4640   -3.4460  -16.5220 N.ar   36  DC36       -0.1739
    721  C4         6.6640   -2.8800  -16.3830 C.ar   36  DC36        0.1759
    722  N4         7.5650   -3.5060  -15.6220 N.pl3  36  DC36       -0.1070
    723  C5         6.9870   -1.6530  -17.0160 C.ar   36  DC36        0.0566
    724  C6         6.0500   -1.0660  -17.7680 C.ar   36  DC36        0.0849
    725  P          2.4460    3.0040  -16.7600 P.3    37  DC37        0.2141
    726  OP1        1.6620    4.2610  -16.6340 O.2    37  DC37       -0.5172
    727  OP2        3.8190    2.9280  -16.1860 O.3    37  DC37       -0.4373
    728  O5'        1.5770    1.8190  -16.1390 O.3    37  DC37       -0.3114
    729  C5'        0.2120    1.5940  -16.5570 C.3    37  DC37        0.1811
    730  C4'       -0.4230    0.5000  -15.7250 C.3    37  DC37        0.1746
    731  O4'        0.2470   -0.7630  -15.9700 O.3    37  DC37       -0.3327
    732  C3'       -0.3390    0.6970  -14.2190 C.3    37  DC37        0.1558
    733  O3'       -1.3960    1.5300  -13.7530 O.3    37  DC37       -0.3138
    734  C2'       -0.4290   -0.7270  -13.6820 C.3    37  DC37        0.0866
    735  C1'        0.3010   -1.5180  -14.7710 C.3    37  DC37        0.2106
    736  N1         1.7300   -1.7870  -14.4710 N.ar   37  DC37       -0.2556
    737  C2         1.9930   -2.8580  -13.6100 C.ar   37  DC37        0.3531
    738  O2         1.0470   -3.5770  -13.2430 O.2    37  DC37       -0.2443
    739  N3         3.2650   -3.0790  -13.2010 N.ar   37  DC37       -0.1739
    740  C4         4.2480   -2.2810  -13.6200 C.ar   37  DC37        0.1759
    741  N4         5.4860   -2.5370  -13.1910 N.pl3  37  DC37       -0.1070
    742  C5         4.0020   -1.1900  -14.4930 C.ar   37  DC37        0.0566
    743  C6         2.7450   -0.9760  -14.8940 C.ar   37  DC37        0.0849
    744  P         -1.2480    2.3420  -12.2910 P.3    38  DA38        0.2141
    745  OP1       -2.3380    3.2950  -12.0620 O.2    38  DA38       -0.5172
    746  OP2        0.1660    2.6620  -11.8560 O.3    38  DA38       -0.4373
    747  O5'       -1.6440    0.9710  -11.5680 O.3    38  DA38       -0.3114
    748  C5'       -2.2270    0.9730  -10.2640 C.3    38  DA38        0.1811
    749  C4'       -2.0830   -0.3950   -9.6560 C.3    38  DA38        0.1746
    750  O4'       -1.0870   -1.0070  -10.4910 O.3    38  DA38       -0.3327
    751  C3'       -1.4000   -0.5820   -8.3280 C.3    38  DA38        0.1558
    752  O3'       -2.2760   -0.3730   -7.1920 O.3    38  DA38       -0.3138
    753  C2'       -0.9780   -2.0380   -8.4640 C.3    38  DA38        0.0865
    754  C1'       -0.3540   -2.0110   -9.8180 C.3    38  DA38        0.2094
    755  N9         0.9150   -1.8470   -9.9350 N.ar   38  DA38       -0.2714
    756  C8         1.4430   -0.7690  -10.5970 C.ar   38  DA38        0.1815
    757  N7         2.7430   -0.8360  -10.7640 N.ar   38  DA38       -0.2193
    758  C5         3.0920   -2.0390  -10.1700 C.ar   38  DA38        0.1518
    759  C6         4.3260   -2.6920  -10.0120 C.ar   38  DA38        0.1919
    760  N6         5.4850   -2.2020  -10.4590 N.pl3  38  DA38       -0.1054
    761  N1         4.3290   -3.8800   -9.3710 N.ar   38  DA38       -0.2040
    762  C2         3.1670   -4.3710   -8.9240 C.ar   38  DA38        0.2016
    763  N3         1.9450   -3.8520   -9.0130 N.ar   38  DA38       -0.2048
    764  C4         1.9770   -2.6720   -9.6540 C.ar   38  DA38        0.1691
    765  P         -1.5290    0.3610   -5.9590 P.3    39  DG39        0.2141
    766  OP1       -2.5390    0.6110   -4.8910 O.3    39  DG39       -0.4373
    767  OP2       -0.6310    1.4600   -6.3850 O.2    39  DG39       -0.5172
    768  O5'       -0.6010   -0.8610   -5.5200 O.3    39  DG39       -0.3114
    769  C5'       -1.1740   -2.1400   -5.1720 C.3    39  DG39        0.1811
    770  C4'       -0.1300   -3.0530   -4.5740 C.3    39  DG39        0.1746
    771  O4'        0.8750   -3.3810   -5.5610 O.3    39  DG39       -0.3327
    772  C3'        0.6660   -2.4730   -3.4210 C.3    39  DG39        0.1558
    773  O3'       -0.0280   -2.5400   -2.1830 O.3    39  DG39       -0.3138
    774  C2'        1.9330   -3.3100   -3.4370 C.3    39  DG39        0.0865
    775  C1'        2.1380   -3.5120   -4.9310 C.3    39  DG39        0.2094
    776  N9         3.0090   -2.3760   -5.5160 N.ar   39  DG39       -0.2713
    777  C8         2.6120   -1.4020   -6.4010 C.ar   39  DG39        0.1816
    778  N7         3.5890   -0.6290   -6.7880 N.ar   39  DG39       -0.2173
    779  C5         4.6980   -1.1180   -6.1230 C.ar   39  DG39        0.1748
    780  C6         6.0500   -0.6860   -6.1400 C.ar   39  DG39        0.3023
    781  O6         6.5460    0.2520   -6.7760 O.2    39  DG39       -0.2633
    782  N1         6.8560   -1.4650   -5.3140 N.ar   39  DG39       -0.1709
    783  C2         6.4140   -2.5290   -4.5640 C.ar   39  DG39        0.2606
    784  N2         7.3400   -3.1600   -3.8300 N.pl3  39  DG39       -0.0859
    785  N3         5.1620   -2.9410   -4.5380 N.ar   39  DG39       -0.1918
    786  C4         4.3610   -2.1990   -5.3310 C.ar   39  DG39        0.1722
    787  P          0.4040   -1.4840   -0.9580 P.3    40  DC40        0.2141
    788  OP1       -0.4770   -1.8510    0.1840 O.3    40  DC40       -0.4373
    789  OP2        0.5170   -0.0580   -1.3800 O.2    40  DC40       -0.5172
    790  O5'        1.8710   -2.0260   -0.6600 O.3    40  DC40       -0.3114
    791  C5'        2.0650   -3.3430   -0.1660 C.3    40  DC40        0.1812
    792  C4'        3.5220   -3.5820    0.1350 C.3    40  DC40        0.1775
    793  O4'        4.2720   -3.4850   -1.1050 O.3    40  DC40       -0.3326
    794  C3'        4.1890   -2.5490    1.0400 C.3    40  DC40        0.1864
    795  O3'        3.9950   -2.8100    2.4290 O.3    40  DC40       -0.2133
    796  C2'        5.6560   -2.7020    0.6650 C.3    40  DC40        0.0895
    797  C1'        5.5550   -2.9440   -0.8390 C.3    40  DC40        0.2107
    798  N1         5.6930   -1.7280   -1.6280 N.ar   40  DC40       -0.2556
    799  C2         6.9840   -1.2690   -1.9130 C.ar   40  DC40        0.3531
    800  O2         7.9560   -1.9520   -1.5480 O.2    40  DC40       -0.2443
    801  N3         7.1360   -0.0970   -2.5760 N.ar   40  DC40       -0.1739
    802  C4         6.0630    0.6030   -2.9470 C.ar   40  DC40        0.1759
    803  N4         6.2620    1.7520   -3.5980 N.pl3  40  DC40       -0.1070
    804  C5         4.7470    0.1550   -2.6670 C.ar   40  DC40        0.0566
    805  C6         4.6010   -1.0020   -2.0130 C.ar   40  DC40        0.0849
    806  P          4.5670   -1.5710    3.7760 P.3    41  DT41        0.3939
    807  OP1        4.3870   -3.0060    4.0990 O.3    41  DT41       -0.1496
    808  OP2        3.7630   -0.5630    4.5220 O.3    41  DT41       -0.1425
    809  O5'        6.0970   -1.1320    3.9270 O.3    41  DT41       -0.2926
    810  C5'        7.1800   -2.0800    3.9220 C.3    41  DT41        0.1828
    811  C4'        8.4900   -1.3410    3.7740 C.3    41  DT41        0.1747
    812  O4'        8.7490   -1.0440    2.3760 O.3    41  DT41       -0.3327
    813  C3'        8.5020    0.0150    4.4570 C.3    41  DT41        0.1558
    814  O3'        8.8080   -0.1040    5.8340 O.3    41  DT41       -0.3138
    815  C2'        9.5670    0.7770    3.6810 C.3    41  DT41        0.0866
    816  C1'        9.3510    0.2360    2.2640 C.3    41  DT41        0.2106
    817  N1         8.6450    1.0890    1.3810 N.ar   41  DT41       -0.2559
    818  C2         9.3180    2.0790    0.6890 C.ar   41  DT41        0.3545
    819  O2        10.5320    2.1680    0.6720 O.2    41  DT41       -0.2443
    820  N3         8.5130    2.9660    0.0160 N.ar   41  DT41       -0.1533
    821  C4         7.1350    2.9630   -0.0340 C.ar   41  DT41        0.2804
    822  O4         6.5510    3.8270   -0.6840 O.2    41  DT41       -0.2654
    823  C5         6.5100    1.9050    0.7100 C.ar   41  DT41        0.0534
    824  C6         7.2690    1.0290    1.3740 C.ar   41  DT41        0.0824
    825  C7         5.0130    1.8160    0.7180 C.3    41  DT41        0.0377
    826  P          7.6780    0.5470    7.0020 P.3    42  DT42        0.2141
    827  OP1        7.7270    0.3110    8.4670 O.3    42  DT42       -0.4373
    828  OP2        6.3620    0.5600    6.3050 O.2    42  DT42       -0.5172
    829  O5'        8.4070    1.9390    6.7560 O.3    42  DT42       -0.3114
    830  C5'        9.7810    2.0880    7.0800 C.3    42  DT42        0.1811
    831  C4'       10.0740    3.5060    7.4620 C.3    42  DT42        0.1746
    832  O4'        9.8310    4.3810    6.3280 O.3    42  DT42       -0.3327
    833  C3'        9.2200    4.0880    8.5700 C.3    42  DT42        0.1558
    834  O3'        9.7190    3.6880    9.8510 O.3    42  DT42       -0.3138
    835  C2'        9.4350    5.5700    8.3270 C.3    42  DT42        0.0866
    836  C1'        9.3660    5.6290    6.7970 C.3    42  DT42        0.2106
    837  N1         7.9100    5.6430    6.1900 N.ar   42  DT42       -0.2559
    838  C2         7.3260    6.8770    5.9750 C.ar   42  DT42        0.3545
    839  O2         7.8980    7.9300    6.1960 O.2    42  DT42       -0.2443
    840  N3         6.0410    6.8350    5.4910 N.ar   42  DT42       -0.1533
    841  C4         5.2980    5.7090    5.2060 C.ar   42  DT42        0.2804
    842  O4         4.1540    5.8320    4.7740 O.2    42  DT42       -0.2654
    843  C5         5.9730    4.4670    5.4560 C.ar   42  DT42        0.0534
    844  C6         7.2230    4.4780    5.9270 C.ar   42  DT42        0.0824
    845  C7         5.2470    3.1840    5.1780 C.3    42  DT42        0.0377
    846  P          8.7870    3.7210   11.1860 P.3    43  DA43        0.2141
    847  OP1        8.7790    2.6890   12.2560 O.3    43  DA43       -0.4373
    848  OP2        7.5100    4.3730   10.7870 O.2    43  DA43       -0.5172
    849  O5'        9.7970    4.8870   11.6070 O.3    43  DA43       -0.3114
    850  C5'       10.6380    4.7770   12.7660 C.3    43  DA43        0.1811
    851  C4'       11.2920    6.1120   13.0620 C.3    43  DA43        0.1746
    852  O4'       11.5830    6.7430   11.7890 O.3    43  DA43       -0.3327
    853  C3'       10.4460    7.1330   13.8180 C.3    43  DA43        0.1558
    854  O3'       10.6530    7.0230   15.2220 O.3    43  DA43       -0.3138
    855  C2'       10.9850    8.4690   13.3170 C.3    43  DA43        0.0865
    856  C1'       11.3560    8.1390   11.8720 C.3    43  DA43        0.2094
    857  N9        10.2610    8.4870   10.9280 N.ar   43  DA43       -0.2714
    858  C8         9.5170    7.6150   10.1770 C.ar   43  DA43        0.1815
    859  N7         8.7550    8.2040    9.2850 N.ar   43  DA43       -0.2193
    860  C5         9.0160    9.5530    9.4640 C.ar   43  DA43        0.1518
    861  C6         8.5250   10.7040    8.8250 C.ar   43  DA43        0.1919
    862  N6         7.6300   10.6750    7.8340 N.pl3  43  DA43       -0.1054
    863  N1         8.9900   11.9010    9.2440 N.ar   43  DA43       -0.2040
    864  C2         9.8870   11.9290   10.2360 C.ar   43  DA43        0.2016
    865  N3        10.4240   10.9170   10.9130 N.ar   43  DA43       -0.2048
    866  C4         9.9410    9.7430   10.4730 C.ar   43  DA43        0.1691
    867  P          9.4950    7.4650   16.2420 P.3    44  DT44        0.2141
    868  OP1        9.9800    6.9610   17.5610 O.3    44  DT44       -0.4373
    869  OP2        8.3460    6.7970   15.5500 O.2    44  DT44       -0.5172
    870  O5'        9.2060    9.0480   16.3560 O.3    44  DT44       -0.3114
    871  C5'       10.1560   10.0460   16.8720 C.3    44  DT44        0.1811
    872  C4'        9.7520   11.4590   16.4350 C.3    44  DT44        0.1746
    873  O4'        9.8070   11.6050   14.9840 O.3    44  DT44       -0.3327
    874  C3'        8.3290   11.8940   16.7430 C.3    44  DT44        0.1558
    875  O3'        8.2170   12.2790   18.0850 O.3    44  DT44       -0.3138
    876  C2'        8.1310   13.0460   15.7620 C.3    44  DT44        0.0866
    877  C1'        8.8840   12.5690   14.5330 C.3    44  DT44        0.2106
    878  N1         7.9350   11.9260   13.6620 N.ar   44  DT44       -0.2559
    879  C2         7.1680   12.6710   12.7860 C.ar   44  DT44        0.3545
    880  O2         7.2160   13.8870   12.7300 O.2    44  DT44       -0.2443
    881  N3         6.3370   11.9390   11.9740 N.ar   44  DT44       -0.1533
    882  C4         6.1980   10.5670   11.9500 C.ar   44  DT44        0.2804
    883  O4         5.4090   10.0520   11.1620 O.2    44  DT44       -0.2654
    884  C5         7.0270    9.8640   12.8890 C.ar   44  DT44        0.0534
    885  C6         7.8450   10.5520   13.6910 C.ar   44  DT44        0.0824
    886  C7         6.9480    8.3670   12.9400 C.3    44  DT44        0.0377
    887  P          6.7240   12.1950   18.8240 P.3    45  DT45        0.2141
    888  OP1        6.8210   12.4630   20.2650 O.3    45  DT45       -0.4373
    889  OP2        5.9910   10.9070   18.4030 O.2    45  DT45       -0.5172
    890  O5'        5.8970   13.4650   18.2170 O.3    45  DT45       -0.3114
    891  C5'        6.1230   14.8320   18.6900 C.3    45  DT45        0.1811
    892  C4'        5.4550   15.8430   17.7450 C.3    45  DT45        0.1746
    893  O4'        5.9710   15.6930   16.3800 O.3    45  DT45       -0.3327
    894  C3'        3.9620   15.5940   17.5650 C.3    45  DT45        0.1558
    895  O3'        3.2540   16.1480   18.6830 O.3    45  DT45       -0.3138
    896  C2'        3.7190   16.3860   16.2720 C.3    45  DT45        0.0866
    897  C1'        4.8850   15.9170   15.4180 C.3    45  DT45        0.2106
    898  N1         4.5220   14.6590   14.6740 N.ar   45  DT45       -0.2559
    899  C2         3.8720   14.7880   13.4610 C.ar   45  DT45        0.3545
    900  O2         3.6140   15.8670   12.9570 O.2    45  DT45       -0.2443
    901  N3         3.5320   13.6030   12.8550 N.ar   45  DT45       -0.1533
    902  C4         3.7700   12.3300   13.3290 C.ar   45  DT45        0.2804
    903  O4         3.4050   11.3600   12.6700 O.2    45  DT45       -0.2654
    904  C5         4.4480   12.2790   14.5940 C.ar   45  DT45        0.0534
    905  C6         4.7900   13.4170   15.2050 C.ar   45  DT45        0.0824
    906  C7         4.7530   10.9390   15.1940 C.3    45  DT45        0.0377
    907  P          2.3030   15.5850   19.0520 P.3    46  DC46        0.2141
    908  OP1        2.7270   16.5140   20.1320 O.3    46  DC46       -0.4373
    909  OP2        1.9860   14.2090   19.4270 O.2    46  DC46       -0.5172
    910  O5'        1.0170   16.2370   18.3600 O.3    46  DC46       -0.3114
    911  C5'        1.0870   17.6190   17.9810 C.3    46  DC46        0.1811
    912  C4'        0.3060   17.8700   16.7180 C.3    46  DC46        0.1746
    913  O4'        0.8790   17.1000   15.6280 O.3    46  DC46       -0.3327
    914  C3'       -1.1400   17.4230   16.7310 C.3    46  DC46        0.1558
    915  O3'       -1.9790   18.4190   17.2970 O.3    46  DC46       -0.3138
    916  C2'       -1.4440   17.3390   15.2320 C.3    46  DC46        0.0866
    917  C1'       -0.1650   16.7640   14.7000 C.3    46  DC46        0.2106
    918  N1        -0.0930   15.3910   14.4620 N.ar   46  DC46       -0.2556
    919  C2        -0.6890   14.8380   13.3230 C.ar   46  DC46        0.3531
    920  O2        -1.2400   15.5980   12.5080 O.2    46  DC46       -0.2443
    921  N3        -0.6490   13.4960   13.1440 N.ar   46  DC46       -0.1739
    922  C4        -0.0480   12.7200   14.0460 C.ar   46  DC46        0.1759
    923  N4        -0.0340   11.4030   13.8270 N.pl3  46  DC46       -0.1070
    924  C5         0.5620   13.2610   15.2070 C.ar   46  DC46        0.0566
    925  C6         0.5200   14.5860   15.3800 C.ar   46  DC46        0.0849
    926  P         -3.2210   18.0770   18.0370 P.3    47  DA47        0.2141
    927  OP1       -3.8220   19.1760   18.8440 O.3    47  DA47       -0.4373
    928  OP2       -3.0140   16.7370   18.6560 O.2    47  DA47       -0.5172
    929  O5'       -4.1120   17.8900   16.7310 O.3    47  DA47       -0.3114
    930  C5'       -4.4210   19.0000   15.9040 C.3    47  DA47        0.1811
    931  C4'       -5.1070   18.5300   14.6560 C.3    47  DA47        0.1746
    932  O4'       -4.1870   17.7130   13.8810 O.3    47  DA47       -0.3327
    933  C3'       -6.2800   17.6010   14.8920 C.3    47  DA47        0.1558
    934  O3'       -7.4450   18.3240   15.2670 O.3    47  DA47       -0.3138
    935  C2'       -6.3820   16.8980   13.5440 C.3    47  DA47        0.0865
    936  C1'       -4.9040   16.6640   13.2410 C.3    47  DA47        0.2094
    937  N9        -4.4650   15.3660   13.8060 N.ar   47  DA47       -0.2714
    938  C8        -3.7230   15.1580   14.9390 C.ar   47  DA47        0.1815
    939  N7        -3.3540   13.9100   15.1080 N.ar   47  DA47       -0.2193
    940  C5        -3.8910   13.2540   14.0120 C.ar   47  DA47        0.1518
    941  C6        -3.8570   11.9090   13.6040 C.ar   47  DA47        0.1919
    942  N6        -3.2310   10.9460   14.2840 N.pl3  47  DA47       -0.1054
    943  N1        -4.4960   11.5850   12.4600 N.ar   47  DA47       -0.2040
    944  C2        -5.1220   12.5510   11.7780 C.ar   47  DA47        0.2016
    945  N3        -5.2230   13.8480   12.0590 N.ar   47  DA47       -0.2048
    946  C4        -4.5790   14.1370   13.2020 C.ar   47  DA47        0.1691
    947  P         -8.3310   17.7340   16.2990 P.3    48  DA48        0.2141
    948  OP1       -9.2060   18.5010   17.2200 O.3    48  DA48       -0.4373
    949  OP2       -7.2560   16.8660   16.8600 O.2    48  DA48       -0.5172
    950  O5'       -9.2530   16.8230   15.3700 O.3    48  DA48       -0.3114
    951  C5'       -9.8220   17.3420   14.1490 C.3    48  DA48        0.1811
    952  C4'      -10.3800   16.2220   13.3010 C.3    48  DA48        0.1746
    953  O4'       -9.3140   15.2850   12.9920 O.3    48  DA48       -0.3327
    954  C3'      -11.5100   15.4020   13.9130 C.3    48  DA48        0.1558
    955  O3'      -12.3750   15.0210   12.8420 O.3    48  DA48       -0.3138
    956  C2'      -10.7840   14.1710   14.4540 C.3    48  DA48        0.0865
    957  C1'       -9.6890   13.9880   13.4030 C.3    48  DA48        0.2094
    958  N9        -8.6870   13.3190   13.7080 N.ar   48  DA48       -0.2714
    959  C8        -8.2820   13.6160   14.9830 C.ar   48  DA48        0.1815
    960  N7        -7.7460   12.6010   15.6190 N.ar   48  DA48       -0.2193
    961  C5        -7.8040   11.5660   14.6990 C.ar   48  DA48        0.1518
    962  C6        -7.3940   10.2220   14.7600 C.ar   48  DA48        0.1919
    963  N6        -6.8220    9.6720   15.8330 N.pl3  48  DA48       -0.1054
    964  N1        -7.5970    9.4560   13.6670 N.ar   48  DA48       -0.2040
    965  C2        -8.1700   10.0080   12.5920 C.ar   48  DA48        0.2016
    966  N3        -8.5960   11.2570   12.4150 N.ar   48  DA48       -0.2048
    967  C4        -8.3810   11.9930   13.5180 C.ar   48  DA48        0.1691
    968  P        -13.7500   14.8600   13.1610 P.3    49  DT49        0.2141
    969  OP1      -15.0080   15.5960   12.8900 O.2    49  DT49       -0.5172
    970  OP2      -13.4380   14.4140   14.5390 O.3    49  DT49       -0.4373
    971  O5'      -13.6770   13.5820   12.2000 O.3    49  DT49       -0.3114
    972  C5'      -13.7980   13.7090   10.7830 C.3    49  DT49        0.1811
    973  C4'      -13.2400   12.4670   10.1150 C.3    49  DT49        0.1746
    974  O4'      -11.9010   12.2370   10.6090 O.3    49  DT49       -0.3327
    975  C3'      -13.9550   11.1760   10.4800 C.3    49  DT49        0.1558
    976  O3'      -15.1120   10.9760    9.7030 O.3    49  DT49       -0.3138
    977  C2'      -12.8880   10.1160   10.2300 C.3    49  DT49        0.0866
    978  C1'      -11.6650   10.8450   10.7560 C.3    49  DT49        0.2106
    979  N1       -11.3340   10.5770   12.2540 N.ar   49  DT49       -0.2559
    980  C2       -10.7680    9.3530   12.5560 C.ar   49  DT49        0.3545
    981  O2       -10.4680    8.5330   11.7060 O.2    49  DT49       -0.2443
    982  N3       -10.5660    9.1200   13.8940 N.ar   49  DT49       -0.1533
    983  C4       -10.8660    9.9690   14.9390 C.ar   49  DT49        0.2804
    984  O4       -10.6250    9.6190   16.0920 O.2    49  DT49       -0.2654
    985  C5       -11.4510   11.2200   14.5450 C.ar   49  DT49        0.0534
    986  C6       -11.6590   11.4720   13.2500 C.ar   49  DT49        0.0824
    987  C7       -11.8140   12.2130   15.6100 C.3    49  DT49        0.0377
    988  P        -16.2370   10.2660   10.3740 P.3    50  DT50        0.2141
    989  OP1      -17.2190   10.1900    9.2540 O.2    50  DT50       -0.5172
    990  OP2      -16.6820   10.7000   11.6910 O.3    50  DT50       -0.4373
    991  O5'      -15.4260    8.9150   10.3610 O.3    50  DT50       -0.3114
    992  C5'      -15.7510    8.1130    9.1920 C.3    50  DT50        0.1811
    993  C4'      -15.1520    6.7360    9.2750 C.3    50  DT50        0.1746
    994  O4'      -13.8170    6.8610    9.7980 O.3    50  DT50       -0.3327
    995  C3'      -15.8290    5.8490   10.2930 C.3    50  DT50        0.1558
    996  O3'      -16.9510    5.1890    9.7150 O.3    50  DT50       -0.3138
    997  C2'      -14.7340    4.8650   10.5420 C.3    50  DT50        0.0866
    998  C1'      -13.5470    5.7600   10.6050 C.3    50  DT50        0.2106
    999  N1       -13.1260    6.1890   11.9830 N.ar   50  DT50       -0.2559
   1000  C2       -12.0620    5.5360   12.5760 C.ar   50  DT50        0.3545
   1001  O2       -11.4490    4.6350   12.0320 O.2    50  DT50       -0.2443
   1002  N3       -11.7400    5.9760   13.8370 N.ar   50  DT50       -0.1533
   1003  C4       -12.3600    6.9820   14.5490 C.ar   50  DT50        0.2804
   1004  O4       -11.9560    7.2650   15.6740 O.2    50  DT50       -0.2654
   1005  C5       -13.4560    7.6110   13.8660 C.ar   50  DT50        0.0534
   1006  C6       -13.7910    7.2020   12.6390 C.ar   50  DT50        0.0824
   1007  C7       -14.1960    8.7170   14.5580 C.3    50  DT50        0.0377
   1008  P        -18.2570    5.1380   10.5950 P.3    51  DA51        0.2141
   1009  OP1      -19.2310    4.8320    9.5220 O.2    51  DA51       -0.5172
   1010  OP2      -18.6010    6.1330   11.6360 O.3    51  DA51       -0.4373
   1011  O5'      -17.9340    3.8050   11.4270 O.3    51  DA51       -0.3114
   1012  C5'      -17.6150    2.5990   10.7460 C.3    51  DA51        0.1811
   1013  C4'      -16.9780    1.5610   11.6440 C.3    51  DA51        0.1746
   1014  O4'      -15.7490    2.0760   12.2220 O.3    51  DA51       -0.3327
   1015  C3'      -17.7860    1.0990   12.8490 C.3    51  DA51        0.1558
   1016  O3'      -18.7560    0.1160   12.5400 O.3    51  DA51       -0.3138
   1017  C2'      -16.7110    0.5640   13.7790 C.3    51  DA51        0.0865
   1018  C1'      -15.5850    1.5640   13.5270 C.3    51  DA51        0.2094
   1019  N9       -15.7030    2.7110   14.4750 N.ar   51  DA51       -0.2714
   1020  C8       -16.2050    3.9430   14.1430 C.ar   51  DA51        0.1815
   1021  N7       -15.9890    4.8640   15.0520 N.ar   51  DA51       -0.2193
   1022  C5       -15.3000    4.1910   16.0490 C.ar   51  DA51        0.1518
   1023  C6       -14.7800    4.6090   17.2860 C.ar   51  DA51        0.1919
   1024  N6       -14.8790    5.8580   17.7460 N.pl3  51  DA51       -0.1054
   1025  N1       -14.1460    3.6870   18.0430 N.ar   51  DA51       -0.2040
   1026  C2       -14.0460    2.4360   17.5810 C.ar   51  DA51        0.2016
   1027  N3       -14.4920    1.9240   16.4360 N.ar   51  DA51       -0.2048
   1028  C4       -15.1170    2.8650   15.7080 C.ar   51  DA51        0.1691
   1029  P        -20.0280    0.2070   13.2790 P.3    52  DC52        0.2141
   1030  OP1      -20.8290   -0.8830   12.6590 O.2    52  DC52       -0.5172
   1031  OP2      -20.6300    1.5200   13.6170 O.3    52  DC52       -0.4373
   1032  O5'      -19.3660   -0.3550   14.6180 O.3    52  DC52       -0.3114
   1033  C5'      -18.9830   -1.7000   14.7350 C.3    52  DC52        0.1811
   1034  C4'      -18.5720   -1.9360   16.1540 C.3    52  DC52        0.1746
   1035  O4'      -17.5140   -1.0020   16.4850 O.3    52  DC52       -0.3327
   1036  C3'      -19.6360   -1.5750   17.1820 C.3    52  DC52        0.1558
   1037  O3'      -20.6140   -2.5660   17.2790 O.3    52  DC52       -0.3138
   1038  C2'      -18.7770   -1.4780   18.4330 C.3    52  DC52        0.0866
   1039  C1'      -17.6090   -0.6900   17.8780 C.3    52  DC52        0.2106
   1040  N1       -17.6850    0.7590   18.0380 N.ar   52  DC52       -0.2556
   1041  C2       -17.3390    1.3440   19.2610 C.ar   52  DC52        0.3531
   1042  O2       -16.9580    0.6100   20.1890 O.2    52  DC52       -0.2443
   1043  N3       -17.4300    2.6890   19.3980 N.ar   52  DC52       -0.1739
   1044  C4       -17.8460    3.4370   18.3750 C.ar   52  DC52        0.1759
   1045  N4       -17.9190    4.7580   18.5570 N.pl3  52  DC52       -0.1070
   1046  C5       -18.2010    2.8630   17.1280 C.ar   52  DC52        0.0566
   1047  C6       -18.1090    1.5350   16.9970 C.ar   52  DC52        0.0849
   1048  P        -21.8650   -2.0860   17.4430 P.3    53  DG53        0.2141
   1049  OP1      -21.9370   -3.4350   16.8460 O.2    53  DG53       -0.5172
   1050  OP2      -22.7650   -1.0280   16.9390 O.3    53  DG53       -0.4373
   1051  O5'      -22.1480   -2.0680   19.0220 O.3    53  DG53       -0.3114
   1052  C5'      -21.8800   -3.1740   19.8620 C.3    53  DG53        0.1811
   1053  C4'      -20.9440   -2.7820   21.0010 C.3    53  DG53        0.1746
   1054  O4'      -19.8460   -1.9660   20.5170 O.3    53  DG53       -0.3327
   1055  C3'      -21.4270   -1.9640   22.1970 C.3    53  DG53        0.1558
   1056  O3'      -22.2260   -2.7350   23.0870 O.3    53  DG53       -0.3138
   1057  C2'      -20.0800   -1.6800   22.8520 C.3    53  DG53        0.0865
   1058  C1'      -19.2310   -1.3290   21.6260 C.3    53  DG53        0.2094
   1059  N9       -19.1110    0.0100   21.4210 N.ar   53  DG53       -0.2713
   1060  C8       -19.7130    0.6370   20.3570 C.ar   53  DG53        0.1816
   1061  N7       -19.3990    1.9000   20.2590 N.ar   53  DG53       -0.2173
   1062  C5       -18.5380    2.1230   21.3170 C.ar   53  DG53        0.1748
   1063  C6       -17.8690    3.3040   21.7300 C.ar   53  DG53        0.3023
   1064  O6       -17.9110    4.4280   21.2150 O.2    53  DG53       -0.2633
   1065  N1       -17.0870    3.0910   22.8620 N.ar   53  DG53       -0.1709
   1066  C2       -16.9650    1.8880   23.5160 C.ar   53  DG53        0.2606
   1067  N2       -16.1640    1.8770   24.5900 N.pl3  53  DG53       -0.0859
   1068  N3       -17.5810    0.7830   23.1450 N.ar   53  DG53       -0.1918
   1069  C4       -18.3470    0.9660   22.0480 C.ar   53  DG53        0.1722
   1070  P        -23.2570   -2.0700   24.1070 P.3    54  DT54        0.2141
   1071  OP1      -24.0830   -3.3010   24.2790 O.3    54  DT54       -0.4373
   1072  OP2      -23.7550   -0.9280   23.2750 O.2    54  DT54       -0.5172
   1073  O5'      -22.8780   -1.5030   25.5400 O.3    54  DT54       -0.3114
   1074  C5'      -22.0080   -2.2360   26.3710 C.3    54  DT54        0.1811
   1075  C4'      -21.1010   -1.3110   27.1270 C.3    54  DT54        0.1746
   1076  O4'      -20.1570   -0.6580   26.2510 O.3    54  DT54       -0.3327
   1077  C3'      -21.7610   -0.1600   27.8410 C.3    54  DT54        0.1558
   1078  O3'      -22.3290   -0.6100   29.0290 O.3    54  DT54       -0.3138
   1079  C2'      -20.6050    0.7850   28.0910 C.3    54  DT54        0.0866
   1080  C1'      -19.7800    0.5800   26.8250 C.3    54  DT54        0.2106
   1081  N1       -20.1080    1.6820   25.9390 N.ar   54  DT54       -0.2559
   1082  C2       -19.4850    2.9080   26.0720 C.ar   54  DT54        0.3545
   1083  O2       -18.7400    3.1780   26.9980 O.2    54  DT54       -0.2443
   1084  N3       -19.7680    3.8140   25.0790 N.ar   54  DT54       -0.1533
   1085  C4       -20.5930    3.6210   23.9910 C.ar   54  DT54        0.2804
   1086  O4       -20.7480    4.5320   23.1800 O.2    54  DT54       -0.2654
   1087  C5       -21.2030    2.3230   23.9240 C.ar   54  DT54        0.0534
   1088  C6       -20.9450    1.4230   24.8760 C.ar   54  DT54        0.0824
   1089  C7       -22.1190    2.0150   22.7770 C.3    54  DT54        0.0377
   1090  P        -23.6370   -0.0070   29.5150 P.3    55  DC55        0.2141
   1091  OP1      -25.0180   -0.4840   29.7600 O.3    55  DC55       -0.4373
   1092  OP2      -23.4110    1.1910   28.6730 O.2    55  DC55       -0.5172
   1093  O5'      -22.9170    0.2530   30.9240 O.3    55  DC55       -0.3114
   1094  C5'      -21.4970    0.0980   31.0600 C.3    55  DC55        0.1811
   1095  C4'      -20.7990    1.4230   31.3340 C.3    55  DC55        0.1746
   1096  O4'      -19.9230    1.7710   30.2240 O.3    55  DC55       -0.3327
   1097  C3'      -21.6850    2.6480   31.4610 C.3    55  DC55        0.1558
   1098  O3'      -22.3770    2.6880   32.7100 O.3    55  DC55       -0.3138
   1099  C2'      -20.6420    3.7490   31.3100 C.3    55  DC55        0.0866
   1100  C1'      -19.7860    3.1910   30.1710 C.3    55  DC55        0.2106
   1101  N1       -20.1960    3.7550   28.9300 N.ar   55  DC55       -0.2556
   1102  C2       -19.5490    4.9090   28.4730 C.ar   55  DC55        0.3531
   1103  O2       -18.5960    5.3600   29.1300 O.2    55  DC55       -0.2443
   1104  N3       -19.9790    5.4980   27.3310 N.ar   55  DC55       -0.1739
   1105  C4       -21.0070    4.9780   26.6590 C.ar   55  DC55        0.1759
   1106  N4       -21.3960    5.5930   25.5400 N.pl3  55  DC55       -0.1070
   1107  C5       -21.6760    3.8100   27.1060 C.ar   55  DC55        0.0566
   1108  C6       -21.2480    3.2310   28.2330 C.ar   55  DC55        0.0849
   1109  P        -23.7110    3.6780   32.9120 P.3    56  DT56        0.2141
   1110  OP1      -24.4100    3.3630   34.1950 O.3    56  DT56       -0.4373
   1111  OP2      -24.2230    3.3880   31.5270 O.2    56  DT56       -0.5172
   1112  O5'      -23.2260    5.2140   32.9010 O.3    56  DT56       -0.3114
   1113  C5'      -22.9020    5.7750   34.1750 C.3    56  DT56        0.1811
   1114  C4'      -22.2720    7.1410   34.0900 C.3    56  DT56        0.1746
   1115  O4'      -21.2550    7.1050   33.0800 O.3    56  DT56       -0.3327
   1116  C3'      -23.1160    8.2650   33.5630 C.3    56  DT56        0.1558
   1117  O3'      -23.8600    8.7930   34.5850 O.3    56  DT56       -0.3138
   1118  C2'      -22.0980    9.2960   33.1640 C.3    56  DT56        0.0866
   1119  C1'      -21.1700    8.3580   32.4160 C.3    56  DT56        0.2106
   1120  N1       -21.5690    8.1390   30.9920 N.ar   56  DT56       -0.2559
   1121  C2       -21.3000    9.1450   30.0830 C.ar   56  DT56        0.3545
   1122  O2       -20.7680   10.1960   30.3940 O.2    56  DT56       -0.2443
   1123  N3       -21.6780    8.8770   28.7900 N.ar   56  DT56       -0.1533
   1124  C4       -22.2850    7.7290   28.3240 C.ar   56  DT56        0.2804
   1125  O4       -22.5650    7.6330   27.1320 O.2    56  DT56       -0.2654
   1126  C5       -22.5320    6.7320   29.3280 C.ar   56  DT56        0.0534
   1127  C6       -22.1740    6.9670   30.5930 C.ar   56  DT56        0.0824
   1128  C7       -23.1890    5.4470   28.9210 C.3    56  DT56        0.0377
   1129  P        -25.3640    9.2470   34.1570 P.3    57  DG57        0.2141
   1130  OP1      -26.5680    9.6450   34.9370 O.3    57  DG57       -0.4373
   1131  OP2      -25.5160    8.3270   33.0050 O.2    57  DG57       -0.5172
   1132  O5'      -24.6180   10.5730   33.6770 O.3    57  DG57       -0.3114
   1133  C5'      -23.8800   11.3780   34.6170 C.3    57  DG57        0.1811
   1134  C4'      -23.4600   12.6760   33.9770 C.3    57  DG57        0.1746
   1135  O4'      -22.7320   12.3810   32.7580 O.3    57  DG57       -0.3327
   1136  C3'      -24.5920   13.5740   33.5130 C.3    57  DG57        0.1558
   1137  O3'      -25.0950   14.3620   34.5810 O.3    57  DG57       -0.3138
   1138  C2'      -23.9130   14.4120   32.4380 C.3    57  DG57        0.0865
   1139  C1'      -23.0180   13.3670   31.7790 C.3    57  DG57        0.2094
   1140  N9       -23.6260   12.6760   30.7230 N.ar   57  DG57       -0.2713
   1141  C8       -24.1970   11.4280   30.7840 C.ar   57  DG57        0.1816
   1142  N7       -24.6620   11.0180   29.6360 N.ar   57  DG57       -0.2173
   1143  C5       -24.3810   12.0520   28.7630 C.ar   57  DG57        0.1748
   1144  C6       -24.6470   12.1870   27.3760 C.ar   57  DG57        0.3023
   1145  O6       -25.2060   11.3810   26.6210 O.2    57  DG57       -0.2633
   1146  N1       -24.1930   13.4040   26.8750 N.ar   57  DG57       -0.1709
   1147  C2       -23.5610   14.3710   27.6180 C.ar   57  DG57        0.2606
   1148  N2       -23.1950   15.4790   26.9580 N.pl3  57  DG57       -0.0859
   1149  N3       -23.3070   14.2600   28.9070 N.ar   57  DG57       -0.1918
   1150  C4       -23.7400   13.0870   29.4160 C.ar   57  DG57        0.1722
   1151  P        -26.7110   15.1120   34.4620 P.3    58  DC58        0.2141
   1152  OP1      -26.9690   15.9450   35.6600 O.3    58  DC58       -0.4373
   1153  OP2      -27.4950   13.8810   34.2020 O.2    58  DC58       -0.5172
   1154  O5'      -26.9390   16.0190   33.1670 O.3    58  DC58       -0.3114
   1155  C5'      -26.5250   17.3720   33.2480 C.3    58  DC58        0.1811
   1156  C4'      -26.2410   17.9720   31.8950 C.3    58  DC58        0.1746
   1157  O4'      -25.5930   17.0100   31.0210 O.3    58  DC58       -0.3327
   1158  C3'      -27.4480   18.4250   31.0970 C.3    58  DC58        0.1558
   1159  O3'      -27.9690   19.6560   31.5540 O.3    58  DC58       -0.3138
   1160  C2'      -26.8720   18.5020   29.6940 C.3    58  DC58        0.0866
   1161  C1'      -25.9710   17.2650   29.6850 C.3    58  DC58        0.2106
   1162  N1       -26.6810   16.0220   29.1990 N.ar   58  DC58       -0.2556
   1163  C2       -26.8520   15.7950   27.8290 C.ar   58  DC58        0.3531
   1164  O2       -26.5200   16.6860   27.0290 O.2    58  DC58       -0.2443
   1165  N3       -27.3740   14.6150   27.4150 N.ar   58  DC58       -0.1739
   1166  C4       -27.7170   13.6870   28.3100 C.ar   58  DC58        0.1759
   1167  N4       -28.2270   12.5400   27.8560 N.pl3  58  DC58       -0.1070
   1168  C5       -27.5510   13.8980   29.7030 C.ar   58  DC58        0.0566
   1169  C6       -27.0360   15.0640   30.1070 C.ar   58  DC58        0.0849
   1170  P        -29.4070   19.7140   31.9070 P.3    59  DA59        0.2141
   1171  OP1      -29.7960   21.1190   32.2170 O.2    59  DA59       -0.5172
   1172  OP2      -29.7570   18.5910   32.8260 O.3    59  DA59       -0.4373
   1173  O5'      -29.8780   19.3740   30.3950 O.3    59  DA59       -0.3114
   1174  C5'      -30.2390   20.4240   29.4570 C.3    59  DA59        0.1811
   1175  C4'      -30.8390   19.9370   28.1390 C.3    59  DA59        0.1746
   1176  O4'      -30.0020   18.9370   27.5200 O.3    59  DA59       -0.3327
   1177  C3'      -32.1740   19.2120   28.2140 C.3    59  DA59        0.1558
   1178  O3'      -33.2730   20.1030   28.3460 O.3    59  DA59       -0.3138
   1179  C2'      -32.1960   18.4900   26.8760 C.3    59  DA59        0.0865
   1180  C1'      -30.7910   17.9390   26.8920 C.3    59  DA59        0.2094
   1181  N9       -30.5620   16.6520   27.5250 N.ar   59  DA59       -0.2714
   1182  C8       -30.0370   16.3520   28.7550 C.ar   59  DA59        0.1815
   1183  N7       -30.0250   15.0680   29.0260 N.ar   59  DA59       -0.2193
   1184  C5       -30.5810   14.4860   27.8980 C.ar   59  DA59        0.1518
   1185  C6       -30.8470   13.1480   27.5580 C.ar   59  DA59        0.1919
   1186  N6       -30.5750   12.1140   28.3580 N.pl3  59  DA59       -0.1054
   1187  N1       -31.4080   12.9070   26.3540 N.ar   59  DA59       -0.2040
   1188  C2       -31.6790   13.9440   25.5530 C.ar   59  DA59        0.2016
   1189  N3       -31.4750   15.2430   25.7610 N.ar   59  DA59       -0.2048
   1190  C4       -30.9170   15.4490   26.9660 C.ar   59  DA59        0.1691
   1191  P        -34.2750   19.6730   29.3000 P.3    60  DC60        0.2141
   1192  OP1      -35.3340   20.7030   29.4250 O.2    60  DC60       -0.5172
   1193  OP2      -33.7380   19.0140   30.5270 O.3    60  DC60       -0.4373
   1194  O5'      -34.8350   18.5560   28.3130 O.3    60  DC60       -0.3114
   1195  C5'      -35.3080   18.9000   27.0200 C.3    60  DC60        0.1811
   1196  C4'      -35.7910   17.6630   26.3190 C.3    60  DC60        0.1746
   1197  O4'      -34.7070   16.6930   26.3220 O.3    60  DC60       -0.3327
   1198  C3'      -36.9160   16.9390   27.0410 C.3    60  DC60        0.1558
   1199  O3'      -38.1920   17.4880   26.7410 O.3    60  DC60       -0.3138
   1200  C2'      -36.7670   15.5130   26.5320 C.3    60  DC60        0.0866
   1201  C1'      -35.2400   15.3830   26.4860 C.3    60  DC60        0.2106
   1202  N1       -34.6850   14.8120   27.6350 N.ar   60  DC60       -0.2556
   1203  C2       -34.8740   13.4630   27.9590 C.ar   60  DC60        0.3531
   1204  O2       -35.5340   12.7490   27.1840 O.2    60  DC60       -0.2443
   1205  N3       -34.3370   12.9780   29.1040 N.ar   60  DC60       -0.1739
   1206  C4       -33.6370   13.7810   29.9060 C.ar   60  DC60        0.1759
   1207  N4       -33.1260   13.2580   31.0230 N.pl3  60  DC60       -0.1070
   1208  C5       -33.4340   15.1510   29.5960 C.ar   60  DC60        0.0566
   1209  C6       -33.9660   15.6260   28.4650 C.ar   60  DC60        0.0849
   1210  P        -39.4470   17.2350   27.7930 P.3    61  DA61        0.2141
   1211  OP1      -40.3090   18.3430   28.2570 O.2    61  DA61       -0.5172
   1212  OP2      -38.6870   16.4460   28.7950 O.3    61  DA61       -0.4373
   1213  O5'      -40.2850   16.2380   26.8660 O.3    61  DA61       -0.3114
   1214  C5'      -40.8540   15.0360   27.3970 C.3    61  DA61        0.1811
   1215  C4'      -41.6040   14.2860   26.3110 C.3    61  DA61        0.1746
   1216  O4'      -42.4220   15.2530   25.6150 O.3    61  DA61       -0.3327
   1217  C3'      -40.7520   13.6310   25.2260 C.3    61  DA61        0.1558
   1218  O3'      -40.4130   12.2900   25.5920 O.3    61  DA61       -0.3138
   1219  C2'      -41.6380   13.7060   23.9750 C.3    61  DA61        0.0865
   1220  C1'      -42.4110   14.9940   24.2250 C.3    61  DA61        0.2094
   1221  N9       -41.8190   16.2040   23.5520 N.ar   61  DA61       -0.2714
   1222  C8       -41.1420   17.2270   24.1630 C.ar   61  DA61        0.1815
   1223  N7       -40.9250   18.2580   23.3810 N.ar   61  DA61       -0.2193
   1224  C5       -41.4970   17.8870   22.1750 C.ar   61  DA61        0.1518
   1225  C6       -41.6050   18.5450   20.9370 C.ar   61  DA61        0.1919
   1226  N6       -41.1200   19.7670   20.7040 N.pl3  61  DA61       -0.1054
   1227  N1       -42.2370   17.8960   19.9360 N.ar   61  DA61       -0.2040
   1228  C2       -42.7240   16.6720   20.1710 C.ar   61  DA61        0.2016
   1229  N3       -42.6850   15.9520   21.2890 N.ar   61  DA61       -0.2048
   1230  C4       -42.0510   16.6240   22.2640 C.ar   61  DA61        0.1691
   1231  P        -38.8750   11.7380   25.5690 P.3    62  DT62        0.2141
   1232  OP1      -38.7210   10.2830   25.8430 O.2    62  DT62       -0.5172
   1233  OP2      -38.0890   12.7440   26.3470 O.3    62  DT62       -0.4373
   1234  O5'      -38.5980   11.8780   24.0360 O.3    62  DT62       -0.3114
   1235  C5'      -39.0150   10.8070   23.3370 C.3    62  DT62        0.1811
   1236  C4'      -38.7460   11.1810   21.9210 C.3    62  DT62        0.1746
   1237  O4'      -39.4460   12.4200   21.6250 O.3    62  DT62       -0.3327
   1238  C3'      -37.2930   11.5120   21.6190 C.3    62  DT62        0.1558
   1239  O3'      -36.4990   10.3820   21.4270 O.3    62  DT62       -0.3138
   1240  C2'      -37.4840   12.2770   20.3170 C.3    62  DT62        0.0866
   1241  C1'      -38.6680   13.1480   20.6880 C.3    62  DT62        0.2106
   1242  N1       -38.1970   14.4480   21.2470 N.ar   62  DT62       -0.2559
   1243  C2       -37.4280   15.4120   20.6240 C.ar   62  DT62        0.3545
   1244  O2       -36.8740   15.2310   19.5540 O.2    62  DT62       -0.2443
   1245  N3       -37.3280   16.6030   21.3010 N.ar   62  DT62       -0.1533
   1246  C4       -37.9060   16.9200   22.5130 C.ar   62  DT62        0.2804
   1247  O4       -37.7260   18.0340   22.9970 O.2    62  DT62       -0.2654
   1248  C5       -38.6880   15.8670   23.0970 C.ar   62  DT62        0.0534
   1249  C6       -38.8020   14.6980   22.4590 C.ar   62  DT62        0.0824
   1250  C7       -39.3580   16.1140   24.4160 C.3    62  DT62        0.0377
   1251  P        -35.0970   10.3020   21.8310 P.3    63  DA63        0.2141
   1252  OP1      -34.2930    9.1380   22.2760 O.2    63  DA63       -0.5172
   1253  OP2      -34.8550   11.6110   22.4370 O.3    63  DA63       -0.4373
   1254  O5'      -34.8900   10.4590   20.2640 O.3    63  DA63       -0.3114
   1255  C5'      -33.6170   10.8340   19.7260 C.3    63  DA63        0.1811
   1256  C4'      -33.7810   12.0160   18.8160 C.3    63  DA63        0.1746
   1257  O4'      -34.5190   13.0340   19.5270 O.3    63  DA63       -0.3327
   1258  C3'      -32.4760   12.6810   18.4270 C.3    63  DA63        0.1558
   1259  O3'      -31.9000   12.0730   17.2860 O.3    63  DA63       -0.3138
   1260  C2'      -32.8800   14.1370   18.2190 C.3    63  DA63        0.0865
   1261  C1'      -33.9280   14.3070   19.3100 C.3    63  DA63        0.2094
   1262  N9       -33.0830   14.8390   20.4740 N.ar   63  DA63       -0.2714
   1263  C8       -32.9590   14.1360   21.6440 C.ar   63  DA63        0.1815
   1264  N7       -32.8180   14.8960   22.7040 N.ar   63  DA63       -0.2193
   1265  C5       -32.8510   16.1850   22.1960 C.ar   63  DA63        0.1518
   1266  C6       -32.7520   17.4460   22.8080 C.ar   63  DA63        0.1919
   1267  N6       -32.5950   17.6190   24.1230 N.pl3  63  DA63       -0.1054
   1268  N1       -32.8210   18.5360   22.0140 N.ar   63  DA63       -0.2040
   1269  C2       -32.9790   18.3610   20.6970 C.ar   63  DA63        0.2016
   1270  N3       -33.0850   17.2290   20.0060 N.ar   63  DA63       -0.2048
   1271  C4       -33.0120   16.1650   20.8230 C.ar   63  DA63        0.1691
   1272  P        -30.2120   11.9400   17.1920 P.3    64  DC64        0.2141
   1273  OP1      -29.8980   11.6190   15.7830 O.2    64  DC64       -0.5172
   1274  OP2      -30.0350   10.9140   18.2400 O.3    64  DC64       -0.4373
   1275  O5'      -29.3710   13.2320   17.6220 O.3    64  DC64       -0.3114
   1276  C5'      -29.2330   14.3200   16.7120 C.3    64  DC64        0.1811
   1277  C4'      -28.7150   15.5540   17.4240 C.3    64  DC64        0.1746
   1278  O4'      -29.5850   15.8700   18.5390 O.3    64  DC64       -0.3327
   1279  C3'      -27.3550   15.4180   18.0840 C.3    64  DC64        0.1558
   1280  O3'      -26.3160   15.5490   17.1410 O.3    64  DC64       -0.3138
   1281  C2'      -27.4100   16.6070   19.0290 C.3    64  DC64        0.0866
   1282  C1'      -28.8190   16.4320   19.5890 C.3    64  DC64        0.2106
   1283  N1       -28.7590   15.4440   20.7800 N.ar   64  DC64       -0.2556
   1284  C2       -28.3080   15.8470   22.0420 C.ar   64  DC64        0.3531
   1285  O2       -27.6730   16.9110   22.1380 O.2    64  DC64       -0.2443
   1286  N3       -28.5750   15.0680   23.1170 N.ar   64  DC64       -0.1739
   1287  C4       -29.2590   13.9330   22.9660 C.ar   64  DC64        0.1759
   1288  N4       -29.4970   13.1980   24.0550 N.pl3  64  DC64       -0.1070
   1289  C5       -29.7240   13.5070   21.6960 C.ar   64  DC64        0.0566
   1290  C6       -29.4590   14.2790   20.6370 C.ar   64  DC64        0.0849
   1291  P        -25.4980   14.6080   17.1740 P.3    65  DC65        0.2141
   1292  OP1      -24.8460   14.4850   15.8520 O.2    65  DC65       -0.5172
   1293  OP2      -26.0130   13.4090   17.8760 O.3    65  DC65       -0.4373
   1294  O5'      -24.4590   15.2430   18.2160 O.3    65  DC65       -0.3114
   1295  C5'      -23.6610   16.3750   17.8860 C.3    65  DC65        0.1811
   1296  C4'      -23.0580   17.0120   19.1160 C.3    65  DC65        0.1746
   1297  O4'      -24.0710   17.1010   20.1510 O.3    65  DC65       -0.3327
   1298  C3'      -21.9290   16.2450   19.7870 C.3    65  DC65        0.1558
   1299  O3'      -20.6650   16.4250   19.1790 O.3    65  DC65       -0.3138
   1300  C2'      -21.9840   16.7390   21.2250 C.3    65  DC65        0.0866
   1301  C1'      -23.4920   16.8640   21.4150 C.3    65  DC65        0.2106
   1302  N1       -24.1260   15.7070   22.0520 N.ar   65  DC65       -0.2556
   1303  C2       -23.9050   15.3610   23.3900 C.ar   65  DC65        0.3531
   1304  O2       -23.1440   16.0670   24.0730 O.2    65  DC65       -0.2443
   1305  N3       -24.5250   14.2690   23.9000 N.ar   65  DC65       -0.1739
   1306  C4       -25.3320   13.5400   23.1290 C.ar   65  DC65        0.1759
   1307  N4       -25.9210   12.4730   23.6740 N.pl3  65  DC65       -0.1070
   1308  C5       -25.5690   13.8740   21.7710 C.ar   65  DC65        0.0566
   1309  C6       -24.9550   14.9530   21.2720 C.ar   65  DC65        0.0849
   1310  P        -20.1870   15.3290   19.0250 P.3    66  DA66        0.2141
   1311  OP1      -18.8240   15.6410   18.5020 O.2    66  DA66       -0.5172
   1312  OP2      -20.8270   14.0330   18.7020 O.3    66  DA66       -0.4373
   1313  O5'      -20.1310   15.5540   20.5990 O.3    66  DA66       -0.3114
   1314  C5'      -19.5190   16.7260   21.1260 C.3    66  DA66        0.1811
   1315  C4'      -19.0840   16.5050   22.5510 C.3    66  DA66        0.1746
   1316  O4'      -20.2500   16.2050   23.3610 O.3    66  DA66       -0.3327
   1317  C3'      -18.1610   15.3190   22.7890 C.3    66  DA66        0.1558
   1318  O3'      -16.8050   15.6530   22.5320 O.3    66  DA66       -0.3138
   1319  C2'      -18.3990   15.0270   24.2630 C.3    66  DA66        0.0865
   1320  C1'      -19.8960   15.2880   24.3810 C.3    66  DA66        0.2094
   1321  N9       -20.7380   14.0280   24.1370 N.ar   66  DA66       -0.2714
   1322  C8       -21.3210   13.5290   23.0020 C.ar   66  DA66        0.1815
   1323  N7       -21.8670   12.3470   23.1640 N.ar   66  DA66       -0.2193
   1324  C5       -21.6240   12.0490   24.4950 C.ar   66  DA66        0.1518
   1325  C6       -21.9490   10.9360   25.2900 C.ar   66  DA66        0.1919
   1326  N6       -22.6180    9.8730   24.8360 N.pl3  66  DA66       -0.1054
   1327  N1       -21.5590   10.9530   26.5820 N.ar   66  DA66       -0.2040
   1328  C2       -20.8900   12.0190   27.0370 C.ar   66  DA66        0.2016
   1329  N3       -20.5270   13.1230   26.3880 N.ar   66  DA66       -0.2048
   1330  C4       -20.9290   13.0750   25.1070 C.ar   66  DA66        0.1691
   1331  P        -15.7070   14.5120   22.4650 P.3    67  DG67        0.2141
   1332  OP1      -14.4270   15.1210   22.0260 O.3    67  DG67       -0.4373
   1333  OP2      -16.4210   13.5790   21.5560 O.2    67  DG67       -0.5172
   1334  O5'      -15.4520   13.7820   23.8610 O.3    67  DG67       -0.3114
   1335  C5'      -14.9550   14.5060   24.9870 C.3    67  DG67        0.1811
   1336  C4'      -14.9360   13.6290   26.2220 C.3    67  DG67        0.1746
   1337  O4'      -16.3010   13.2750   26.5890 O.3    67  DG67       -0.3327
   1338  C3'      -14.2360   12.2870   26.0720 C.3    67  DG67        0.1558
   1339  O3'      -12.8240   12.3850   26.2210 O.3    67  DG67       -0.3138
   1340  C2'      -14.8860   11.4560   27.1740 C.3    67  DG67        0.0865
   1341  C1'      -16.3330   11.9500   27.1060 C.3    67  DG67        0.2094
   1342  N9       -17.1680   11.1200   26.2430 N.ar   67  DG67       -0.2713
   1343  C8       -17.6850   11.4240   25.0060 C.ar   67  DG67        0.1816
   1344  N7       -18.3880   10.4530   24.4890 N.ar   67  DG67       -0.2173
   1345  C5       -18.3350    9.4490   25.4380 C.ar   67  DG67        0.1748
   1346  C6       -18.9080    8.1510   25.4400 C.ar   67  DG67        0.3023
   1347  O6       -19.6030    7.6190   24.5660 O.2    67  DG67       -0.2633
   1348  N1       -18.6060    7.4510   26.6050 N.ar   67  DG67       -0.1709
   1349  C2       -17.8460    7.9410   27.6400 C.ar   67  DG67        0.2606
   1350  N2       -17.6650    7.1180   28.6810 N.pl3  67  DG67       -0.0859
   1351  N3       -17.3070    9.1440   27.6510 N.ar   67  DG67       -0.1918
   1352  C4       -17.5860    9.8420   26.5300 C.ar   67  DG67        0.1722
   1353  P        -11.8790   11.3930   25.3540 P.3    68  DC68        0.2141
   1354  OP1      -10.5560   11.9490   25.7180 O.3    68  DC68       -0.4373
   1355  OP2      -12.3650   11.5330   23.9640 O.2    68  DC68       -0.5172
   1356  O5'      -11.9230    9.8380   25.7440 O.3    68  DC68       -0.3114
   1357  C5'      -11.3150    9.3540   26.9440 C.3    68  DC68        0.1811
   1358  C4'      -11.9320    8.0460   27.4280 C.3    68  DC68        0.1746
   1359  O4'      -13.3880    8.0340   27.3060 O.3    68  DC68       -0.3327
   1360  C3'      -11.4970    6.7870   26.6860 C.3    68  DC68        0.1558
   1361  O3'      -10.1880    6.3840   27.0760 O.3    68  DC68       -0.3138
   1362  C2'      -12.5760    5.8260   27.1810 C.3    68  DC68        0.0866
   1363  C1'      -13.8380    6.6980   27.1110 C.3    68  DC68        0.2106
   1364  N1       -14.4570    6.6670   25.7530 N.ar   68  DC68       -0.2556
   1365  C2       -15.2030    5.5690   25.3100 C.ar   68  DC68        0.3531
   1366  O2       -15.2010    4.5300   25.9930 O.2    68  DC68       -0.2443
   1367  N3       -15.9010    5.6690   24.1540 N.ar   68  DC68       -0.1739
   1368  C4       -15.8730    6.8030   23.4540 C.ar   68  DC68        0.1759
   1369  N4       -16.5770    6.8550   22.3200 N.pl3  68  DC68       -0.1070
   1370  C5       -15.1240    7.9270   23.8850 C.ar   68  DC68        0.0566
   1371  C6       -14.4350    7.8240   25.0280 C.ar   68  DC68        0.0849
   1372  P         -9.1880    5.8340   26.0270 P.3    69  DT69        0.2141
   1373  OP1       -7.9080    6.0120   26.7520 O.3    69  DT69       -0.4373
   1374  OP2       -9.5300    6.7080   24.8810 O.2    69  DT69       -0.5172
   1375  O5'       -9.2770    4.3460   25.4340 O.3    69  DT69       -0.3114
   1376  C5'       -9.3100    3.2090   26.2890 C.3    69  DT69        0.1811
   1377  C4'      -10.0020    2.0400   25.6290 C.3    69  DT69        0.1746
   1378  O4'      -11.3550    2.4220   25.2720 O.3    69  DT69       -0.3327
   1379  C3'       -9.3750    1.5510   24.3340 C.3    69  DT69        0.1558
   1380  O3'       -8.3430    0.6060   24.5630 O.3    69  DT69       -0.3138
   1381  C2'      -10.5580    0.9970   23.5430 C.3    69  DT69        0.0866
   1382  C1'      -11.7140    1.8700   24.0290 C.3    69  DT69        0.2106
   1383  N1       -12.0470    3.0310   23.1590 N.ar   69  DT69       -0.2559
   1384  C2       -12.5850    2.9850   21.8870 C.ar   69  DT69        0.3545
   1385  O2       -12.6950    1.9530   21.2490 O.2    69  DT69       -0.2443
   1386  N3       -12.9910    4.1980   21.3840 N.ar   69  DT69       -0.1533
   1387  C4       -12.9140    5.4230   22.0110 C.ar   69  DT69        0.2804
   1388  O4       -13.3220    6.4270   21.4310 O.2    69  DT69       -0.2654
   1389  C5       -12.3430    5.3880   23.3280 C.ar   69  DT69        0.0534
   1390  C6       -11.9400    4.2230   23.8410 C.ar   69  DT69        0.0824
   1391  C7       -12.2160    6.6720   24.0930 C.3    69  DT69        0.0377
   1392  P         -6.7530    0.6800   23.7380 P.3    70  DT70        0.2141
   1393  OP1       -5.9780   -0.5960   23.9760 O.3    70  DT70       -0.4373
   1394  OP2       -5.8730    1.8760   23.6360 O.2    70  DT70       -0.5172
   1395  O5'       -7.7720    0.4800   22.5220 O.3    70  DT70       -0.3114
   1396  C5'       -7.8470   -0.8940   22.0350 C.3    70  DT70        0.1811
   1397  C4'       -8.3550   -0.8330   20.6190 C.3    70  DT70        0.1746
   1398  O4'       -9.5230   -0.0270   20.5800 O.3    70  DT70       -0.3327
   1399  C3'       -7.4400   -0.2370   19.5810 C.3    70  DT70        0.1558
   1400  O3'       -6.3930   -1.0770   19.0780 O.3    70  DT70       -0.3138
   1401  C2'       -8.4300    0.1530   18.4820 C.3    70  DT70        0.0866
   1402  C1'       -9.6320    0.6120   19.2960 C.3    70  DT70        0.2106
   1403  N1        -9.5010    2.1250   19.4570 N.ar   70  DT70       -0.2559
   1404  C2        -9.9900    2.9460   18.4590 C.ar   70  DT70        0.3545
   1405  O2       -10.3640    2.5270   17.3780 O.2    70  DT70       -0.2443
   1406  N3       -10.0260    4.2840   18.7720 N.ar   70  DT70       -0.1533
   1407  C4        -9.6310    4.8690   19.9570 C.ar   70  DT70        0.2804
   1408  O4        -9.7240    6.0870   20.0910 O.2    70  DT70       -0.2654
   1409  C5        -9.1340    3.9510   20.9430 C.ar   70  DT70        0.0534
   1410  C6        -9.0880    2.6450   20.6640 C.ar   70  DT70        0.0824
   1411  C7        -8.6780    4.4910   22.2660 C.3    70  DT70        0.0377
   1412  P         -4.8140   -0.4660   19.2080 P.3    71  DA71        0.2141
   1413  OP1       -3.5060   -0.7770   19.8420 O.3    71  DA71       -0.4373
   1414  OP2       -5.1220    0.9380   18.8470 O.2    71  DA71       -0.5172
   1415  O5'       -4.9540   -1.3110   17.8620 O.3    71  DA71       -0.3114
   1416  C5'       -4.5710   -0.7560   16.6110 C.3    71  DA71        0.1811
   1417  C4'       -5.7410   -0.7450   15.6540 C.3    71  DA71        0.1746
   1418  O4'       -6.8790   -0.0960   16.2860 O.3    71  DA71       -0.3327
   1419  C3'       -5.4790    0.0750   14.4000 C.3    71  DA71        0.1558
   1420  O3'       -4.7810   -0.6430   13.3880 O.3    71  DA71       -0.3138
   1421  C2'       -6.8730    0.5240   13.9930 C.3    71  DA71        0.0865
   1422  C1'       -7.5290    0.7590   15.3560 C.3    71  DA71        0.2094
   1423  N9        -7.2690    2.2950   15.6850 N.ar   71  DA71       -0.2714
   1424  C8        -6.8730    2.6230   16.9550 C.ar   71  DA71        0.1815
   1425  N7        -7.2010    3.8420   17.3140 N.ar   71  DA71       -0.2193
   1426  C5        -7.8560    4.3490   16.2030 C.ar   71  DA71        0.1518
   1427  C6        -8.4510    5.5970   15.9430 C.ar   71  DA71        0.1919
   1428  N6        -8.4800    6.5990   16.8240 N.pl3  71  DA71       -0.1054
   1429  N1        -9.0190    5.7800   14.7320 N.ar   71  DA71       -0.2040
   1430  C2        -8.9900    4.7740   13.8500 C.ar   71  DA71        0.2016
   1431  N3        -8.4630    3.5580   13.9790 N.ar   71  DA71       -0.2048
   1432  C4        -7.9050    3.4090   15.1920 C.ar   71  DA71        0.1691
   1433  P         -3.8460   -0.0550   12.9390 P.3    72  DT72        0.2141
   1434  OP1       -3.4600   -1.0860   11.9490 O.2    72  DT72       -0.5172
   1435  OP2       -2.8370    0.8400   13.5470 O.3    72  DT72       -0.4373
   1436  O5'       -4.8730    0.9420   12.2240 O.3    72  DT72       -0.3114
   1437  C5'       -5.6780    0.4560   11.1600 C.3    72  DT72        0.1811
   1438  C4'       -6.4590    1.5750   10.5170 C.3    72  DT72        0.1746
   1439  O4'       -6.9990    2.4210   11.5580 O.3    72  DT72       -0.3327
   1440  C3'       -5.6670    2.5300    9.6370 C.3    72  DT72        0.1558
   1441  O3'       -5.5100    2.0600    8.3080 O.3    72  DT72       -0.3138
   1442  C2'       -6.4620    3.8260    9.7200 C.3    72  DT72        0.0866
   1443  C1'       -7.0170    3.7630   11.1380 C.3    72  DT72        0.2106
   1444  N1        -6.2430    4.5170   12.2060 N.ar   72  DT72       -0.2559
   1445  C2        -6.4400    5.8820   12.2970 C.ar   72  DT72        0.3545
   1446  O2        -7.1870    6.4960   11.5560 O.2    72  DT72       -0.2443
   1447  N3        -5.7280    6.5070   13.2920 N.ar   72  DT72       -0.1533
   1448  C4        -4.8570    5.9170   14.1840 C.ar   72  DT72        0.2804
   1449  O4        -4.2900    6.6110   15.0240 O.2    72  DT72       -0.2654
   1450  C5        -4.7050    4.4980   14.0250 C.ar   72  DT72        0.0534
   1451  C6        -5.3860    3.8650   13.0660 C.ar   72  DT72        0.0824
   1452  C7        -3.7780    3.7640   14.9480 C.3    72  DT72        0.0377
   1453  P         -4.3720    2.5350    7.5940 P.3    73  DT73        0.2141
   1454  OP1       -4.2290    1.8740    6.2750 O.2    73  DT73       -0.5172
   1455  OP2       -3.2620    2.5140    8.5740 O.3    73  DT73       -0.4373
   1456  O5'       -4.7150    4.0920    7.3770 O.3    73  DT73       -0.3114
   1457  C5'       -5.4690    4.4790    6.2300 C.3    73  DT73        0.1811
   1458  C4'       -6.0210    5.8850    6.2920 C.3    73  DT73        0.1746
   1459  O4'       -6.5740    6.1560    7.6050 O.3    73  DT73       -0.3327
   1460  C3'       -5.0360    7.0230    6.0810 C.3    73  DT73        0.1558
   1461  O3'       -4.6920    7.2460    4.7240 O.3    73  DT73       -0.3138
   1462  C2'       -5.7760    8.1940    6.7100 C.3    73  DT73        0.0866
   1463  C1'       -6.4060    7.5230    7.9280 C.3    73  DT73        0.2106
   1464  N1        -5.5720    7.6710    9.1180 N.ar   73  DT73       -0.2559
   1465  C2        -5.5540    8.8840    9.7810 C.ar   73  DT73        0.3545
   1466  O2        -6.1480    9.8690    9.3790 O.2    73  DT73       -0.2443
   1467  N3        -4.8100    8.9050   10.9360 N.ar   73  DT73       -0.1533
   1468  C4        -4.0980    7.8580   11.4830 C.ar   73  DT73        0.2804
   1469  O4        -3.4780    8.0290   12.5290 O.2    73  DT73       -0.2654
   1470  C5        -4.1650    6.6330   10.7360 C.ar   73  DT73        0.0534
   1471  C6        -4.8810    6.5850    9.6100 C.ar   73  DT73        0.0824
   1472  C7        -3.4220    5.4350   11.2490 C.3    73  DT73        0.0377
   1473  P         -3.7150    7.7100    4.6630 P.3    74  DC74        0.2141
   1474  OP1       -4.1660    7.3580    3.2900 O.2    74  DC74       -0.5172
   1475  OP2       -2.4500    7.1390    5.1950 O.3    74  DC74       -0.4373
   1476  O5'       -3.6370    9.2970    4.7700 O.3    74  DC74       -0.3114
   1477  C5'       -4.6890   10.1200    4.2400 C.3    74  DC74        0.1811
   1478  C4'       -4.7020   11.4660    4.9240 C.3    74  DC74        0.1746
   1479  O4'       -4.9730   11.2980    6.3400 O.3    74  DC74       -0.3327
   1480  C3'       -3.3990   12.2430    4.9120 C.3    74  DC74        0.1558
   1481  O3'       -3.2000   12.8980    3.6690 O.3    74  DC74       -0.3138
   1482  C2'       -3.6260   13.2300    6.0500 C.3    74  DC74        0.0866
   1483  C1'       -4.3490   12.3450    7.0660 C.3    74  DC74        0.2106
   1484  N1        -3.4300   11.7930    8.0200 N.ar   74  DC74       -0.2556
   1485  C2        -3.0150   12.5710    9.1080 C.ar   74  DC74        0.3531
   1486  O2        -3.4630   13.7240    9.2240 O.2    74  DC74       -0.2443
   1487  N3        -2.1380   12.0460    9.9970 N.ar   74  DC74       -0.1739
   1488  C4        -1.6820   10.8040    9.8320 C.ar   74  DC74        0.1759
   1489  N4        -0.8200   10.3290   10.7340 N.pl3  74  DC74       -0.1070
   1490  C5        -2.0910   10.0000    8.7370 C.ar   74  DC74        0.0566
   1491  C6        -2.9560   10.5220    7.8600 C.ar   74  DC74        0.0849
   1492  P         -1.8360   13.1130    3.2390 P.3    75  DA75        0.2141
   1493  OP1       -0.9050   13.8610    2.3590 O.2    75  DA75       -0.5172
   1494  OP2       -1.3560   11.9170    3.9810 O.3    75  DA75       -0.4373
   1495  O5'       -2.4490   14.1450    4.2840 O.3    75  DA75       -0.3114
   1496  C5'       -2.8360   15.4750    3.8740 C.3    75  DA75        0.1811
   1497  C4'       -2.1400   16.5150    4.7290 C.3    75  DA75        0.1746
   1498  O4'       -2.3680   16.2120    6.1330 O.3    75  DA75       -0.3327
   1499  C3'       -0.6230   16.5740    4.6220 C.3    75  DA75        0.1558
   1500  O3'       -0.2030   17.3610    3.5180 O.3    75  DA75       -0.3138
   1501  C2'       -0.2450   17.2390    5.9370 C.3    75  DA75        0.0865
   1502  C1'       -1.2190   16.5540    6.8920 C.3    75  DA75        0.2094
   1503  N9        -0.5910   15.2020    7.3980 N.ar   75  DA75       -0.2714
   1504  C8        -0.6380   13.9400    6.8670 C.ar   75  DA75        0.1815
   1505  N7         0.1020   13.0680    7.5100 N.ar   75  DA75       -0.2193
   1506  C5         0.6740   13.8080    8.5320 C.ar   75  DA75        0.1518
   1507  C6         1.5630   13.4650    9.5650 C.ar   75  DA75        0.1919
   1508  N6         2.0480   12.2340    9.7450 N.pl3  75  DA75       -0.1054
   1509  N1         1.9410   14.4410   10.4180 N.ar   75  DA75       -0.2040
   1510  C2         1.4530   15.6740   10.2380 C.ar   75  DA75        0.2016
   1511  N3         0.6130   16.1180    9.3060 N.ar   75  DA75       -0.2048
   1512  C4         0.2580   15.1250    8.4750 C.ar   75  DA75        0.1691
   1513  P          1.1950   16.9280    2.7670 P.3    76  DA76        0.2141
   1514  OP1        1.8170   17.8900    1.8300 O.2    76  DA76       -0.5172
   1515  OP2        1.4980   15.4870    2.6440 O.3    76  DA76       -0.4373
   1516  O5'        1.6300   17.2880    4.2650 O.3    76  DA76       -0.3114
   1517  C5'        1.5030   18.6130    4.7660 C.3    76  DA76        0.1811
   1518  C4'        2.3580   18.8190    5.9900 C.3    76  DA76        0.1746
   1519  O4'        1.9200   17.9180    7.0380 O.3    76  DA76       -0.3327
   1520  C3'        3.8330   18.5000    5.8100 C.3    76  DA76        0.1558
   1521  O3'        4.5600   19.5790    5.2580 O.3    76  DA76       -0.3138
   1522  C2'        4.2810   18.1150    7.2120 C.3    76  DA76        0.0865
   1523  C1'        3.0310   17.4130    7.7430 C.3    76  DA76        0.2094
   1524  N9         3.1140   15.9670    7.5750 N.ar   76  DA76       -0.2714
   1525  C8         2.5440   15.1890    6.6020 C.ar   76  DA76        0.1815
   1526  N7         2.7850   13.9070    6.7410 N.ar   76  DA76       -0.2191
   1527  C5         3.5680   13.8390    7.8830 C.ar   76  DA76        0.1545
   1528  C6         4.1540   12.7580    8.5650 C.ar   76  DA76        0.2060
   1529  N6         4.0340   11.4860    8.1760 N.2    76  DA76       -0.1252
   1530  N1         4.8750   13.0330    9.6720 N.ar   76  DA76       -0.2017
   1531  C2         4.9940   14.3070   10.0610 C.ar   76  DA76        0.2017
   1532  N3         4.4900   15.4060    9.5050 N.ar   76  DA76       -0.2048
   1533  C4         3.7800   15.1000    8.4070 C.ar   76  DA76        0.1693
   1534  P          5.1780   19.2130    4.4060 P.3    77  DT77        0.2141
   1535  OP1        5.4090   20.5280    3.7570 O.3    77  DT77       -0.4373
   1536  OP2        5.1010   17.9850    3.5770 O.2    77  DT77       -0.5172
   1537  O5'        6.3260   19.0020    5.4870 O.3    77  DT77       -0.3113
   1538  C5'        6.6860   20.0580    6.3900 C.3    77  DT77        0.1836
   1539  C4'        7.6800   19.5610    7.4090 C.3    77  DT77        0.1992
   1540  O4'        7.0770   18.5040    8.2010 O.3    77  DT77       -0.3301
   1541  C3'        8.9530   18.9300    6.8610 C.3    77  DT77        0.2381
   1542  O3'        9.9410   19.8900    6.5320 O.3    77  DT77       -0.2491
   1543  C2'        9.4080   18.0580    8.0200 C.3    77  DT77        0.1137
   1544  C1'        8.0740   17.5680    8.5810 C.3    77  DT77        0.2132
   1545  N1         7.7180   16.2690    8.0670 N.ar   77  DT77       -0.2558
   1546  C2         8.2580   15.1600    8.6900 C.ar   77  DT77        0.3545
   1547  O2         8.9790   15.2330    9.6690 O.2    77  DT77       -0.2443
   1548  N3         7.9240   13.9540    8.1220 N.ar   77  DT77       -0.1533
   1549  C4         7.1220   13.7510    7.0180 C.ar   77  DT77        0.2804
   1550  O4         6.9120   12.6060    6.6250 O.2    77  DT77       -0.2654
   1551  C5         6.6000   14.9510    6.4270 C.ar   77  DT77        0.0534
   1552  C6         6.9090   16.1370    6.9590 C.ar   77  DT77        0.0824
   1553  C7         5.7160   14.8350    5.2200 C.3    77  DT77        0.0377
   1554  P         10.5670   19.4610    5.8920 P.3    78  DT78        0.4833
   1555  OP1       11.3040   19.7850    4.6410 O.2    78  DT78       -0.2269
   1556  OP2        9.2960   18.6870    5.8290 O.3    78  DT78       -0.2491
   1557  O5'       11.5140   18.6480    6.8650 O.3    78  DT78       -0.2704
   1558  C5'       12.6990   19.2200    7.3540 C.3    78  DT78        0.1857
   1559  C4'       13.3660   18.2230    8.2340 C.3    78  DT78        0.1775
   1560  O4'       12.6230   18.1150    9.4690 O.3    78  DT78       -0.3489
   1561  C3'       13.3430   16.8260    7.6480 C.3    78  DT78        0.2045
   1562  O3'       14.4170   16.6560    6.7280 O.3    78  DT78       -0.2183
   1563  C2'       13.4180   15.9370    8.8840 C.3    78  DT78        0.1521
   1564  C1'       12.6760   16.7830    9.9260 C.3    78  DT78        0.1675
   1565  N1        12.2150   15.0570    7.9790 N.ar   78  DT78       -0.2754
   1566  C2        12.4940   13.7070    8.0840 C.ar   78  DT78        0.3529
   1567  O2        13.3960   13.2680    8.7760 O.2    78  DT78       -0.2443
   1568  N3        11.6780   12.8850    7.3460 N.ar   78  DT78       -0.1534
   1569  C4        10.6330   13.2680    6.5300 C.ar   78  DT78        0.2804
   1570  O4         9.9890   12.4120    5.9300 O.2    78  DT78       -0.2654
   1571  C5        10.4060   14.6850    6.4730 C.ar   78  DT78        0.0534
   1572  C6        11.1850   15.5070    7.1810 C.ar   78  DT78        0.0803
   1573  C7         9.2910   15.2020    5.6120 C.3    78  DT78        0.0377
@<TRIPOS>BOND
     1   481   480    1
     2   480   479   ar
     3   480   482   ar
     4   479   477   ar
     5   482   483   ar
     6   477   478    2
     7   477   476   ar
     8   483   476   ar
     9   476   475    1
    10   445   443    2
    11   459   458    2
    12   467   465    1
    13   475   471    1
    14   475   474    1
    15   468   465    1
    16   468   469    1
    17   465   466    1
    18   456   457   ar
    19   456   455   ar
    20   458   457   ar
    21   458   460   ar
    22   471   470    1
    23   474   472    1
    24   443   444    1
    25   443   432    1
    26   443   446    1
    27   457   464   ar
    28   432   431    1
    29   460   461   ar
    30   455   454   ar
    31   469   470    1
    32   428   427    1
    33   428   429    1
    34   446   447    1
    35   470   472    1
    36   425   424    2
    37   431   429    1
    38   431   433    1
    39   466   451    1
    40   472   473    1
    41   427   424    1
    42   464   454   ar
    43   464   463   ar
    44   454   453    1
    45   429   430    1
    46   450   451    1
    47   450   452    1
    48   450   448    1
    49   461   463   ar
    50   461   462    1
    51   424   426    1
    52   424   412    1
    53   447   448    1
    54   473   485    1
    55   452   453    1
    56   433   434    1
    57   448   449    1
    58   453   449    1
    59   430   434    1
    60   442   441   ar
    61   442   435   ar
    62   441   439   ar
    63   490   489    1
    64   490   494    1
    65   489   488    1
    66   489   491    1
    67   434   435    1
    68   435   436   ar
    69   488   487    1
    70   412   411    1
    71   485   484    1
    72   494   493    1
    73   494   495    1
    74   439   440    1
    75   439   438   ar
    76   492   491    1
    77   492   505    1
    78   493   491    1
    79   436   438   ar
    80   436   437    2
    81   484   487    1
    82   484   486    1
    83   413   411    1
    84   413   414    1
    85   506   505    2
    86   511   510    1
    87   511   515    1
    88   509   510    1
    89   509   508    1
    90   510   512    1
    91   411   409    1
    92   495   504   ar
    93   495   496   ar
    94   503   504   ar
    95   503   502   ar
    96   505   508    1
    97   505   507    1
    98   515   514    1
    99   515   516    1
   100   417   416    2
   101   504   498   ar
   102   496   497   ar
   103   414   415    1
   104   414   410    1
   105   409   410    1
   106   409   408    1
   107   514   512    1
   108   502   501   ar
   109   512   513    1
   110   513   525    1
   111   416   415   ar
   112   416   418   ar
   113   415   422   ar
   114   516   523   ar
   115   516   517   ar
   116   418   419   ar
   117   498   497   ar
   118   498   499   ar
   119   526   525    2
   120   523   522   ar
   121   518   517    2
   122   408   407    1
   123   501   499   ar
   124   422   421   ar
   125   517   519   ar
   126   419   421   ar
   127   419   420    2
   128   525   527    1
   129   525   528    1
   130   499   500    1
   131   407   404    1
   132   421   423    1
   133   522   524    1
   134   522   520   ar
   135   519   520   ar
   136   405   404    2
   137   529   528    1
   138   529   530    1
   139   404   406    1
   140   404   391    1
   141   520   521    2
   142   281   280    2
   143   400   401   ar
   144   400   398   ar
   145   401   402   ar
   146   531   530    1
   147   531   535    1
   148   302   301    2
   149   530   532    1
   150   544   542    1
   151   399   398    1
   152   402   403   ar
   153   398   397   ar
   154   543   542   ar
   155   543   536   ar
   156   542   540   ar
   157   391   390    1
   158   392   390    1
   159   392   393    1
   160   280   269    1
   161   280   282    1
   162   280   283    1
   163   536   535    1
   164   536   537   ar
   165   403   397   ar
   166   403   394   ar
   167   301   303    1
   168   301   288    1
   169   301   304    1
   170   535   534    1
   171   397   396   ar
   172   269   268    1
   173   284   283    1
   174   284   285    1
   175   288   287    1
   176   390   388    1
   177   540   541    2
   178   540   539   ar
   179   532   533    1
   180   532   534    1
   181   537   539   ar
   182   537   538    2
   183   394   393    1
   184   394   395   ar
   185   396   395   ar
   186   393   389    1
   187   533   545    1
   188   285   287    1
   189   285   286    1
   190   287   289    1
   191   304   305    1
   192   305   306    1
   193   262   261    2
   194   265   266    1
   195   265   264    1
   196   268   266    1
   197   268   270    1
   198   266   267    1
   199   388   389    1
   200   388   387    1
   201   545   547    2
   202   545   546    1
   203   545   548    1
   204   324   322    2
   205   270   271    1
   206   378   377    1
   207   264   261    1
   208   323   322    1
   209   386   387    1
   210   386   383    1
   211   286   290    1
   212   379   377   ar
   213   379   380   ar
   214   289   290    1
   215   261   249    1
   216   261   263    1
   217   267   271    1
   218   377   376   ar
   219   385   383    2
   220   306   308    1
   221   306   307    1
   222   322   309    1
   223   322   325    1
   224   548   549    1
   225   549   550    1
   226   309   308    1
   227   380   381   ar
   228   271   272    1
   229   308   310    1
   230   557   558   ar
   231   557   556   ar
   232   383   384    1
   233   383   370    1
   234   290   291    1
   235   551   550    1
   236   551   555    1
   237   558   559   ar
   238   341   339    1
   239   376   375   ar
   240   376   382   ar
   241   307   311    1
   242   249   248    1
   243   381   382   ar
   244   550   552    1
   245   375   374   ar
   246   382   373   ar
   247   556   555    1
   248   556   565   ar
   249   292   291   ar
   250   292   293   ar
   251   559   565   ar
   252   559   560   ar
   253   561   560    1
   254   291   300   ar
   255   325   326    1
   256   313   314   ar
   257   313   312   ar
   258   555   554    1
   259   358   357    2
   260   272   279   ar
   261   272   273   ar
   262   565   564   ar
   263   560   562   ar
   264   371   369    1
   265   371   372    1
   266   338   337    2
   267   370   369    1
   268   374   373   ar
   269   373   372    1
   270   310   311    1
   271   339   337   ar
   272   339   340   ar
   273   274   273    2
   274   314   315   ar
   275   311   312    1
   276   279   278   ar
   277   361   359    1
   278   369   367    1
   279   248   250    1
   280   248   246    1
   281   344   342    2
   282   293   294   ar
   283   250   251    1
   284   552   554    1
   285   552   553    1
   286   312   321   ar
   287   273   275   ar
   288   326   327    1
   289   337   336   ar
   290   564   563   ar
   291   562   563   ar
   292   357   359   ar
   293   357   356   ar
   294   372   368    1
   295   300   294   ar
   296   300   299   ar
   297   340   333   ar
   298   246   245    1
   299   246   247    1
   300   364   362    2
   301   359   360   ar
   302   245   244    1
   303   294   295   ar
   304   278   276   ar
   305   553   566    1
   306   315   321   ar
   307   315   316   ar
   308   365   362    1
   309   365   366    1
   310   299   298   ar
   311   356   354   ar
   312   321   320   ar
   313   367   368    1
   314   367   366    1
   315   275   276   ar
   316   342   330    1
   317   342   343    1
   318   342   345    1
   319   251   247    1
   320   251   252    1
   321   582   581    1
   322   336   334   ar
   323   327   329    1
   324   327   328    1
   325   568   566    2
   326   329   330    1
   327   329   331    1
   328   362   363    1
   329   362   350    1
   330   276   277    1
   331   360   353   ar
   332   333   334   ar
   333   333   332    1
   334   244   241    1
   335   583   581   ar
   336   583   584   ar
   337   254   253    2
   338   328   332    1
   339   581   580   ar
   340   317   316    1
   341   316   318   ar
   342   345   346    1
   343   566   567    1
   344   566   569    1
   345   354   353   ar
   346   354   355    2
   347   331   332    1
   348   334   335    2
   349   295   296    1
   350   295   297   ar
   351   298   297   ar
   352   252   253   ar
   353   252   259   ar
   354   242   241    2
   355   320   319   ar
   356   584   577   ar
   357   678   677    2
   358   353   352    1
   359   253   255   ar
   360   691   690    1
   361   691   695    1
   362   580   578   ar
   363   349   350    1
   364   349   351    1
   365   349   347    1
   366   690   689    1
   367   690   692    1
   368   241   229    1
   369   241   243    1
   370   674   675    1
   371   674   672    1
   372   695   694    1
   373   695   696    1
   374   694   692    1
   375   601   600    1
   376   259   258   ar
   377   351   352    1
   378   569   570    1
   379   229   228    1
   380   675   671    1
   381   675   676    1
   382   662   663   ar
   383   662   661   ar
   384   577   578   ar
   385   577   576    1
   386   318   319   ar
   387   693   692    1
   388   693   706    1
   389   663   664   ar
   390   346   347    1
   391   578   579    2
   392   689   688    1
   393   677   676   ar
   394   677   679   ar
   395   255   256   ar
   396   572   576    1
   397   572   571    1
   398   352   348    1
   399   671   670    1
   400   347   348    1
   401   710   711    1
   402   710   709    1
   403   712   711    1
   404   712   716    1
   405   570   571    1
   406   704   705   ar
   407   704   703   ar
   408   661   659   ar
   409   600   599   ar
   410   600   602   ar
   411   576   575    1
   412   258   256   ar
   413   258   260    1
   414   673   672    1
   415   673   685    1
   416   676   683   ar
   417   670   672    1
   418   670   669    1
   419   711   713    1
   420   696   705   ar
   421   696   697   ar
   422   230   228    1
   423   230   231    1
   424   707   706    2
   425   679   680   ar
   426   228   226    1
   427   256   257    2
   428   654   653    1
   429   654   650    1
   430   654   655    1
   431   706   709    1
   432   706   708    1
   433   599   597   ar
   434   664   655   ar
   435   664   658   ar
   436   705   699   ar
   437   571   573    1
   438   688   685    1
   439   653   651    1
   440   703   702   ar
   441   637   636    2
   442   602   603   ar
   443   234   233    2
   444   650   649    1
   445   716   715    1
   446   716   717    1
   447   620   619    2
   448   655   656   ar
   449   697   698   ar
   450   659   658   ar
   451   659   660    1
   452   686   685    2
   453   683   682   ar
   454   638   636   ar
   455   638   639   ar
   456   685   687    1
   457   669   668    1
   458   226   225    1
   459   226   227    1
   460   573   575    1
   461   573   574    1
   462   658   657   ar
   463   618   619   ar
   464   618   616   ar
   465   713   715    1
   466   713   714    1
   467   649   651    1
   468   649   648    1
   469   680   682   ar
   470   680   681    2
   471   636   635   ar
   472   597   598    2
   473   597   596   ar
   474   714   725    1
   475   668   665    1
   476   233   232   ar
   477   233   235   ar
   478   231   232    1
   479   231   227    1
   480   699   698   ar
   481   699   700   ar
   482   619   621   ar
   483   717   724   ar
   484   717   718   ar
   485   603   596   ar
   486   702   700   ar
   487   724   723   ar
   488   651   652    1
   489   232   239   ar
   490   617   616    2
   491   640   639    2
   492   652   665    1
   493   682   684    1
   494   225   224    1
   495   719   718    2
   496   596   595    1
   497   656   657   ar
   498   616   615   ar
   499   235   236   ar
   500   700   701    1
   501   639   641   ar
   502   718   720   ar
   503   723   721   ar
   504   224   221    1
   505   648   647    1
   506   587   585    2
   507   574   585    1
   508   635   634    1
   509   635   642   ar
   510   725   726    2
   511   725   727    1
   512   725   728    1
   513   621   623    1
   514   621   622   ar
   515   239   238   ar
   516   729   728    1
   517   729   730    1
   518   665   667    2
   519   665   666    1
   520   720   721   ar
   521   634   633    1
   522   634   630    1
   523   236   238   ar
   524   236   237    2
   525   721   722    1
   526   615   622   ar
   527   615   614    1
   528   633   631    1
   529   595   591    1
   530   595   594    1
   531   238   240    1
   532   641   642   ar
   533   641   643    1
   534   731   730    1
   535   731   735    1
   536   647   644    1
   537   591   590    1
   538   585   588    1
   539   585   586    1
   540   730   732    1
   541   222   221    2
   542   221   223    1
   543   221   208    1
   544   588   589    1
   545   614   613    1
   546   614   610    1
   547   630   629    1
   548   594   592    1
   549   743   742   ar
   550   743   736   ar
   551   735   736    1
   552   735   734    1
   553   631   629    1
   554   631   632    1
   555   613   611    1
   556   590   589    1
   557   590   592    1
   558   217   218   ar
   559   217   215   ar
   560   742   740   ar
   561   736   737   ar
   562   218   219   ar
   563   644   632    1
   564   644   645    2
   565   644   646    1
   566   610   609    1
   567   592   593    1
   568   629   628    1
   569   208   207    1
   570   732   733    1
   571   732   734    1
   572   216   215    1
   573   215   214   ar
   574   219   220   ar
   575   209   207    1
   576   209   210    1
   577   733   744    1
   578   207   205    1
   579   740   739   ar
   580   740   741    1
   581   737   738    2
   582   737   739   ar
   583   220   214   ar
   584   220   211   ar
   585   214   213   ar
   586   611   609    1
   587   611   612    1
   588   609   608    1
   589   606   604    2
   590   211   210    1
   591   211   212   ar
   592   213   212   ar
   593   628   627    1
   594   593   604    1
   595   627   624    1
   596   607   604    1
   597   607   608    1
   598   210   206    1
   599   744   745    2
   600   744   746    1
   601   744   747    1
   602   612   624    1
   603   604   605    1
   604   205   206    1
   605   205   204    1
   606   203   204    1
   607   203   200    1
   608   626   624    2
   609   624   625    1
   610   747   748    1
   611   202   200    2
   612   200   201    1
   613   200   188    1
   614   757   756   ar
   615   757   758   ar
   616   756   755   ar
   617   750   754    1
   618   750   749    1
   619   760   759    1
   620   196   195    2
   621   748   749    1
   622   758   759   ar
   623   758   764   ar
   624   199   197    1
   625   759   761   ar
   626   755   754    1
   627   755   764   ar
   628   754   753    1
   629   182   180    2
   630   195   197   ar
   631   195   194   ar
   632   749   751    1
   633   764   763   ar
   634   197   198   ar
   635   761   762   ar
   636   181   180    1
   637   188   187    1
   638   194   192   ar
   639   763   762   ar
   640   180   183    1
   641   180   168    1
   642   187   189    1
   643   187   185    1
   644   198   191   ar
   645   179   177    1
   646   183   184    1
   647   176   175    2
   648   189   190    1
   649   753   751    1
   650   162   160    2
   651   192   191   ar
   652   192   193    2
   653   751   752    1
   654   191   190    1
   655   161   160    1
   656   142   141    1
   657   175   177   ar
   658   175   174   ar
   659   177   178   ar
   660   168   167    1
   661   184   185    1
   662   164   163    1
   663   164   165    1
   664   190   186    1
   665   160   163    1
   666   160   149    1
   667   185   186    1
   668   178   171   ar
   669   174   172   ar
   670   167   165    1
   671   167   169    1
   672   752   765    1
   673   120   119    2
   674   121   119    1
   675    99    98    2
   676   171   172   ar
   677   171   170    1
   678   172   173    2
   679   778   777   ar
   680   778   779   ar
   681   781   780    2
   682   165   166    1
   683   141   143    1
   684   141   144    1
   685   157   156    1
   686   777   776   ar
   687   767   765    2
   688   119   122    1
   689   119   106    1
   690   100    98    1
   691   169   170    1
   692   143   126    1
   693   158   156   ar
   694   158   159   ar
   695   780   779   ar
   696   780   782   ar
   697   779   786   ar
   698   166   170    1
   699   144   145    1
   700   149   148    1
   701   156   155   ar
   702   765   768    1
   703   765   766    1
   704    80    79    2
   705    98    87    1
   706    98   101    1
   707   148   150    1
   708   148   146    1
   709   771   775    1
   710   771   770    1
   711   768   769    1
   712   776   786   ar
   713   776   775    1
   714   122   123    1
   715   159   152   ar
   716    81    79    1
   717   786   785   ar
   718   782   783   ar
   719   155   153   ar
   720   127   126    1
   721   769   770    1
   722   145   146    1
   723    79    82    1
   724    79    68    1
   725   123   124    1
   726   775   774    1
   727   106   105    1
   728    87    86    1
   729   101   102    1
   730   152   153   ar
   731   152   151    1
   732   150   151    1
   733   126   124    1
   734   126   128    1
   735   153   154    2
   736   770   772    1
   737   783   785   ar
   738   783   784    1
   739   146   147    1
   740    82    83    1
   741   132   131   ar
   742   132   133   ar
   743   105   103    1
   744   105   107    1
   745    68    67    1
   746    61    60    2
   747   102   103    1
   748   135   134    2
   749   124   125    1
   750    83    84    1
   751   131   130   ar
   752   151   147    1
   753    86    84    1
   754    86    88    1
   755   133   134   ar
   756   133   140   ar
   757   134   136   ar
   758   803   802    1
   759   128   129    1
   760   774   772    1
   761   772   773    1
   762   103   104    1
   763    84    85    1
   764   130   140   ar
   765   130   129    1
   766   107   108    1
   767   125   129    1
   768   140   139   ar
   769   136   137   ar
   770   802   804   ar
   771   802   801   ar
   772    67    65    1
   773    67    69    1
   774    60    63    1
   775    60    62    1
   776    60    47    1
   777    64    65    1
   778    64    63    1
   779   804   805   ar
   780   801   799   ar
   781    88    89    1
   782   139   137   ar
   783   137   138    1
   784   110   111   ar
   785   110   109   ar
   786   111   112   ar
   787    65    66    1
   788   104   108    1
   789   773   787    1
   790   108   109    1
   791   805   798   ar
   792    47    46    1
   793   799   798   ar
   794   799   800    2
   795    85    89    1
   796    69    70    1
   797   109   118   ar
   798   112   113   ar
   799   112   118   ar
   800   114   113    1
   801   798   797    1
   802   113   115   ar
   803   118   117   ar
   804    97    96   ar
   805    97    90   ar
   806    89    90    1
   807   789   787    2
   808    96    94   ar
   809   793   797    1
   810   793   792    1
   811    66    70    1
   812   787   790    1
   813   787   788    1
   814    90    91   ar
   815   115   116   ar
   816   117   116   ar
   817   797   796    1
   818   822   821    2
   819    70    71    1
   820   790   791    1
   821    46    44    1
   822    46    48    1
   823    94    95    1
   824    94    93   ar
   825   791   792    1
   826    91    93   ar
   827    91    92    2
   828    40    39    2
   829   821   820   ar
   830   821   823   ar
   831    44    43    1
   832    44    45    1
   833   820   818   ar
   834    43    42    1
   835    48    49    1
   836   792   794    1
   837    71    78   ar
   838    71    72   ar
   839    78    77   ar
   840   796   794    1
   841   819   818    2
   842   818   817   ar
   843   823   825    1
   844   823   824   ar
   845    42    39    1
   846   794   795    1
   847    39    27    1
   848    39    41    1
   849    73    72    2
   850    45    49    1
   851   824   817   ar
   852   817   816    1
   853    72    74   ar
   854    49    50    1
   855    77    75   ar
   856  1514  1513    2
   857    27    26    1
   858   816   812    1
   859   816   815    1
   860  1493  1492    2
   861    74    75   ar
   862   812   811    1
   863   795   807    1
   864    75    76    1
   865    50    51   ar
   866    50    59   ar
   867  1515  1513    1
   868  1513  1500    1
   869  1513  1516    1
   870    51    52   ar
   871    58    59   ar
   872    58    57   ar
   873    59    53   ar
   874  1492  1481    1
   875  1492  1494    1
   876  1492  1495    1
   877    26    28    1
   878    26    24    1
   879  1474  1473    2
   880  1500  1499    1
   881    28    29    1
   882  1536  1534    2
   883  1481  1480    1
   884   815   813    1
   885  1535  1534    1
   886   811   810    1
   887   811   813    1
   888   806   809    1
   889   806   807    1
   890   806   808    1
   891  1496  1495    1
   892  1496  1497    1
   893    52    53   ar
   894   810   809    1
   895    57    56   ar
   896    53    54   ar
   897    24    23    1
   898    24    25    1
   899  1477  1476    1
   900  1477  1478    1
   901  1516  1517    1
   902    23    22    1
   903  1534  1521    1
   904  1534  1537    1
   905   813   814    1
   906  1499  1497    1
   907  1499  1501    1
   908  1555  1554    2
   909  1473  1461    1
   910  1473  1476    1
   911  1473  1475    1
   912  1461  1460    1
   913  1497  1498    1
   914  1517  1518    1
   915   842   841    2
   916  1480  1478    1
   917  1480  1482    1
   918  1478  1479    1
   919    56    54   ar
   920    54    55    1
   921    29    25    1
   922    29    30    1
   923    32    31    2
   924   845   843    1
   925   841   843   ar
   926   841   840   ar
   927  1553  1551    1
   928  1521  1520    1
   929   843   844   ar
   930  1537  1538    1
   931   840   838   ar
   932  1573  1571    1
   933    22    19    1
   934  1520  1518    1
   935  1520  1522    1
   936  1556  1554    1
   937  1556  1541    1
   938   814   826    1
   939    30    31   ar
   940    30    37   ar
   941    31    33   ar
   942  1554  1542    1
   943  1554  1557    1
   944   844   837   ar
   945  1570  1569    2
   946  1501  1502    1
   947   838   837   ar
   948   838   839    2
   949  1518  1519    1
   950  1482  1483    1
   951  1460  1458    1
   952  1460  1462    1
   953  1498  1502    1
   954   837   836    1
   955  1457  1458    1
   956  1457  1456    1
   957  1454  1453    2
   958  1458  1459    1
   959   828   826    2
   960   832   836    1
   961   832   831    1
   962  1479  1483    1
   963  1538  1539    1
   964  1551  1552   ar
   965  1551  1549   ar
   966  1571  1569   ar
   967  1571  1572   ar
   968  1569  1568   ar
   969  1542  1541    1
   970  1525  1526   ar
   971  1525  1524   ar
   972  1550  1549    2
   973    37    36   ar
   974  1462  1463    1
   975  1562  1561    1
   976  1526  1527   ar
   977   829   826    1
   978   829   830    1
   979    33    34   ar
   980   836   835    1
   981  1541  1539    1
   982  1541  1543    1
   983  1557  1558    1
   984  1504  1503   ar
   985  1504  1505   ar
   986    20    19    2
   987  1502  1503    1
   988    10    11   ar
   989    10     9   ar
   990  1552  1545   ar
   991    11    12   ar
   992    19    21    1
   993    19     6    1
   994   826   827    1
   995  1549  1548   ar
   996  1519  1523    1
   997  1483  1484    1
   998   830   831    1
   999  1572  1565   ar
  1000  1522  1523    1
  1001  1568  1566   ar
  1002  1558  1559    1
  1003  1456  1453    1
  1004  1503  1512   ar
  1005  1539  1540    1
  1006     7     8    1
  1007     7     5    1
  1008   831   833    1
  1009  1505  1506   ar
  1010    36    34   ar
  1011    36    38    1
  1012  1524  1523    1
  1013  1524  1533   ar
  1014  1453  1441    1
  1015  1453  1455    1
  1016  1459  1463    1
  1017  1561  1559    1
  1018  1561  1563    1
  1019    34    35    2
  1020   862   861    1
  1021  1491  1484   ar
  1022  1491  1490   ar
  1023  1527  1533   ar
  1024  1527  1528   ar
  1025  1463  1464    1
  1026     9     8    1
  1027     9    18   ar
  1028  1565  1566   ar
  1029  1565  1563    1
  1030  1484  1485   ar
  1031  1543  1544    1
  1032  1545  1544    1
  1033  1545  1546   ar
  1034  1566  1567    2
  1035    12    18   ar
  1036    12    13   ar
  1037  1548  1546   ar
  1038  1529    14    1
  1039  1529  1528    2
  1040     8     4    1
  1041  1540  1544    1
  1042  1559  1560    1
  1043    14    13    2
  1044  1441  1440    1
  1045     6     5    1
  1046   835   833    1
  1047  1533  1532   ar
  1048  1512  1506   ar
  1049  1512  1511   ar
  1050     5     3    1
  1051  1506  1507   ar
  1052  1528  1530   ar
  1053   833   834    1
  1054  1546  1547    2
  1055    18    17   ar
  1056    13    15   ar
  1057  1490  1488   ar
  1058   861   863   ar
  1059   861   860   ar
  1060  1563  1564    1
  1061  1485  1486    2
  1062  1485  1487   ar
  1063  1464  1471   ar
  1064  1464  1465   ar
  1065   992   993    1
  1066   992   991    1
  1067   863   864   ar
  1068   989   988    2
  1069   993   994    1
  1070   993   995    1
  1071   859   860   ar
  1072   859   858   ar
  1073  1511  1510   ar
  1074  1466  1465    2
  1075   860   866   ar
  1076  1560  1564    1
  1077  1532  1531   ar
  1078  1009  1008    2
  1079  1507  1508    1
  1080  1507  1509   ar
  1081     4     3    1
  1082  1471  1470   ar
  1083  1440  1442    1
  1084  1440  1438    1
  1085  1530  1531   ar
  1086   976   988    1
  1087   976   975    1
  1088   996   995    1
  1089   996  1008    1
  1090  1442  1443    1
  1091  1465  1467   ar
  1092     3     2    1
  1093   994   998    1
  1094    17    16   ar
  1095  1488  1487   ar
  1096  1488  1489    1
  1097    15    16   ar
  1098   834   846    1
  1099   973   975    1
  1100   973   974    1
  1101   973   972    1
  1102   858   857   ar
  1103   977   975    1
  1104   977   978    1
  1105   864   865   ar
  1106  1510  1509   ar
  1107   995   997    1
  1108   991   988    1
  1109   988   990    1
  1110   866   865   ar
  1111   866   857   ar
  1112  1438  1437    1
  1113  1438  1439    1
  1114   997   998    1
  1115  1008  1011    1
  1116  1008  1010    1
  1117   998   999    1
  1118   974   978    1
  1119  1470  1472    1
  1120  1470  1468   ar
  1121  1012  1011    1
  1122  1012  1013    1
  1123   978   979    1
  1124   972   971    1
  1125   848   846    2
  1126   857   856    1
  1127  1467  1468   ar
  1128     2     1    1
  1129  1443  1439    1
  1130  1443  1444    1
  1131  1437  1436    1
  1132   883   882    2
  1133   846   849    1
  1134   846   847    1
  1135  1468  1469    2
  1136  1446  1445    2
  1137   849   850    1
  1138  1013  1014    1
  1139  1013  1015    1
  1140   981   980    2
  1141   944   945   ar
  1142   944   943   ar
  1143   852   856    1
  1144   852   851    1
  1145   856   855    1
  1146  1434  1433    2
  1147   882   881   ar
  1148   882   884   ar
  1149   881   879   ar
  1150   999  1000   ar
  1151   999  1006   ar
  1152  1001  1000    2
  1153   945   946   ar
  1154   971   968    1
  1155  1444  1445   ar
  1156  1444  1451   ar
  1157  1014  1018    1
  1158  1436  1433    1
  1159   979   980   ar
  1160   979   986   ar
  1161  1445  1447   ar
  1162   966   965   ar
  1163   966   967   ar
  1164   943   941   ar
  1165   920   919    2
  1166  1016  1015    1
  1167  1016  1029    1
  1168   980   982   ar
  1169  1000  1002   ar
  1170   965   964   ar
  1171  1006  1005   ar
  1172  1030  1029    2
  1173   903   902    2
  1174   880   879    2
  1175   850   851    1
  1176   879   878   ar
  1177   955   968    1
  1178   955   954    1
  1179  1015  1017    1
  1180   901   902   ar
  1181   901   899   ar
  1182   884   886    1
  1183   884   885   ar
  1184   969   968    2
  1185  1433  1420    1
  1186  1433  1435    1
  1187   900   899    2
  1188   953   952    1
  1189   953   957    1
  1190   851   853    1
  1191  1451  1450   ar
  1192   921   919   ar
  1193   921   922   ar
  1194   968   970    1
  1195   946   937   ar
  1196   946   940   ar
  1197   936   935    1
  1198   936   937    1
  1199   936   932    1
  1200   986   985   ar
  1201  1029  1031    1
  1202  1029  1032    1
  1203  1447  1448   ar
  1204   952   954    1
  1205   952   951    1
  1206   855   853    1
  1207   919   918   ar
  1208   902   904   ar
  1209  1420  1419    1
  1210   957   958    1
  1211   957   956    1
  1212   899   898   ar
  1213   967   958   ar
  1214   967   961   ar
  1215  1018  1017    1
  1216  1018  1019    1
  1217   935   933    1
  1218   941   940   ar
  1219   941   942    1
  1220   878   885   ar
  1221   878   877    1
  1222   964   962   ar
  1223   958   959   ar
  1224   937   938   ar
  1225   853   854    1
  1226   923   922    1
  1227  1002  1003   ar
  1228  1430  1431   ar
  1229  1430  1429   ar
  1230  1005  1003   ar
  1231  1005  1007    1
  1232   932   931    1
  1233   982   983   ar
  1234   954   956    1
  1235  1431  1432   ar
  1236  1421  1419    1
  1237  1421  1422    1
  1238   940   939   ar
  1239  1450  1448   ar
  1240  1450  1452    1
  1241   922   924   ar
  1242  1020  1019   ar
  1243  1020  1021   ar
  1244   951   950    1
  1245  1448  1449    2
  1246  1419  1417    1
  1247   918   917    1
  1248   918   925   ar
  1249  1019  1028   ar
  1250   877   873    1
  1251   877   876    1
  1252   985   983   ar
  1253   985   987    1
  1254  1003  1004    2
  1255   904   906    1
  1256   904   905   ar
  1257  1032  1033    1
  1258   931   933    1
  1259   931   930    1
  1260   898   905   ar
  1261   898   897    1
  1262   961   962   ar
  1263   961   960   ar
  1264   917   916    1
  1265   917   913    1
  1266  1429  1427   ar
  1267  1033  1034    1
  1268   962   963    1
  1269   933   934    1
  1270   983   984    2
  1271   938   939   ar
  1272   959   960   ar
  1273   873   872    1
  1274  1021  1022   ar
  1275  1432  1423   ar
  1276  1432  1426   ar
  1277   924   925   ar
  1278   854   867    1
  1279   916   914    1
  1280   934   947    1
  1281  1422  1423    1
  1282  1422  1418    1
  1283   950   947    1
  1284   897   896    1
  1285   897   893    1
  1286   869   867    2
  1287   913   912    1
  1288  1417  1418    1
  1289  1417  1416    1
  1290  1423  1424   ar
  1291  1028  1022   ar
  1292  1028  1027   ar
  1293   876   874    1
  1294  1273  1272    2
  1295  1292  1291    2
  1296   930   929    1
  1297  1427  1426   ar
  1298  1427  1428    1
  1299  1022  1023   ar
  1300  1034  1035    1
  1301  1034  1036    1
  1302  1426  1425   ar
  1303   867   870    1
  1304   867   868    1
  1305   896   894    1
  1306   947   949    2
  1307   947   948    1
  1308   870   871    1
  1309   893   892    1
  1310   872   874    1
  1311   872   871    1
  1312  1027  1026   ar
  1313  1035  1039    1
  1314  1416  1415    1
  1315  1276  1277    1
  1316  1276  1275    1
  1317   912   914    1
  1318   912   911    1
  1319   914   915    1
  1320   929   926    1
  1321   874   875    1
  1322  1049  1048    2
  1323  1050  1048    1
  1324  1424  1425   ar
  1325  1047  1046   ar
  1326  1047  1040   ar
  1327  1046  1044   ar
  1328  1280  1291    1
  1329  1280  1279    1
  1330  1291  1293    1
  1331  1291  1294    1
  1332  1036  1037    1
  1333  1036  1038    1
  1334  1272  1259    1
  1335  1272  1275    1
  1336  1272  1274    1
  1337  1037  1048    1
  1338  1023  1024    1
  1339  1023  1025   ar
  1340  1259  1258    1
  1341   915   926    1
  1342  1405  1404    2
  1343  1277  1279    1
  1344  1277  1278    1
  1345  1048  1051    1
  1346   894   892    1
  1347   894   895    1
  1348  1026  1025   ar
  1349   892   891    1
  1350  1415  1412    1
  1351  1039  1040    1
  1352  1039  1038    1
  1353  1295  1294    1
  1354  1295  1296    1
  1355   911   910    1
  1356   926   928    2
  1357   926   927    1
  1358  1040  1041   ar
  1359  1279  1281    1
  1360   875   887    1
  1361   890   891    1
  1362   890   887    1
  1363  1260  1258    1
  1364  1260  1261    1
  1365   910   907    1
  1366  1044  1045    1
  1367  1044  1043   ar
  1368   889   887    2
  1369  1258  1256    1
  1370  1404  1406   ar
  1371  1404  1403   ar
  1372  1401  1402    1
  1373  1401  1399    1
  1374  1311  1310    2
  1375  1278  1282    1
  1376   895   907    1
  1377  1312  1310    1
  1378  1406  1407   ar
  1379  1256  1257    1
  1380  1256  1255    1
  1381   887   888    1
  1382  1414  1412    2
  1383  1051  1052    1
  1384  1310  1299    1
  1385  1310  1313    1
  1386  1281  1282    1
  1387   907   909    2
  1388   907   908    1
  1389  1400  1412    1
  1390  1400  1399    1
  1391  1296  1298    1
  1392  1296  1297    1
  1393  1299  1298    1
  1394  1412  1413    1
  1395  1041  1043   ar
  1396  1041  1042    2
  1397  1402  1403    1
  1398  1402  1398    1
  1399  1261  1257    1
  1400  1261  1262    1
  1401  1403  1410   ar
  1402  1244  1243    2
  1403  1399  1397    1
  1404  1282  1283    1
  1405  1255  1254    1
  1406  1298  1300    1
  1407  1052  1053    1
  1408  1227  1228   ar
  1409  1227  1225   ar
  1410  1407  1408    2
  1411  1407  1409   ar
  1412  1270  1269   ar
  1413  1270  1271   ar
  1414  1297  1301    1
  1415  1228  1229   ar
  1416  1061  1060   ar
  1417  1061  1062   ar
  1418  1254  1251    1
  1419  1240  1241    1
  1420  1240  1238    1
  1421  1060  1059   ar
  1422  1262  1271   ar
  1423  1262  1263   ar
  1424  1054  1053    1
  1425  1054  1058    1
  1426  1398  1397    1
  1427  1313  1314    1
  1428  1397  1396    1
  1429  1243  1242   ar
  1430  1243  1245   ar
  1431  1290  1283   ar
  1432  1290  1289   ar
  1433  1410  1409   ar
  1434  1241  1242    1
  1435  1241  1237    1
  1436  1269  1268   ar
  1437  1226  1225    1
  1438  1283  1284   ar
  1439  1271  1265   ar
  1440  1225  1224   ar
  1441  1409  1411    1
  1442  1053  1055    1
  1443  1314  1315    1
  1444  1064  1063    2
  1445  1300  1301    1
  1446  1242  1249   ar
  1447  1385  1384    2
  1448  1309  1308   ar
  1449  1309  1302   ar
  1450  1229  1230   ar
  1451  1245  1246   ar
  1452  1062  1063   ar
  1453  1062  1069   ar
  1454  1386  1384   ar
  1455  1386  1387   ar
  1456  1301  1302    1
  1457  1059  1058    1
  1458  1059  1069   ar
  1459  1239  1238    1
  1460  1239  1251    1
  1461  1388  1387    2
  1462  1333  1331    2
  1463  1238  1236    1
  1464  1237  1236    1
  1465  1058  1057    1
  1466  1263  1264   ar
  1467  1289  1287   ar
  1468  1063  1065   ar
  1469  1308  1306   ar
  1470  1251  1252    2
  1471  1251  1253    1
  1472  1384  1383   ar
  1473  1236  1235    1
  1474  1387  1389   ar
  1475  1268  1266   ar
  1476  1332  1331    1
  1477  1396  1395    1
  1478  1284  1285    2
  1479  1284  1286   ar
  1480  1069  1068   ar
  1481  1302  1303   ar
  1482  1224  1230   ar
  1483  1224  1223   ar
  1484  1265  1264   ar
  1485  1265  1266   ar
  1486  1055  1057    1
  1487  1055  1056    1
  1488  1230  1221   ar
  1489  1369  1368    1
  1490  1249  1248   ar
  1491  1331  1318    1
  1492  1331  1334    1
  1493  1246  1247    2
  1494  1246  1248   ar
  1495  1395  1392    1
  1496  1318  1317    1
  1497  1315  1317    1
  1498  1315  1316    1
  1499  1089  1087    1
  1500  1317  1319    1
  1501  1266  1267    1
  1502  1065  1066   ar
  1503  1287  1286   ar
  1504  1287  1288    1
  1505  1322  1323   ar
  1506  1322  1321   ar
  1507  1056  1070    1
  1508  1248  1250    1
  1509  1306  1307    1
  1510  1306  1305   ar
  1511  1068  1066   ar
  1512  1383  1390   ar
  1513  1383  1382    1
  1514  1323  1324   ar
  1515  1086  1085    2
  1516  1072  1070    2
  1517  1389  1390   ar
  1518  1389  1391    1
  1519  1235  1234    1
  1520  1316  1320    1
  1521  1223  1222   ar
  1522  1303  1305   ar
  1523  1303  1304    2
  1524  1368  1370   ar
  1525  1368  1367   ar
  1526  1066  1067    1
  1527  1381  1382    1
  1528  1381  1379    1
  1529  1221  1222   ar
  1530  1221  1220    1
  1531  1394  1392    2
  1532  1392  1393    1
  1533  1392  1380    1
  1534  1334  1335    1
  1535  1370  1371   ar
  1536  1087  1085   ar
  1537  1087  1088   ar
  1538  1355  1353    2
  1539  1219  1220    1
  1540  1219  1217    1
  1541  1085  1084   ar
  1542  1382  1378    1
  1543  1234  1231    1
  1544  1070  1071    1
  1545  1070  1073    1
  1546  1321  1320    1
  1547  1321  1330   ar
  1548  1367  1365   ar
  1549  1220  1216    1
  1550  1319  1320    1
  1551  1379  1380    1
  1552  1379  1377    1
  1553  1344  1343   ar
  1554  1344  1345   ar
  1555  1324  1330   ar
  1556  1324  1325   ar
  1557  1347  1346    2
  1558  1326  1325    1
  1559  1088  1081   ar
  1560  1374  1372    2
  1561  1335  1336    1
  1562  1343  1342   ar
  1563  1371  1364   ar
  1564  1084  1082   ar
  1565  1330  1329   ar
  1566  1217  1218    1
  1567  1217  1215    1
  1568  1378  1377    1
  1569  1325  1327   ar
  1570  1365  1364   ar
  1571  1365  1366    2
  1572  1353  1354    1
  1573  1353  1356    1
  1574  1353  1339    1
  1575  1375  1372    1
  1576  1375  1376    1
  1577  1345  1346   ar
  1578  1345  1352   ar
  1579  1346  1348   ar
  1580  1106  1105    1
  1581  1073  1074    1
  1582  1188  1189   ar
  1583  1188  1187   ar
  1584  1231  1218    1
  1585  1231  1232    2
  1586  1231  1233    1
  1587  1216  1215    1
  1588  1377  1376    1
  1589  1356  1357    1
  1590  1364  1363    1
  1591  1189  1190   ar
  1592  1081  1082   ar
  1593  1081  1080    1
  1594  1372  1373    1
  1595  1372  1361    1
  1596  1338  1339    1
  1597  1338  1336    1
  1598  1338  1340    1
  1599  1082  1083    2
  1600  1336  1337    1
  1601  1342  1352   ar
  1602  1342  1341    1
  1603  1076  1080    1
  1604  1076  1075    1
  1605  1215  1214    1
  1606  1196  1197    1
  1607  1196  1195    1
  1608  1196  1198    1
  1609  1197  1201    1
  1610  1187  1185   ar
  1611  1074  1075    1
  1612  1329  1328   ar
  1613  1201  1200    1
  1614  1201  1202    1
  1615  1352  1351   ar
  1616  1200  1198    1
  1617  1327  1328   ar
  1618  1337  1341    1
  1619  1348  1349   ar
  1620  1145  1144    2
  1621  1105  1107   ar
  1622  1105  1104   ar
  1623  1360  1361    1
  1624  1360  1362    1
  1625  1360  1358    1
  1626  1199  1198    1
  1627  1199  1210    1
  1628  1080  1079    1
  1629  1213  1214    1
  1630  1213  1210    1
  1631  1146  1144   ar
  1632  1146  1147   ar
  1633  1179  1180    1
  1634  1179  1177    1
  1635  1180  1176    1
  1636  1180  1181    1
  1637  1357  1358    1
  1638  1148  1147    1
  1639  1190  1181   ar
  1640  1190  1184   ar
  1641  1195  1194    1
  1642  1164  1163    2
  1643  1341  1340    1
  1644  1107  1108   ar
  1645  1363  1362    1
  1646  1363  1359    1
  1647  1075  1077    1
  1648  1125  1124    2
  1649  1204  1203    2
  1650  1359  1358    1
  1651  1104  1102   ar
  1652  1144  1143   ar
  1653  1165  1163   ar
  1654  1165  1166   ar
  1655  1176  1175    1
  1656  1181  1182   ar
  1657  1185  1184   ar
  1658  1185  1186    1
  1659  1147  1149   ar
  1660  1202  1203   ar
  1661  1202  1209   ar
  1662  1349  1351   ar
  1663  1349  1350    1
  1664  1210  1211    2
  1665  1210  1212    1
  1666  1163  1162   ar
  1667  1077  1079    1
  1668  1077  1078    1
  1669  1167  1166    1
  1670  1184  1183   ar
  1671  1203  1205   ar
  1672  1175  1177    1
  1673  1175  1174    1
  1674  1177  1178    1
  1675  1108  1101   ar
  1676  1166  1168   ar
  1677  1194  1191    1
  1678  1124  1123   ar
  1679  1124  1126   ar
  1680  1178  1191    1
  1681  1209  1208   ar
  1682  1102  1101   ar
  1683  1102  1103    2
  1684  1092  1090    2
  1685  1182  1183   ar
  1686  1143  1150   ar
  1687  1143  1142   ar
  1688  1123  1121   ar
  1689  1149  1150   ar
  1690  1128  1126    1
  1691  1101  1100    1
  1692  1078  1090    1
  1693  1205  1206   ar
  1694  1162  1161    1
  1695  1162  1169   ar
  1696  1191  1192    2
  1697  1191  1193    1
  1698  1126  1127   ar
  1699  1150  1140   ar
  1700  1174  1173    1
  1701  1090  1091    1
  1702  1090  1093    1
  1703  1208  1206   ar
  1704  1142  1141   ar
  1705  1161  1160    1
  1706  1161  1157    1
  1707  1160  1158    1
  1708  1168  1169   ar
  1709  1206  1207    1
  1710  1121  1122    2
  1711  1121  1120   ar
  1712  1100  1096    1
  1713  1100  1099    1
  1714  1096  1095    1
  1715  1173  1170    1
  1716  1127  1120   ar
  1717  1140  1141   ar
  1718  1140  1139    1
  1719  1093  1094    1
  1720  1120  1119    1
  1721  1157  1156    1
  1722  1094  1095    1
  1723  1158  1159    1
  1724  1158  1156    1
  1725  1099  1097    1
  1726  1095  1097    1
  1727  1097  1098    1
  1728  1111  1109    2
  1729  1159  1170    1
  1730  1139  1138    1
  1731  1139  1135    1
  1732  1156  1155    1
  1733  1170  1171    2
  1734  1170  1172    1
  1735  1119  1115    1
  1736  1119  1118    1
  1737  1138  1136    1
  1738  1098  1109    1
  1739  1135  1134    1
  1740  1112  1109    1
  1741  1112  1113    1
  1742  1109  1110    1
  1743  1131  1129    2
  1744  1115  1114    1
  1745  1118  1116    1
  1746  1154  1155    1
  1747  1154  1151    1
  1748  1136  1134    1
  1749  1136  1137    1
  1750  1116  1114    1
  1751  1116  1117    1
  1752  1132  1129    1
  1753  1132  1133    1
  1754  1134  1133    1
  1755  1114  1113    1
  1756  1129  1117    1
  1757  1129  1130    1
  1758  1153  1151    2
  1759  1151  1137    1
  1760  1151  1152    1
