FB1.pdb
  RxDock  10072013283D
librxdock.so/0.1.0
 59 58  0  0  0  0  0  0  0  0999 V2000
    4.9449    1.5252    5.0749 C   0  0  0  0  0  0
    5.4119    2.9642    5.2815 C   0  0  0  0  0  0
    5.8368    3.6205    3.9575 C   0  0  0  0  0  0
    7.3606    3.5414    3.6902 C   0  0  0  0  0  0
    7.9627    2.0933    3.7171 C   0  0  0  0  0  0
    7.2120    1.2358    2.6722 C   0  0  0  0  0  0
    9.5287    2.0538    3.4641 C   0  0  0  0  0  0
   10.0479    2.5825    2.0439 C   0  0  0  0  0  0
    9.4074    2.2070    0.6378 C   0  0  0  0  0  0
    9.4723    0.6062    0.2447 C   0  0  0  0  0  0
    8.5770   -0.1674    1.2112 C   0  0  0  0  0  0
    9.0844    0.2348   -1.2574 C   0  0  0  0  0  0
    7.7570    0.7717   -2.0113 C   0  0  0  0  0  0
    7.3263    0.2528   -3.4260 C   0  0  0  0  0  0
    7.3520   -1.3207   -3.6956 C   0  0  0  0  0  0
    8.6403   -2.2244   -3.5613 C   0  0  0  0  0  0
    8.4858   -3.7303   -3.2209 C   0  0  0  0  0  0
    7.6772   -4.0783   -1.9116 C   0  0  0  0  0  0
    7.1923   -2.8872   -1.0757 C   0  0  0  0  0  0
    5.6761   -2.7868   -0.7453 C   0  0  0  0  0  0
    5.1429   -1.6620    0.1906 C   0  0  0  0  0  0
    3.6320   -1.4830    0.2422 C   0  0  0  0  0  0
    5.7044   -1.7978    1.5481 N   0  0  0  0  0  0
    5.0363   -2.5455   -2.0245 O   0  0  0  0  0  0
    6.5399   -4.8614   -2.2899 O   0  0  0  0  0  0
    6.6697    0.4245   -1.1373 O   0  0  0  0  0  0
    9.9723    4.0329    2.0978 O   0  0  0  0  0  0
   10.9705    4.6786    2.7550 C   0  0  0  0  0  0
   12.1223    4.7921    2.3810 O   0  0  0  0  0  0
   10.3919    5.3239    3.9839 C   0  0  0  0  0  0
   10.3448    6.8566    3.8793 C   0  0  0  0  0  0
    9.3939    7.4877    4.9045 C   0  0  0  0  0  0
    9.2834    8.9806    4.6988 C   0  0  0  0  0  0
    9.1101    9.7802    5.6122 O   0  0  0  0  0  0
    9.3950    9.3528    3.4151 O   0  0  0  0  0  0
   11.7802    7.3406    4.1268 C   0  0  0  0  0  0
   12.7564    6.6135    4.0234 O   0  0  0  0  0  0
   11.8733    8.6198    4.5156 O   0  0  0  0  0  0
   10.2688    2.6730    4.5904 O   0  0  0  0  0  0
   10.1575    2.1001    5.8464 C   0  0  0  0  0  0
    9.7853    0.9534    6.0582 O   0  0  0  0  0  0
   10.5570    3.0687    6.9674 C   0  0  0  0  0  0
    9.9810    2.7439    8.3806 C   0  0  0  0  0  0
   10.4631    1.4602    9.0806 C   0  0  0  0  0  0
    9.4496    0.8960   10.0341 C   0  0  0  0  0  0
    8.3374    1.3581   10.2490 O   0  0  0  0  0  0
    9.8823   -0.2188   10.6426 O   0  0  0  0  0  0
   10.1018    3.8865    9.3965 C   0  0  0  0  0  0
   10.9511    4.7521    9.3186 O   0  0  0  0  0  0
    9.1316    3.9338   10.3333 O   0  0  0  0  0  0
    5.3688   -2.6658    1.9631 H   0  0  0  0  0  0
    5.3174   -1.0571    2.1373 H   0  0  0  0  0  0
    5.2879   -3.3165   -2.5755 H   0  0  0  0  0  0
    6.3309   -5.4685   -1.5562 H   0  0  0  0  0  0
    6.7584    0.9489   -0.3239 H   0  0  0  0  0  0
    9.3479   10.3148    3.2547 H   0  0  0  0  0  0
   12.7974    8.9320    4.6807 H   0  0  0  0  0  0
    9.1122   -0.5977   11.1165 H   0  0  0  0  0  0
    9.1795    4.6987   10.9488 H   0  0  0  0  0  0
  1  2  1  0  0  0
  2  3  1  0  0  0
  3  4  1  0  0  0
  4  5  1  0  0  0
  5  6  1  0  0  0
  5  7  1  0  0  0
  7  8  1  0  0  0
  7 39  1  0  0  0
  8  9  1  0  0  0
  8 27  1  0  0  0
  9 10  1  0  0  0
 10 11  1  0  0  0
 10 12  1  0  0  0
 12 13  1  0  0  0
 13 14  1  0  0  0
 13 26  1  0  0  0
 14 15  1  0  0  0
 15 16  1  0  0  0
 16 17  1  0  0  0
 17 18  1  0  0  0
 18 19  1  0  0  0
 18 25  1  0  0  0
 19 20  1  0  0  0
 20 21  1  0  0  0
 20 24  1  0  0  0
 21 22  1  0  0  0
 21 23  1  0  0  0
 23 51  1  0  0  0
 23 52  1  0  0  0
 24 53  1  0  0  0
 25 54  1  0  0  0
 26 55  1  0  0  0
 27 28  1  0  0  0
 28 29  2  0  0  0
 28 30  1  0  0  0
 30 31  1  0  0  0
 31 32  1  0  0  0
 31 36  1  0  0  0
 32 33  1  0  0  0
 33 34  2  0  0  0
 33 35  1  0  0  0
 35 56  1  0  0  0
 36 37  2  0  0  0
 36 38  1  0  0  0
 38 57  1  0  0  0
 39 40  1  0  0  0
 40 41  2  0  0  0
 40 42  1  0  0  0
 42 43  1  0  0  0
 43 44  1  0  0  0
 43 48  1  0  0  0
 44 45  1  0  0  0
 45 46  2  0  0  0
 45 47  1  0  0  0
 47 58  1  0  0  0
 48 49  2  0  0  0
 48 50  1  0  0  0
 50 59  1  0  0  0
M  END
>  <AUTHOR>
    GENERATED BY OPEN BABEL 2.4.1

>  <CHROM.1>
-95.50824727,55.50674601,57.29724660,-62.59157948,-45.46027808,61.97315273
-62.65158600,79.16657999,66.79419465,-48.70229911,-172.71145080,46.05072188
66.58113228,-58.67552765,152.93004820,-55.42787700,-3.07219745,124.91452480
149.09517044,175.22628378,168.70788981,58.86028972,-64.90306420,70.80380625
-109.82321263,162.63443737,-175.24965320,18.84996801,-147.32941650,-178.65118383
179.65890431,19.42395567,157.92068616,66.54099155,-152.23214573,-25.29986451
1.18181611,-170.34738097,-176.35064020,8.66558265,2.12358065,3.12265634,0.68315274
1.20046680,1.71660649

>  <COMPND>
    UNNAMED

>  <MASTER>
        0    0    0    0    0    0    0    0  109    0  109    0

>  <Name>
FB1.pdb

>  <RI>
0

>  <Rbt.Current_Directory>
/home/fc/tossine/FB1_39/p3/2_clust01

>  <Rbt.Executable>
rbdock/0.1.0

>  <Rbt.Library>
librxdock.so/0.1.0

>  <Rbt.Parameter_File>
/cluster/rxdock/data/scripts/dock.prm

>  <Rbt.Receptor>
rx_3.prm

>  <SCORE>
42.0399

>  <SCORE.INTER>
10.8469

>  <SCORE.INTER.CONST>
1

>  <SCORE.INTER.POLAR>
-1.6758

>  <SCORE.INTER.REPUL>
0.524613

>  <SCORE.INTER.ROT>
32

>  <SCORE.INTER.VDW>
-23.4784

>  <SCORE.INTER.norm>
0.216938

>  <SCORE.INTRA>
26.7445

>  <SCORE.INTRA.DIHEDRAL>
19.0368

>  <SCORE.INTRA.DIHEDRAL.0>
47.3121

>  <SCORE.INTRA.POLAR>
0.907786

>  <SCORE.INTRA.POLAR.0>
-1.47808

>  <SCORE.INTRA.REPUL>
0

>  <SCORE.INTRA.REPUL.0>
0

>  <SCORE.INTRA.VDW>
14.1397

>  <SCORE.INTRA.VDW.0>
-2.78316

>  <SCORE.INTRA.norm>
0.534891

>  <SCORE.RESTR>
4.44843

>  <SCORE.RESTR.CAVITY>
4.44843

>  <SCORE.RESTR.norm>
0.0889687

>  <SCORE.SYSTEM>
0

>  <SCORE.SYSTEM.CONST>
0

>  <SCORE.SYSTEM.DIHEDRAL>
0

>  <SCORE.SYSTEM.norm>
0

>  <SCORE.heavy>
50

>  <SCORE.norm>
0.840798

$$$$
