FB1.pdb
  RxDock  10072010593D
librxdock.so/0.1.0
 59 58  0  0  0  0  0  0  0  0999 V2000
  -13.5757    4.8816   -2.0860 C   0  0  0  0  0  0
  -13.3923    6.2965   -2.6298 C   0  0  0  0  0  0
  -12.7070    7.2159   -1.6054 C   0  0  0  0  0  0
  -11.1613    7.2114   -1.7085 C   0  0  0  0  0  0
  -10.5959    7.1900   -3.1714 C   0  0  0  0  0  0
  -11.1562    8.4174   -3.9265 C   0  0  0  0  0  0
   -9.0108    7.1583   -3.2373 C   0  0  0  0  0  0
   -8.2433    8.5253   -2.9079 C   0  0  0  0  0  0
   -8.6545    9.9603   -3.4553 C   0  0  0  0  0  0
   -7.6122   11.1802   -3.0719 C   0  0  0  0  0  0
   -6.9783   11.6997   -4.3613 C   0  0  0  0  0  0
   -8.2295   12.4002   -2.2501 C   0  0  0  0  0  0
   -7.3956   13.7180   -1.8183 C   0  0  0  0  0  0
   -6.6697   14.6328   -2.8634 C   0  0  0  0  0  0
   -7.3801   14.8862   -4.2707 C   0  0  0  0  0  0
   -6.6518   15.4816   -5.5394 C   0  0  0  0  0  0
   -5.7849   16.7601   -5.3936 C   0  0  0  0  0  0
   -4.3841   16.7493   -6.1194 C   0  0  0  0  0  0
   -4.4098   16.5772   -7.6433 C   0  0  0  0  0  0
   -4.6542   17.8357   -8.5234 C   0  0  0  0  0  0
   -3.5765   18.9558   -8.6193 C   0  0  0  0  0  0
   -2.1515   18.5024   -8.9039 C   0  0  0  0  0  0
   -3.9942   20.0074   -9.5659 N   0  0  0  0  0  0
   -4.7819   17.3210   -9.8735 O   0  0  0  0  0  0
   -3.7177   17.9786   -5.8118 O   0  0  0  0  0  0
   -8.3589   14.5715   -1.1777 O   0  0  0  0  0  0
   -8.2729    8.6697   -1.4619 O   0  0  0  0  0  0
   -9.1699    9.5510   -0.9483 C   0  0  0  0  0  0
  -10.2893    9.7676   -1.3720 O   0  0  0  0  0  0
   -8.5870   10.1489    0.3024 C   0  0  0  0  0  0
   -9.0599   11.5915    0.5430 C   0  0  0  0  0  0
  -10.3542   11.6575    1.3638 C   0  0  0  0  0  0
  -10.2392   10.8404    2.6297 C   0  0  0  0  0  0
   -9.1922   10.6972    3.2517 O   0  0  0  0  0  0
  -11.3975   10.2838    3.0135 O   0  0  0  0  0  0
   -7.9212   12.2879    1.3008 C   0  0  0  0  0  0
   -6.9939   11.6815    1.8154 O   0  0  0  0  0  0
   -8.0523   13.6182    1.3956 O   0  0  0  0  0  0
   -8.4655    6.0162   -2.4638 O   0  0  0  0  0  0
   -9.0878    4.7844   -2.5802 C   0  0  0  0  0  0
   -9.9284    4.5059   -3.4253 O   0  0  0  0  0  0
   -8.6058    3.7845   -1.5209 C   0  0  0  0  0  0
   -7.2427    3.0862   -1.8190 C   0  0  0  0  0  0
   -6.3474    2.7078   -0.6250 C   0  0  0  0  0  0
   -5.8779    3.9004    0.1572 C   0  0  0  0  0  0
   -4.7318    4.0989    0.5362 O   0  0  0  0  0  0
   -6.8648    4.7767    0.3987 O   0  0  0  0  0  0
   -7.3436    1.8488   -2.7195 C   0  0  0  0  0  0
   -6.6569    0.8589   -2.5608 O   0  0  0  0  0  0
   -8.3261    1.8836   -3.6441 O   0  0  0  0  0  0
   -3.8676   19.6687  -10.5186 H   0  0  0  0  0  0
   -3.3518   20.7983   -9.4799 H   0  0  0  0  0  0
   -3.9121   16.9106  -10.0643 H   0  0  0  0  0  0
   -3.4681   17.9617   -4.8695 H   0  0  0  0  0  0
   -7.9101   15.3962   -0.9268 H   0  0  0  0  0  0
  -11.3324    9.6613    3.7630 H   0  0  0  0  0  0
   -7.3801   14.0563    1.9744 H   0  0  0  0  0  0
   -6.4355    5.6294    0.6218 H   0  0  0  0  0  0
   -8.3720    1.1013   -4.2374 H   0  0  0  0  0  0
  1  2  1  0  0  0
  2  3  1  0  0  0
  3  4  1  0  0  0
  4  5  1  0  0  0
  5  6  1  0  0  0
  5  7  1  0  0  0
  7  8  1  0  0  0
  7 39  1  0  0  0
  8  9  1  0  0  0
  8 27  1  0  0  0
  9 10  1  0  0  0
 10 11  1  0  0  0
 10 12  1  0  0  0
 12 13  1  0  0  0
 13 14  1  0  0  0
 13 26  1  0  0  0
 14 15  1  0  0  0
 15 16  1  0  0  0
 16 17  1  0  0  0
 17 18  1  0  0  0
 18 19  1  0  0  0
 18 25  1  0  0  0
 19 20  1  0  0  0
 20 21  1  0  0  0
 20 24  1  0  0  0
 21 22  1  0  0  0
 21 23  1  0  0  0
 23 51  1  0  0  0
 23 52  1  0  0  0
 24 53  1  0  0  0
 25 54  1  0  0  0
 26 55  1  0  0  0
 27 28  1  0  0  0
 28 29  2  0  0  0
 28 30  1  0  0  0
 30 31  1  0  0  0
 31 32  1  0  0  0
 31 36  1  0  0  0
 32 33  1  0  0  0
 33 34  2  0  0  0
 33 35  1  0  0  0
 35 56  1  0  0  0
 36 37  2  0  0  0
 36 38  1  0  0  0
 38 57  1  0  0  0
 39 40  1  0  0  0
 40 41  2  0  0  0
 40 42  1  0  0  0
 42 43  1  0  0  0
 43 44  1  0  0  0
 43 48  1  0  0  0
 44 45  1  0  0  0
 45 46  2  0  0  0
 45 47  1  0  0  0
 47 58  1  0  0  0
 48 49  2  0  0  0
 48 50  1  0  0  0
 50 59  1  0  0  0
M  END
>  <AUTHOR>
    GENERATED BY OPEN BABEL 2.4.1

>  <CHROM.1>
89.54729128,40.00140705,57.39674653,-75.00689644,-44.18726593,43.05066762
-174.69637083,-102.70233860,114.45049663,-177.82263311,57.35035227,37.50399907
-177.98409558,-164.83563323,-48.36786051,135.59508331,60.63016666,83.10755241
69.70311275,68.96929649,48.75088695,-62.53689579,-76.08191525,36.33148462
148.87125672,89.17648485,51.32213107,-13.44280179,32.74569174,172.71281143
173.00260043,11.80669208,-80.06965869,147.98407684,-63.28661156,-142.69971150
-133.77622140,-160.92933830,178.26129978,-7.86446762,10.21447276,-2.57815467
-2.22275413,1.07353481,0.17056638

>  <COMPND>
    UNNAMED

>  <MASTER>
        0    0    0    0    0    0    0    0  109    0  109    0

>  <Name>
FB1.pdb

>  <RI>
0

>  <Rbt.Current_Directory>
/home/fc/tossine/FB1_39/p3/2_clust01

>  <Rbt.Executable>
rbdock/0.1.0

>  <Rbt.Library>
librxdock.so/0.1.0

>  <Rbt.Parameter_File>
/cluster/rxdock/data/scripts/dock.prm

>  <Rbt.Receptor>
rx_0.prm

>  <SCORE>
34.529

>  <SCORE.INTER>
13.9771

>  <SCORE.INTER.CONST>
1

>  <SCORE.INTER.POLAR>
-1.39178

>  <SCORE.INTER.REPUL>
0.751828

>  <SCORE.INTER.ROT>
32

>  <SCORE.INTER.VDW>
-22.4499

>  <SCORE.INTER.norm>
0.279543

>  <SCORE.INTRA>
20.5507

>  <SCORE.INTRA.DIHEDRAL>
12.1582

>  <SCORE.INTRA.DIHEDRAL.0>
47.3121

>  <SCORE.INTRA.POLAR>
1.47808

>  <SCORE.INTRA.POLAR.0>
-1.47808

>  <SCORE.INTRA.REPUL>
0

>  <SCORE.INTRA.REPUL.0>
0

>  <SCORE.INTRA.VDW>
9.44613

>  <SCORE.INTRA.VDW.0>
-2.78316

>  <SCORE.INTRA.norm>
0.411014

>  <SCORE.RESTR>
0.00111968

>  <SCORE.RESTR.CAVITY>
0.00111968

>  <SCORE.RESTR.norm>
2.23935e-05

>  <SCORE.SYSTEM>
0

>  <SCORE.SYSTEM.CONST>
0

>  <SCORE.SYSTEM.DIHEDRAL>
0

>  <SCORE.SYSTEM.norm>
0

>  <SCORE.heavy>
50

>  <SCORE.norm>
0.690579

$$$$
