FB1.pdb
  RxDock  10072011003D
librxdock.so/0.1.0
 59 58  0  0  0  0  0  0  0  0999 V2000
   -7.9489    4.2755    1.6694 C   0  0  0  0  0  0
   -8.2201    3.7944    0.2459 C   0  0  0  0  0  0
   -9.5867    3.0991    0.1305 C   0  0  0  0  0  0
  -10.0709    2.9277   -1.3310 C   0  0  0  0  0  0
  -10.5800    4.2428   -2.0178 C   0  0  0  0  0  0
  -11.5584    4.9483   -1.0505 C   0  0  0  0  0  0
   -9.4107    5.2218   -2.4561 C   0  0  0  0  0  0
   -9.1860    6.5307   -1.5603 C   0  0  0  0  0  0
   -7.8556    6.8747   -0.7603 C   0  0  0  0  0  0
   -7.8083    8.3847   -0.0979 C   0  0  0  0  0  0
   -6.6989    8.4194    0.9520 C   0  0  0  0  0  0
   -7.6161    9.5949   -1.1193 C   0  0  0  0  0  0
   -8.3999   11.0065   -1.0118 C   0  0  0  0  0  0
   -8.5937   11.7583    0.3495 C   0  0  0  0  0  0
   -8.7985   13.3414    0.3180 C   0  0  0  0  0  0
   -7.6553   14.3788   -0.0160 C   0  0  0  0  0  0
   -7.9286   15.8972    0.1491 C   0  0  0  0  0  0
   -6.6653   16.8417    0.1854 C   0  0  0  0  0  0
   -5.6705   16.6904   -0.9722 C   0  0  0  0  0  0
   -6.1958   16.8729   -2.4244 C   0  0  0  0  0  0
   -5.2642   17.4366   -3.5379 C   0  0  0  0  0  0
   -5.8353   17.4652   -4.9488 C   0  0  0  0  0  0
   -4.7314   18.7587   -3.1578 N   0  0  0  0  0  0
   -6.5371   15.5332   -2.8631 O   0  0  0  0  0  0
   -7.1273   18.1965    0.2138 O   0  0  0  0  0  0
   -7.6461   11.9114   -1.8362 O   0  0  0  0  0  0
   -9.3770    7.6671   -2.4461 O   0  0  0  0  0  0
  -10.6570    8.0534   -2.6866 C   0  0  0  0  0  0
  -11.6404    7.3381   -2.6649 O   0  0  0  0  0  0
  -10.6747    9.5437   -2.8868 C   0  0  0  0  0  0
  -11.7810   10.2354   -2.0743 C   0  0  0  0  0  0
  -11.9681    9.6122   -0.6851 C   0  0  0  0  0  0
  -13.4037    9.1962   -0.4630 C   0  0  0  0  0  0
  -14.0608    9.5240    0.5191 O   0  0  0  0  0  0
  -13.8967    8.4310   -1.4481 O   0  0  0  0  0  0
  -11.3501   11.7023   -1.9383 C   0  0  0  0  0  0
  -10.4098   12.1810   -2.5539 O   0  0  0  0  0  0
  -12.0615   12.4074   -1.0480 O   0  0  0  0  0  0
   -8.1463    4.4794   -2.6797 O   0  0  0  0  0  0
   -7.1128    5.1219   -3.3409 C   0  0  0  0  0  0
   -7.1188    6.3035   -3.6607 O   0  0  0  0  0  0
   -5.9360    4.1829   -3.6369 C   0  0  0  0  0  0
   -4.7024    4.3242   -2.6920 C   0  0  0  0  0  0
   -4.9452    4.2713   -1.1726 C   0  0  0  0  0  0
   -4.2326    5.3621   -0.4263 C   0  0  0  0  0  0
   -4.5821    6.5330   -0.3683 O   0  0  0  0  0  0
   -3.1412    4.9169    0.2147 O   0  0  0  0  0  0
   -3.5494    3.3610   -3.0002 C   0  0  0  0  0  0
   -2.3887    3.6187   -2.7491 O   0  0  0  0  0  0
   -3.9157    2.1520   -3.4750 O   0  0  0  0  0  0
   -3.7625   18.6552   -2.8595 H   0  0  0  0  0  0
   -5.2295   19.0850   -2.3267 H   0  0  0  0  0  0
   -7.4109   15.3553   -2.4555 H   0  0  0  0  0  0
   -7.5892   18.3426    1.0599 H   0  0  0  0  0  0
   -7.5476   11.5071   -2.7144 H   0  0  0  0  0  0
  -13.2454    8.1387   -2.1143 H   0  0  0  0  0  0
  -11.8429   13.3718   -1.0199 H   0  0  0  0  0  0
   -2.8286    5.6526    0.7824 H   0  0  0  0  0  0
   -3.1750    1.5662   -3.7477 H   0  0  0  0  0  0
  1  2  1  0  0  0
  2  3  1  0  0  0
  3  4  1  0  0  0
  4  5  1  0  0  0
  5  6  1  0  0  0
  5  7  1  0  0  0
  7  8  1  0  0  0
  7 39  1  0  0  0
  8  9  1  0  0  0
  8 27  1  0  0  0
  9 10  1  0  0  0
 10 11  1  0  0  0
 10 12  1  0  0  0
 12 13  1  0  0  0
 13 14  1  0  0  0
 13 26  1  0  0  0
 14 15  1  0  0  0
 15 16  1  0  0  0
 16 17  1  0  0  0
 17 18  1  0  0  0
 18 19  1  0  0  0
 18 25  1  0  0  0
 19 20  1  0  0  0
 20 21  1  0  0  0
 20 24  1  0  0  0
 21 22  1  0  0  0
 21 23  1  0  0  0
 23 51  1  0  0  0
 23 52  1  0  0  0
 24 53  1  0  0  0
 25 54  1  0  0  0
 26 55  1  0  0  0
 27 28  1  0  0  0
 28 29  2  0  0  0
 28 30  1  0  0  0
 30 31  1  0  0  0
 31 32  1  0  0  0
 31 36  1  0  0  0
 32 33  1  0  0  0
 33 34  2  0  0  0
 33 35  1  0  0  0
 35 56  1  0  0  0
 36 37  2  0  0  0
 36 38  1  0  0  0
 38 57  1  0  0  0
 39 40  1  0  0  0
 40 41  2  0  0  0
 40 42  1  0  0  0
 42 43  1  0  0  0
 43 44  1  0  0  0
 43 48  1  0  0  0
 44 45  1  0  0  0
 45 46  2  0  0  0
 45 47  1  0  0  0
 47 58  1  0  0  0
 48 49  2  0  0  0
 48 50  1  0  0  0
 50 59  1  0  0  0
M  END
>  <AUTHOR>
    GENERATED BY OPEN BABEL 2.4.1

>  <CHROM.1>
164.85260237,-74.23683665,-48.05909397,-105.16909593,118.71508746,166.11231225
171.48648654,81.54459383,163.53825251,139.38429887,43.38954225,154.63031138
53.11667656,-71.99040655,-172.71467339,163.82698142,52.40936122,56.84801687
66.11728496,149.13876406,174.93712303,79.39922281,103.48480765,-28.22766874
-132.43779793,38.30681755,-125.42271550,9.66238807,-128.39243310,7.97018677
-174.53168669,6.49743859,-102.31865123,51.57340764,-133.41607326,151.91260058
76.94590471,-171.10576914,174.74090493,-8.07643411,9.14233825,-1.48569945
1.54917787,-0.12376465,3.14092183

>  <COMPND>
    UNNAMED

>  <MASTER>
        0    0    0    0    0    0    0    0  109    0  109    0

>  <Name>
FB1.pdb

>  <RI>
0

>  <Rbt.Current_Directory>
/home/fc/tossine/FB1_39/p3/2_clust01

>  <Rbt.Executable>
rbdock/0.1.0

>  <Rbt.Library>
librxdock.so/0.1.0

>  <Rbt.Parameter_File>
/cluster/rxdock/data/scripts/dock.prm

>  <Rbt.Receptor>
rx_0.prm

>  <SCORE>
10.6425

>  <SCORE.INTER>
0.862143

>  <SCORE.INTER.CONST>
1

>  <SCORE.INTER.POLAR>
-2.98153

>  <SCORE.INTER.REPUL>
0.132606

>  <SCORE.INTER.ROT>
32

>  <SCORE.INTER.VDW>
-27.0637

>  <SCORE.INTER.norm>
0.0172429

>  <SCORE.INTRA>
9.76741

>  <SCORE.INTRA.DIHEDRAL>
19.4512

>  <SCORE.INTRA.DIHEDRAL.0>
47.3121

>  <SCORE.INTRA.POLAR>
0.687265

>  <SCORE.INTRA.POLAR.0>
-1.47808

>  <SCORE.INTRA.REPUL>
0

>  <SCORE.INTRA.REPUL.0>
0

>  <SCORE.INTRA.VDW>
-2.29491

>  <SCORE.INTRA.VDW.0>
-2.78316

>  <SCORE.INTRA.norm>
0.195348

>  <SCORE.RESTR>
0.012938

>  <SCORE.RESTR.CAVITY>
0.012938

>  <SCORE.RESTR.norm>
0.00025876

>  <SCORE.SYSTEM>
0

>  <SCORE.SYSTEM.CONST>
0

>  <SCORE.SYSTEM.DIHEDRAL>
0

>  <SCORE.SYSTEM.norm>
0

>  <SCORE.heavy>
50

>  <SCORE.norm>
0.21285

$$$$
