FB1.pdb
  RxDock  10072010543D
librxdock.so/0.1.0
 59 58  0  0  0  0  0  0  0  0999 V2000
   -2.5412    4.0475    0.6770 C   0  0  0  0  0  0
   -3.1234    2.8635   -0.0914 C   0  0  0  0  0  0
   -4.3495    3.2726   -0.9242 C   0  0  0  0  0  0
   -3.9902    4.0784   -2.1975 C   0  0  0  0  0  0
   -5.2115    4.4632   -3.1035 C   0  0  0  0  0  0
   -5.6330    3.2116   -3.9075 C   0  0  0  0  0  0
   -6.4394    5.0567   -2.2924 C   0  0  0  0  0  0
   -7.3055    6.1937   -3.0158 C   0  0  0  0  0  0
   -8.8447    6.0694   -3.3946 C   0  0  0  0  0  0
   -9.7380    7.4343   -3.1488 C   0  0  0  0  0  0
  -10.5541    7.7136   -4.4098 C   0  0  0  0  0  0
  -10.7030    7.4238   -1.8785 C   0  0  0  0  0  0
  -12.0916    6.5966   -1.8005 C   0  0  0  0  0  0
  -13.0066    6.6092   -0.5282 C   0  0  0  0  0  0
  -13.0609    7.9398    0.3526 C   0  0  0  0  0  0
  -11.8110    8.8565    0.6556 C   0  0  0  0  0  0
  -12.0178   10.2223    1.3621 C   0  0  0  0  0  0
  -10.8025   11.2276    1.3241 C   0  0  0  0  0  0
  -10.2738   11.6021   -0.0662 C   0  0  0  0  0  0
  -10.8117   12.8990   -0.7348 C   0  0  0  0  0  0
  -10.3999   14.2990   -0.1911 C   0  0  0  0  0  0
   -8.9077   14.5481   -0.0220 C   0  0  0  0  0  0
  -11.0280   15.3751   -0.9811 N   0  0  0  0  0  0
  -10.2952   12.8555   -2.0895 O   0  0  0  0  0  0
  -11.1999   12.4268    1.9977 O   0  0  0  0  0  0
  -12.9055    7.1406   -2.8533 O   0  0  0  0  0  0
   -7.2399    7.3634   -2.1556 O   0  0  0  0  0  0
   -6.0097    7.7411   -1.7207 C   0  0  0  0  0  0
   -5.0040    7.0570   -1.7244 O   0  0  0  0  0  0
   -6.0695    9.1902   -1.3233 C   0  0  0  0  0  0
   -7.3638    9.5438   -0.5734 C   0  0  0  0  0  0
   -7.1076   10.4077    0.6681 C   0  0  0  0  0  0
   -6.4201    9.6122    1.7534 C   0  0  0  0  0  0
   -5.7076    8.6389    1.5329 O   0  0  0  0  0  0
   -6.6620   10.0741    2.9891 O   0  0  0  0  0  0
   -8.2363   10.3111   -1.5764 C   0  0  0  0  0  0
   -9.2600    9.8508   -2.0587 O   0  0  0  0  0  0
   -7.7560   11.5140   -1.9202 O   0  0  0  0  0  0
   -7.2928    3.9743   -1.7446 O   0  0  0  0  0  0
   -7.6183    4.0088   -0.3989 C   0  0  0  0  0  0
   -6.9165    4.5009    0.4749 O   0  0  0  0  0  0
   -8.9759    3.3548   -0.1098 C   0  0  0  0  0  0
  -10.1831    4.3333    0.0300 C   0  0  0  0  0  0
  -11.5474    3.7457    0.4346 C   0  0  0  0  0  0
  -11.4702    2.8655    1.6486 C   0  0  0  0  0  0
  -12.0097    3.0847    2.7244 O   0  0  0  0  0  0
  -10.7410    1.7596    1.4351 O   0  0  0  0  0  0
   -9.9229    5.5414    0.9384 C   0  0  0  0  0  0
  -10.4769    5.6937    2.0092 O   0  0  0  0  0  0
   -8.9519    6.3810    0.5219 O   0  0  0  0  0  0
  -11.4106   16.0752   -0.3472 H   0  0  0  0  0  0
  -11.8396   14.9905   -1.4697 H   0  0  0  0  0  0
  -10.7260   12.0725   -2.4928 H   0  0  0  0  0  0
  -11.9857   12.7841    1.5445 H   0  0  0  0  0  0
  -12.7211    6.6395   -3.6653 H   0  0  0  0  0  0
   -7.2049   10.8846    3.0321 H   0  0  0  0  0  0
   -8.3643   12.0523   -2.4850 H   0  0  0  0  0  0
  -10.7441    1.2540    2.2751 H   0  0  0  0  0  0
   -8.6876    7.0713    1.1698 H   0  0  0  0  0  0
  1  2  1  0  0  0
  2  3  1  0  0  0
  3  4  1  0  0  0
  4  5  1  0  0  0
  5  6  1  0  0  0
  5  7  1  0  0  0
  7  8  1  0  0  0
  7 39  1  0  0  0
  8  9  1  0  0  0
  8 27  1  0  0  0
  9 10  1  0  0  0
 10 11  1  0  0  0
 10 12  1  0  0  0
 12 13  1  0  0  0
 13 14  1  0  0  0
 13 26  1  0  0  0
 14 15  1  0  0  0
 15 16  1  0  0  0
 16 17  1  0  0  0
 17 18  1  0  0  0
 18 19  1  0  0  0
 18 25  1  0  0  0
 19 20  1  0  0  0
 20 21  1  0  0  0
 20 24  1  0  0  0
 21 22  1  0  0  0
 21 23  1  0  0  0
 23 51  1  0  0  0
 23 52  1  0  0  0
 24 53  1  0  0  0
 25 54  1  0  0  0
 26 55  1  0  0  0
 27 28  1  0  0  0
 28 29  2  0  0  0
 28 30  1  0  0  0
 30 31  1  0  0  0
 31 32  1  0  0  0
 31 36  1  0  0  0
 32 33  1  0  0  0
 33 34  2  0  0  0
 33 35  1  0  0  0
 35 56  1  0  0  0
 36 37  2  0  0  0
 36 38  1  0  0  0
 38 57  1  0  0  0
 39 40  1  0  0  0
 40 41  2  0  0  0
 40 42  1  0  0  0
 42 43  1  0  0  0
 43 44  1  0  0  0
 43 48  1  0  0  0
 44 45  1  0  0  0
 45 46  2  0  0  0
 45 47  1  0  0  0
 47 58  1  0  0  0
 48 49  2  0  0  0
 48 50  1  0  0  0
 50 59  1  0  0  0
M  END
>  <AUTHOR>
    GENERATED BY OPEN BABEL 2.4.1

>  <CHROM.1>
74.63129963,177.62281693,-77.29546534,145.67891424,117.56698334,128.99356984
140.15834180,48.76635610,131.12367347,-74.52548546,179.69241014,32.82568601
88.81452336,-38.62852824,171.84361052,-165.78987520,56.56121788,94.74309385
-58.48925836,71.01018302,51.84046401,64.64222420,134.50438905,-17.33987808
40.69903867,134.96783345,-70.16642095,110.06050320,26.55798758,-3.14672740
-173.42077233,-29.36652969,-98.23651635,-175.05720700,50.34447811,-111.86886625
115.81903026,179.77840228,-170.67516458,-8.73824537,7.53877637,-0.57080447
-1.16444977,0.21533409,-0.03655216

>  <COMPND>
    UNNAMED

>  <MASTER>
        0    0    0    0    0    0    0    0  109    0  109    0

>  <Name>
FB1.pdb

>  <RI>
0

>  <Rbt.Current_Directory>
/home/fc/tossine/FB1_39/p3/2_clust01

>  <Rbt.Executable>
rbdock/0.1.0

>  <Rbt.Library>
librxdock.so/0.1.0

>  <Rbt.Parameter_File>
/cluster/rxdock/data/scripts/dock.prm

>  <Rbt.Receptor>
rx_0.prm

>  <SCORE>
14.3663

>  <SCORE.INTER>
0.65118

>  <SCORE.INTER.CONST>
1

>  <SCORE.INTER.POLAR>
-2.78484

>  <SCORE.INTER.REPUL>
0.426157

>  <SCORE.INTER.ROT>
32

>  <SCORE.INTER.VDW>
-29.4112

>  <SCORE.INTER.norm>
0.0130236

>  <SCORE.INTRA>
11.8728

>  <SCORE.INTRA.DIHEDRAL>
20.5918

>  <SCORE.INTRA.DIHEDRAL.0>
47.3121

>  <SCORE.INTRA.POLAR>
0.862798

>  <SCORE.INTRA.POLAR.0>
-1.47808

>  <SCORE.INTRA.REPUL>
0

>  <SCORE.INTRA.REPUL.0>
0

>  <SCORE.INTRA.VDW>
-1.35656

>  <SCORE.INTRA.VDW.0>
-2.78316

>  <SCORE.INTRA.norm>
0.237457

>  <SCORE.RESTR>
1.84225

>  <SCORE.RESTR.CAVITY>
1.84225

>  <SCORE.RESTR.norm>
0.036845

>  <SCORE.SYSTEM>
0

>  <SCORE.SYSTEM.CONST>
0

>  <SCORE.SYSTEM.DIHEDRAL>
0

>  <SCORE.SYSTEM.norm>
0

>  <SCORE.heavy>
50

>  <SCORE.norm>
0.287325

$$$$
