FB1.pdb
  RxDock  10072010593D
librxdock.so/0.1.0
 59 58  0  0  0  0  0  0  0  0999 V2000
  -12.8140    2.4789    2.4993 C   0  0  0  0  0  0
  -11.3906    3.0316    2.5072 C   0  0  0  0  0  0
  -11.1730    4.0599    1.3849 C   0  0  0  0  0  0
  -11.0062    3.4195   -0.0157 C   0  0  0  0  0  0
  -10.8006    4.4396   -1.1894 C   0  0  0  0  0  0
  -12.1721    5.0639   -1.5358 C   0  0  0  0  0  0
   -9.7292    5.5655   -0.8694 C   0  0  0  0  0  0
   -8.3878    5.5605   -1.7450 C   0  0  0  0  0  0
   -7.2636    6.6842   -1.7032 C   0  0  0  0  0  0
   -7.8213    8.2348   -1.7800 C   0  0  0  0  0  0
   -6.6604    9.1831   -1.4847 C   0  0  0  0  0  0
   -8.5264    8.6615   -3.1459 C   0  0  0  0  0  0
   -9.1253   10.1366   -3.4359 C   0  0  0  0  0  0
   -9.7314   11.0348   -2.3037 C   0  0  0  0  0  0
   -9.7010   12.6194   -2.4962 C   0  0  0  0  0  0
   -8.6385   13.5760   -1.8248 C   0  0  0  0  0  0
   -8.9714   14.2587   -0.4719 C   0  0  0  0  0  0
   -7.8322   14.2548    0.6196 C   0  0  0  0  0  0
   -8.0170   15.2189    1.7980 C   0  0  0  0  0  0
   -7.7425   16.7315    1.5632 C   0  0  0  0  0  0
   -6.4052   17.2023    0.9186 C   0  0  0  0  0  0
   -6.1423   16.7427   -0.5087 C   0  0  0  0  0  0
   -6.2502   18.6645    1.0387 N   0  0  0  0  0  0
   -8.7751   17.1529    0.6358 O   0  0  0  0  0  0
   -7.7184   12.9237    1.1346 O   0  0  0  0  0  0
   -8.0176   10.8889   -3.9591 O   0  0  0  0  0  0
   -7.6845    4.3351   -1.4040 O   0  0  0  0  0  0
   -8.1080    3.1931   -2.0054 C   0  0  0  0  0  0
   -8.8607    3.1180   -2.9579 O   0  0  0  0  0  0
   -7.4092    2.0281   -1.3604 C   0  0  0  0  0  0
   -5.9940    2.3828   -0.8768 C   0  0  0  0  0  0
   -5.1162    2.9573   -1.9961 C   0  0  0  0  0  0
   -4.5301    1.8560   -2.8488 C   0  0  0  0  0  0
   -5.2080    1.0265   -3.4453 O   0  0  0  0  0  0
   -3.1897    1.8714   -2.8942 O   0  0  0  0  0  0
   -6.1770    3.4253    0.2348 C   0  0  0  0  0  0
   -5.5023    4.4407    0.3145 O   0  0  0  0  0  0
   -7.1082    3.1065    1.1443 O   0  0  0  0  0  0
  -10.3590    6.9077   -0.8279 O   0  0  0  0  0  0
  -10.9936    7.3022    0.3382 C   0  0  0  0  0  0
  -11.8375    6.6415    0.9295 O   0  0  0  0  0  0
  -10.5206    8.6790    0.8231 C   0  0  0  0  0  0
  -11.6448    9.6570    1.2860 C   0  0  0  0  0  0
  -11.3194   10.6497    2.4169 C   0  0  0  0  0  0
   -9.9569   11.2661    2.2824 C   0  0  0  0  0  0
   -8.8920   10.6722    2.3826 O   0  0  0  0  0  0
  -10.0120   12.5792    2.0126 O   0  0  0  0  0  0
  -12.2985   10.4588    0.1537 C   0  0  0  0  0  0
  -13.3724   10.1615   -0.3312 O   0  0  0  0  0  0
  -11.6527   11.5885   -0.2039 O   0  0  0  0  0  0
   -5.7256   19.0118    0.2370 H   0  0  0  0  0  0
   -5.6580   18.8648    1.8478 H   0  0  0  0  0  0
   -8.6645   18.1248    0.5685 H   0  0  0  0  0  0
   -7.1806   12.9569    1.9470 H   0  0  0  0  0  0
   -7.3709   11.0089   -3.2436 H   0  0  0  0  0  0
   -2.7872    1.2481   -3.5290 H   0  0  0  0  0  0
   -7.5895    2.2620    0.9596 H   0  0  0  0  0  0
  -10.9577   12.8350    2.0514 H   0  0  0  0  0  0
  -12.0948   12.1219   -0.9012 H   0  0  0  0  0  0
  1  2  1  0  0  0
  2  3  1  0  0  0
  3  4  1  0  0  0
  4  5  1  0  0  0
  5  6  1  0  0  0
  5  7  1  0  0  0
  7  8  1  0  0  0
  7 39  1  0  0  0
  8  9  1  0  0  0
  8 27  1  0  0  0
  9 10  1  0  0  0
 10 11  1  0  0  0
 10 12  1  0  0  0
 12 13  1  0  0  0
 13 14  1  0  0  0
 13 26  1  0  0  0
 14 15  1  0  0  0
 15 16  1  0  0  0
 16 17  1  0  0  0
 17 18  1  0  0  0
 18 19  1  0  0  0
 18 25  1  0  0  0
 19 20  1  0  0  0
 20 21  1  0  0  0
 20 24  1  0  0  0
 21 22  1  0  0  0
 21 23  1  0  0  0
 23 51  1  0  0  0
 23 52  1  0  0  0
 24 53  1  0  0  0
 25 54  1  0  0  0
 26 55  1  0  0  0
 27 28  1  0  0  0
 28 29  2  0  0  0
 28 30  1  0  0  0
 30 31  1  0  0  0
 31 32  1  0  0  0
 31 36  1  0  0  0
 32 33  1  0  0  0
 33 34  2  0  0  0
 33 35  1  0  0  0
 35 56  1  0  0  0
 36 37  2  0  0  0
 36 38  1  0  0  0
 38 57  1  0  0  0
 39 40  1  0  0  0
 40 41  2  0  0  0
 40 42  1  0  0  0
 42 43  1  0  0  0
 43 44  1  0  0  0
 43 48  1  0  0  0
 44 45  1  0  0  0
 45 46  2  0  0  0
 45 47  1  0  0  0
 47 58  1  0  0  0
 48 49  2  0  0  0
 48 50  1  0  0  0
 50 59  1  0  0  0
M  END
>  <AUTHOR>
    GENERATED BY OPEN BABEL 2.4.1

>  <CHROM.1>
-76.31385819,179.23799946,-77.09314211,114.26053092,172.85457953,82.34387966
-47.05667388,80.34621849,170.22936147,-179.22246241,-31.63877817,153.48625548
-67.93731513,-100.06170410,-94.00185694,135.79747070,164.92856840,-76.11395797
-166.43912718,-51.47392477,63.20076413,173.73646163,-148.64857092,13.08999824
-32.10559014,-55.36897992,-81.52323145,-135.10974656,57.78100117,-172.24586378
-2.83016300,-51.24147899,135.40402113,147.66220765,41.71157494,100.49871892
-66.61394513,5.15200986,-177.32595681,-8.75527181,8.40668553,-0.42114001
1.50673916,-0.42769130,-3.04132826

>  <COMPND>
    UNNAMED

>  <MASTER>
        0    0    0    0    0    0    0    0  109    0  109    0

>  <Name>
FB1.pdb

>  <RI>
0

>  <Rbt.Current_Directory>
/home/fc/tossine/FB1_39/p3/2_clust01

>  <Rbt.Executable>
rbdock/0.1.0

>  <Rbt.Library>
librxdock.so/0.1.0

>  <Rbt.Parameter_File>
/cluster/rxdock/data/scripts/dock.prm

>  <Rbt.Receptor>
rx_0.prm

>  <SCORE>
35.4279

>  <SCORE.INTER>
12.4166

>  <SCORE.INTER.CONST>
1

>  <SCORE.INTER.POLAR>
-1.71497

>  <SCORE.INTER.REPUL>
0.331747

>  <SCORE.INTER.ROT>
32

>  <SCORE.INTER.VDW>
-20.8113

>  <SCORE.INTER.norm>
0.248332

>  <SCORE.INTRA>
22.3357

>  <SCORE.INTRA.DIHEDRAL>
23.629

>  <SCORE.INTRA.DIHEDRAL.0>
47.3121

>  <SCORE.INTRA.POLAR>
1.46369

>  <SCORE.INTRA.POLAR.0>
-1.47808

>  <SCORE.INTRA.REPUL>
0.0104829

>  <SCORE.INTRA.REPUL.0>
0

>  <SCORE.INTRA.VDW>
5.49225

>  <SCORE.INTRA.VDW.0>
-2.78316

>  <SCORE.INTRA.norm>
0.446715

>  <SCORE.RESTR>
0.675638

>  <SCORE.RESTR.CAVITY>
0.675638

>  <SCORE.RESTR.norm>
0.0135128

>  <SCORE.SYSTEM>
0

>  <SCORE.SYSTEM.CONST>
0

>  <SCORE.SYSTEM.DIHEDRAL>
0

>  <SCORE.SYSTEM.norm>
0

>  <SCORE.heavy>
50

>  <SCORE.norm>
0.708559

$$$$
