FB1.pdb
  RxDock  09132007273D
librxdock.so/0.1.0
 59 58  0  0  0  0  0  0  0  0999 V2000
    1.5217   -6.0403   -1.9069 C   0  0  0  0  0  0
    1.2783   -4.6612   -1.2985 C   0  0  0  0  0  0
    2.0704   -3.5669   -2.0329 C   0  0  0  0  0  0
    1.4584   -2.1523   -1.8781 C   0  0  0  0  0  0
    2.3386   -0.9849   -2.4462 C   0  0  0  0  0  0
    1.4511   -0.1076   -3.3591 C   0  0  0  0  0  0
    3.0336   -0.1097   -1.3197 C   0  0  0  0  0  0
    2.5866   -0.3868    0.1934 C   0  0  0  0  0  0
    1.2044    0.0651    0.8366 C   0  0  0  0  0  0
    1.0878    1.6733    1.1853 C   0  0  0  0  0  0
    1.6167    2.4678   -0.0077 C   0  0  0  0  0  0
   -0.3639    2.2037    1.5800 C   0  0  0  0  0  0
   -1.6269    2.2292    0.5686 C   0  0  0  0  0  0
   -2.2715    3.5652    0.0630 C   0  0  0  0  0  0
   -3.8295    3.5699   -0.2857 C   0  0  0  0  0  0
   -4.6097    4.8211   -0.8517 C   0  0  0  0  0  0
   -6.1551    4.7654   -0.9782 C   0  0  0  0  0  0
   -6.8290    5.8672   -1.8844 C   0  0  0  0  0  0
   -6.3825    7.3141   -1.6401 C   0  0  0  0  0  0
   -7.4581    8.4361   -1.6905 C   0  0  0  0  0  0
   -7.1517    9.8522   -1.1193 C   0  0  0  0  0  0
   -6.8534    9.9316    0.3713 C   0  0  0  0  0  0
   -6.0954   10.5184   -1.9047 N   0  0  0  0  0  0
   -7.7038    8.6466   -3.1044 O   0  0  0  0  0  0
   -6.5668    5.5351   -3.2522 O   0  0  0  0  0  0
   -1.1634    1.5635   -0.6182 O   0  0  0  0  0  0
    2.6090   -1.8298    0.3660 O   0  0  0  0  0  0
    2.3203   -2.3075    1.6045 C   0  0  0  0  0  0
    1.2391   -2.7150    1.9844 O   0  0  0  0  0  0
    3.5909   -2.3458    2.4079 C   0  0  0  0  0  0
    3.8623   -1.0256    3.1467 C   0  0  0  0  0  0
    3.6809   -1.1524    4.6647 C   0  0  0  0  0  0
    3.0534    0.0939    5.2447 C   0  0  0  0  0  0
    3.5925    0.7907    6.0977 O   0  0  0  0  0  0
    1.8440    0.3701    4.7349 O   0  0  0  0  0  0
    5.3146   -0.6506    2.8207 C   0  0  0  0  0  0
    6.1475   -1.4655    2.4537 O   0  0  0  0  0  0
    5.6101    0.6413    3.0194 O   0  0  0  0  0  0
    4.5090   -0.1149   -1.4716 O   0  0  0  0  0  0
    5.2268    0.9588   -0.9716 C   0  0  0  0  0  0
    4.7288    1.9406   -0.4364 O   0  0  0  0  0  0
    6.7399    0.7881   -1.1602 C   0  0  0  0  0  0
    7.4754   -0.0152   -0.0429 C   0  0  0  0  0  0
    7.3711   -1.5511   -0.0685 C   0  0  0  0  0  0
    7.7660   -2.1439   -1.3903 C   0  0  0  0  0  0
    8.4813   -1.6098   -2.2267 O   0  0  0  0  0  0
    7.2584   -3.3723   -1.5739 O   0  0  0  0  0  0
    8.9593    0.3353    0.1228 C   0  0  0  0  0  0
    9.6863    0.5907   -0.8169 O   0  0  0  0  0  0
    9.3891    0.4484    1.3970 O   0  0  0  0  0  0
   -6.3337   11.5027   -2.0178 H   0  0  0  0  0  0
   -6.1022   10.1350   -2.8526 H   0  0  0  0  0  0
   -8.3311    9.3995   -3.1363 H   0  0  0  0  0  0
   -5.6278    5.7222   -3.4360 H   0  0  0  0  0  0
   -0.5687    2.1701   -1.0904 H   0  0  0  0  0  0
    1.4501    1.2134    5.0302 H   0  0  0  0  0  0
    4.9643    1.1266    3.5906 H   0  0  0  0  0  0
    8.0199   -3.9726   -1.7191 H   0  0  0  0  0  0
    8.7546    0.1426    2.0827 H   0  0  0  0  0  0
  1  2  1  0  0  0
  2  3  1  0  0  0
  3  4  1  0  0  0
  4  5  1  0  0  0
  5  6  1  0  0  0
  5  7  1  0  0  0
  7  8  1  0  0  0
  7 39  1  0  0  0
  8  9  1  0  0  0
  8 27  1  0  0  0
  9 10  1  0  0  0
 10 11  1  0  0  0
 10 12  1  0  0  0
 12 13  1  0  0  0
 13 14  1  0  0  0
 13 26  1  0  0  0
 14 15  1  0  0  0
 15 16  1  0  0  0
 16 17  1  0  0  0
 17 18  1  0  0  0
 18 19  1  0  0  0
 18 25  1  0  0  0
 19 20  1  0  0  0
 20 21  1  0  0  0
 20 24  1  0  0  0
 21 22  1  0  0  0
 21 23  1  0  0  0
 23 51  1  0  0  0
 23 52  1  0  0  0
 24 53  1  0  0  0
 25 54  1  0  0  0
 26 55  1  0  0  0
 27 28  1  0  0  0
 28 29  2  0  0  0
 28 30  1  0  0  0
 30 31  1  0  0  0
 31 32  1  0  0  0
 31 36  1  0  0  0
 32 33  1  0  0  0
 33 34  2  0  0  0
 33 35  1  0  0  0
 35 56  1  0  0  0
 36 37  2  0  0  0
 36 38  1  0  0  0
 38 57  1  0  0  0
 39 40  1  0  0  0
 40 41  2  0  0  0
 40 42  1  0  0  0
 42 43  1  0  0  0
 43 44  1  0  0  0
 43 48  1  0  0  0
 44 45  1  0  0  0
 45 46  2  0  0  0
 45 47  1  0  0  0
 47 58  1  0  0  0
 48 49  2  0  0  0
 48 50  1  0  0  0
 50 59  1  0  0  0
M  END
>  <AUTHOR>
    GENERATED BY OPEN BABEL 2.4.1

>  <CHROM.1>
156.29307774,172.08118612,130.00907580,-8.60831638,-74.28874801,154.30267080
-74.87403336,177.09846288,45.34976536,-65.45008163,-113.37289785,-150.04867122
-74.62474361,-177.80168461,-172.03348275,-164.40835046,-48.16193338,-140.35875241
-72.92732321,165.01451770,-62.52900924,-175.87676185,139.85553523,96.99157925
88.49748724,109.42283689,-142.27042653,-21.98384312,-120.11356195,-174.61556045
17.29392298,-1.93899226,-85.76556456,78.56040944,53.21180567,-37.49613195
22.33347857,-121.81021357,10.29217795,1.49828026,1.22076438,0.05090522,0.36580603
0.51665336,-2.44857097

>  <COMPND>
    UNNAMED

>  <MASTER>
        0    0    0    0    0    0    0    0  109    0  109    0

>  <Name>
FB1.pdb

>  <RI>
0

>  <Rbt.Current_Directory>
/home/fc/tossine/FB1_39/p3/2_clust01

>  <Rbt.Executable>
rbdock/0.1.0

>  <Rbt.Library>
librxdock.so/0.1.0

>  <Rbt.Parameter_File>
/cluster/rxdock/data/scripts/dock.prm

>  <Rbt.Receptor>
rx_0.prm

>  <SCORE>
39.6783

>  <SCORE.INTER>
4.77732

>  <SCORE.INTER.CONST>
1

>  <SCORE.INTER.POLAR>
-1.8697

>  <SCORE.INTER.REPUL>
0.661496

>  <SCORE.INTER.ROT>
32

>  <SCORE.INTER.VDW>
-29.5732

>  <SCORE.INTER.norm>
0.0955463

>  <SCORE.INTRA>
32.4546

>  <SCORE.INTRA.DIHEDRAL>
54.3745

>  <SCORE.INTRA.DIHEDRAL.0>
47.3121

>  <SCORE.INTRA.POLAR>
1.4746

>  <SCORE.INTRA.POLAR.0>
-1.47808

>  <SCORE.INTRA.REPUL>
0

>  <SCORE.INTRA.REPUL.0>
0

>  <SCORE.INTRA.VDW>
0.253722

>  <SCORE.INTRA.VDW.0>
-2.78316

>  <SCORE.INTRA.norm>
0.649092

>  <SCORE.RESTR>
2.44634

>  <SCORE.RESTR.CAVITY>
2.44634

>  <SCORE.RESTR.norm>
0.0489269

>  <SCORE.SYSTEM>
0

>  <SCORE.SYSTEM.CONST>
0

>  <SCORE.SYSTEM.DIHEDRAL>
0

>  <SCORE.SYSTEM.norm>
0

>  <SCORE.heavy>
50

>  <SCORE.norm>
0.793566

$$$$
