FB1.pdb
  RxDock  10072012453D
librxdock.so/0.1.0
 59 58  0  0  0  0  0  0  0  0999 V2000
    3.9366   -3.2160    4.3959 C   0  0  0  0  0  0
    3.5004   -2.9466    2.9577 C   0  0  0  0  0  0
    2.0271   -3.3230    2.7296 C   0  0  0  0  0  0
    1.4836   -2.8811    1.3479 C   0  0  0  0  0  0
    1.2460   -1.3384    1.1930 C   0  0  0  0  0  0
    0.8577   -0.7657    2.5757 C   0  0  0  0  0  0
    2.4913   -0.5636    0.5872 C   0  0  0  0  0  0
    2.2702    0.9750    0.1998 C   0  0  0  0  0  0
    1.0632    1.8806    0.7012 C   0  0  0  0  0  0
    0.0344    2.3927   -0.4822 C   0  0  0  0  0  0
   -0.2330    1.2256   -1.4311 C   0  0  0  0  0  0
   -1.3517    3.0103    0.0100 C   0  0  0  0  0  0
   -2.5026    3.5637   -0.9839 C   0  0  0  0  0  0
   -3.5454    2.6170   -1.6713 C   0  0  0  0  0  0
   -4.2119    3.0927   -3.0420 C   0  0  0  0  0  0
   -5.5633    3.9045   -3.1383 C   0  0  0  0  0  0
   -6.8990    3.2138   -2.7563 C   0  0  0  0  0  0
   -8.2244    3.9683   -3.1605 C   0  0  0  0  0  0
   -8.4056    5.3786   -2.5855 C   0  0  0  0  0  0
   -9.7750    6.0871   -2.7880 C   0  0  0  0  0  0
  -10.0940    7.4192   -2.0470 C   0  0  0  0  0  0
  -10.0730    7.3700   -0.5256 C   0  0  0  0  0  0
   -9.2468    8.5168   -2.5508 N   0  0  0  0  0  0
   -9.8093    6.4245   -4.1983 O   0  0  0  0  0  0
   -8.2675    4.0507   -4.5892 O   0  0  0  0  0  0
   -3.2848    4.4623   -0.1794 O   0  0  0  0  0  0
    3.4595    1.6813    0.6461 O   0  0  0  0  0  0
    3.6540    1.7759    1.9871 C   0  0  0  0  0  0
    3.0071    1.2125    2.8494 O   0  0  0  0  0  0
    4.8748    2.6189    2.2328 C   0  0  0  0  0  0
    5.3512    2.5566    3.6928 C   0  0  0  0  0  0
    6.6614    3.3223    3.9176 C   0  0  0  0  0  0
    7.2615    2.9920    5.2645 C   0  0  0  0  0  0
    6.6076    2.9210    6.2994 O   0  0  0  0  0  0
    8.5853    2.7805    5.2223 O   0  0  0  0  0  0
    4.2271    3.1819    4.5303 C   0  0  0  0  0  0
    4.1394    4.3824    4.7388 O   0  0  0  0  0  0
    3.3724    2.2951    5.0587 O   0  0  0  0  0  0
    3.7005   -0.7562    1.4241 O   0  0  0  0  0  0
    4.8502   -1.2376    0.8202 C   0  0  0  0  0  0
    5.6095   -2.0565    1.3214 O   0  0  0  0  0  0
    5.0789   -0.6279   -0.5692 C   0  0  0  0  0  0
    6.5303   -0.1363   -0.8626 C   0  0  0  0  0  0
    6.9856    1.1920   -0.2311 C   0  0  0  0  0  0
    6.6064    2.3915   -1.0508 C   0  0  0  0  0  0
    7.1814    2.7774   -2.0592 O   0  0  0  0  0  0
    5.5229    3.0200   -0.5698 O   0  0  0  0  0  0
    7.6245   -1.1722   -0.5765 C   0  0  0  0  0  0
    8.2279   -1.7552   -1.4557 O   0  0  0  0  0  0
    7.9552   -1.3219    0.7233 O   0  0  0  0  0  0
   -9.7778    9.3863   -2.5279 H   0  0  0  0  0  0
   -9.0537    8.3522   -3.5413 H   0  0  0  0  0  0
   -9.6555    5.5730   -4.6594 H   0  0  0  0  0  0
   -8.2121    3.1458   -4.9479 H   0  0  0  0  0  0
   -3.6511    3.9573    0.5659 H   0  0  0  0  0  0
    8.9998    2.5623    6.0791 H   0  0  0  0  0  0
    3.3247    1.4333    4.5752 H   0  0  0  0  0  0
    5.1627    3.5613   -1.3037 H   0  0  0  0  0  0
    8.6823   -1.9591    0.9007 H   0  0  0  0  0  0
  1  2  1  0  0  0
  2  3  1  0  0  0
  3  4  1  0  0  0
  4  5  1  0  0  0
  5  6  1  0  0  0
  5  7  1  0  0  0
  7  8  1  0  0  0
  7 39  1  0  0  0
  8  9  1  0  0  0
  8 27  1  0  0  0
  9 10  1  0  0  0
 10 11  1  0  0  0
 10 12  1  0  0  0
 12 13  1  0  0  0
 13 14  1  0  0  0
 13 26  1  0  0  0
 14 15  1  0  0  0
 15 16  1  0  0  0
 16 17  1  0  0  0
 17 18  1  0  0  0
 18 19  1  0  0  0
 18 25  1  0  0  0
 19 20  1  0  0  0
 20 21  1  0  0  0
 20 24  1  0  0  0
 21 22  1  0  0  0
 21 23  1  0  0  0
 23 51  1  0  0  0
 23 52  1  0  0  0
 24 53  1  0  0  0
 25 54  1  0  0  0
 26 55  1  0  0  0
 27 28  1  0  0  0
 28 29  2  0  0  0
 28 30  1  0  0  0
 30 31  1  0  0  0
 31 32  1  0  0  0
 31 36  1  0  0  0
 32 33  1  0  0  0
 33 34  2  0  0  0
 33 35  1  0  0  0
 35 56  1  0  0  0
 36 37  2  0  0  0
 36 38  1  0  0  0
 38 57  1  0  0  0
 39 40  1  0  0  0
 40 41  2  0  0  0
 40 42  1  0  0  0
 42 43  1  0  0  0
 43 44  1  0  0  0
 43 48  1  0  0  0
 44 45  1  0  0  0
 45 46  2  0  0  0
 45 47  1  0  0  0
 47 58  1  0  0  0
 48 49  2  0  0  0
 48 50  1  0  0  0
 50 59  1  0  0  0
M  END
>  <AUTHOR>
    GENERATED BY OPEN BABEL 2.4.1

>  <CHROM.1>
171.75101561,-72.56719078,-31.20062909,171.57694001,16.60266955,125.50894740
-115.06225233,-68.13209225,42.54488552,-179.68471379,82.45871417,-154.67641949
-59.95005129,-91.47116000,-68.65287853,-167.48767745,-58.96261653,-171.63685243
56.89162714,170.61562422,-60.20863727,55.05543928,145.84057870,8.09039629
-168.34250017,175.25379926,-167.30335912,-86.43927590,-43.86315143,-179.82828707
-24.00630634,-139.86165599,134.07410673,-76.29132040,-85.47501231,106.81605392
-78.05053290,-160.17803554,-177.57246920,1.07961965,1.95814734,0.48262629
0.05243641,0.45459213,-2.45567999

>  <COMPND>
    UNNAMED

>  <MASTER>
        0    0    0    0    0    0    0    0  109    0  109    0

>  <Name>
FB1.pdb

>  <RI>
0

>  <Rbt.Current_Directory>
/home/fc/tossine/FB1_39/p3/2_clust01

>  <Rbt.Executable>
rbdock/0.1.0

>  <Rbt.Library>
librxdock.so/0.1.0

>  <Rbt.Parameter_File>
/cluster/rxdock/data/scripts/dock.prm

>  <Rbt.Receptor>
rx_2.prm

>  <SCORE>
19.4354

>  <SCORE.INTER>
0.773453

>  <SCORE.INTER.CONST>
1

>  <SCORE.INTER.POLAR>
-2.56559

>  <SCORE.INTER.REPUL>
0.253018

>  <SCORE.INTER.ROT>
32

>  <SCORE.INTER.VDW>
-29.1686

>  <SCORE.INTER.norm>
0.0154691

>  <SCORE.INTRA>
17.3031

>  <SCORE.INTRA.DIHEDRAL>
18.5919

>  <SCORE.INTRA.DIHEDRAL.0>
47.3121

>  <SCORE.INTRA.POLAR>
0.00478149

>  <SCORE.INTRA.POLAR.0>
-1.47808

>  <SCORE.INTRA.REPUL>
0.574053

>  <SCORE.INTRA.REPUL.0>
0

>  <SCORE.INTRA.VDW>
5.12065

>  <SCORE.INTRA.VDW.0>
-2.78316

>  <SCORE.INTRA.norm>
0.346062

>  <SCORE.RESTR>
1.35886

>  <SCORE.RESTR.CAVITY>
1.35886

>  <SCORE.RESTR.norm>
0.0271772

>  <SCORE.SYSTEM>
0

>  <SCORE.SYSTEM.CONST>
0

>  <SCORE.SYSTEM.DIHEDRAL>
0

>  <SCORE.SYSTEM.norm>
0

>  <SCORE.heavy>
50

>  <SCORE.norm>
0.388709

$$$$
