FB1.pdb
  RxDock  10072012423D
librxdock.so/0.1.0
 59 58  0  0  0  0  0  0  0  0999 V2000
    4.5175   -0.2438    5.3548 C   0  0  0  0  0  0
    3.3255    0.6371    5.7216 C   0  0  0  0  0  0
    3.7550    1.8621    6.5458 C   0  0  0  0  0  0
    4.5274    2.9215    5.7207 C   0  0  0  0  0  0
    4.0867    3.0415    4.2201 C   0  0  0  0  0  0
    4.2651    4.5123    3.7778 C   0  0  0  0  0  0
    4.8680    2.0585    3.2500 C   0  0  0  0  0  0
    4.0470    1.4535    2.0147 C   0  0  0  0  0  0
    2.8910    2.2089    1.2265 C   0  0  0  0  0  0
    1.8475    1.2290    0.4066 C   0  0  0  0  0  0
    1.0013    0.4635    1.4225 C   0  0  0  0  0  0
    0.8936    1.9466   -0.6517 C   0  0  0  0  0  0
    0.1241    1.1760   -1.8486 C   0  0  0  0  0  0
   -1.4177    1.3235   -2.0882 C   0  0  0  0  0  0
   -1.9802    2.7458   -2.5464 C   0  0  0  0  0  0
   -2.3910    3.9014   -1.5513 C   0  0  0  0  0  0
   -3.7486    3.8208   -0.8044 C   0  0  0  0  0  0
   -5.0346    3.6255   -1.6974 C   0  0  0  0  0  0
   -5.4335    2.1771   -2.0065 C   0  0  0  0  0  0
   -6.9134    1.8845   -2.3838 C   0  0  0  0  0  0
   -8.0021    1.7582   -1.2773 C   0  0  0  0  0  0
   -7.6113    0.9813   -0.0279 C   0  0  0  0  0  0
   -8.5497    3.0821   -0.9253 N   0  0  0  0  0  0
   -7.3212    3.0239   -3.1834 O   0  0  0  0  0  0
   -6.1313    4.2687   -1.0391 O   0  0  0  0  0  0
    0.7392    1.6593   -3.0548 O   0  0  0  0  0  0
    5.0289    1.1321    0.9925 O   0  0  0  0  0  0
    4.7111    0.1384    0.1225 C   0  0  0  0  0  0
    3.8522   -0.7083    0.2801 O   0  0  0  0  0  0
    5.5325    0.3167   -1.1244 C   0  0  0  0  0  0
    6.6565   -0.7248   -1.2449 C   0  0  0  0  0  0
    6.1306   -2.1186   -1.6113 C   0  0  0  0  0  0
    7.2668   -3.0937   -1.8150 C   0  0  0  0  0  0
    8.4479   -2.7646   -1.8341 O   0  0  0  0  0  0
    6.8605   -4.3622   -1.9725 O   0  0  0  0  0  0
    7.5922   -0.2100   -2.3473 C   0  0  0  0  0  0
    8.7544    0.1056   -2.1420 O   0  0  0  0  0  0
    7.0146   -0.0870   -3.5503 O   0  0  0  0  0  0
    6.1615    2.6446    2.8221 O   0  0  0  0  0  0
    7.2388    1.7955    2.6310 C   0  0  0  0  0  0
    7.1507    0.5869    2.4582 O   0  0  0  0  0  0
    8.5805    2.5395    2.6578 C   0  0  0  0  0  0
    9.8490    1.6434    2.8071 C   0  0  0  0  0  0
   10.3795    0.9260    1.5523 C   0  0  0  0  0  0
   10.6346    1.8612    0.4057 C   0  0  0  0  0  0
   11.7164    2.0514   -0.1329 O   0  0  0  0  0  0
    9.5197    2.4835   -0.0067 O   0  0  0  0  0  0
   11.0447    2.3365    3.4720 C   0  0  0  0  0  0
   12.1475    2.3828    2.9637 O   0  0  0  0  0  0
   10.7701    2.9914    4.6196 O   0  0  0  0  0  0
   -8.6330    3.6447   -1.7709 H   0  0  0  0  0  0
   -7.8656    3.5753   -0.3471 H   0  0  0  0  0  0
   -7.0173    2.8099   -4.0907 H   0  0  0  0  0  0
   -6.8391    4.4096   -1.6945 H   0  0  0  0  0  0
    1.7014    1.5586   -2.9628 H   0  0  0  0  0  0
    7.5614   -4.9968   -2.2165 H   0  0  0  0  0  0
    6.0582   -0.3390   -3.5736 H   0  0  0  0  0  0
    9.7620    2.9926   -0.8088 H   0  0  0  0  0  0
   11.5285    3.4708    5.0211 H   0  0  0  0  0  0
  1  2  1  0  0  0
  2  3  1  0  0  0
  3  4  1  0  0  0
  4  5  1  0  0  0
  5  6  1  0  0  0
  5  7  1  0  0  0
  7  8  1  0  0  0
  7 39  1  0  0  0
  8  9  1  0  0  0
  8 27  1  0  0  0
  9 10  1  0  0  0
 10 11  1  0  0  0
 10 12  1  0  0  0
 12 13  1  0  0  0
 13 14  1  0  0  0
 13 26  1  0  0  0
 14 15  1  0  0  0
 15 16  1  0  0  0
 16 17  1  0  0  0
 17 18  1  0  0  0
 18 19  1  0  0  0
 18 25  1  0  0  0
 19 20  1  0  0  0
 20 21  1  0  0  0
 20 24  1  0  0  0
 21 22  1  0  0  0
 21 23  1  0  0  0
 23 51  1  0  0  0
 23 52  1  0  0  0
 24 53  1  0  0  0
 25 54  1  0  0  0
 26 55  1  0  0  0
 27 28  1  0  0  0
 28 29  2  0  0  0
 28 30  1  0  0  0
 30 31  1  0  0  0
 31 32  1  0  0  0
 31 36  1  0  0  0
 32 33  1  0  0  0
 33 34  2  0  0  0
 33 35  1  0  0  0
 35 56  1  0  0  0
 36 37  2  0  0  0
 36 38  1  0  0  0
 38 57  1  0  0  0
 39 40  1  0  0  0
 40 41  2  0  0  0
 40 42  1  0  0  0
 42 43  1  0  0  0
 43 44  1  0  0  0
 43 48  1  0  0  0
 44 45  1  0  0  0
 45 46  2  0  0  0
 45 47  1  0  0  0
 47 58  1  0  0  0
 48 49  2  0  0  0
 48 50  1  0  0  0
 50 59  1  0  0  0
M  END
>  <AUTHOR>
    GENERATED BY OPEN BABEL 2.4.1

>  <CHROM.1>
71.50067020,32.87164818,147.74331065,145.30148156,33.21660223,145.43337376
-158.22188474,153.13053123,69.57955595,161.33708189,128.10965357,66.30673873
51.58733685,-86.96624274,-77.69205487,-54.17117015,88.68311912,156.94121948
161.72404799,-80.45702981,-41.95795846,84.29152237,38.18327047,-18.09096358
106.81064744,73.34934212,176.07494387,116.33538247,-7.77596318,172.69641360
0.30129373,19.23870496,165.39261806,79.65021605,54.12748231,-126.11568910
119.05888094,-174.10214363,-177.18333725,3.38370823,1.39036858,0.45452620
0.13262563,-0.18389428,1.11460777

>  <COMPND>
    UNNAMED

>  <MASTER>
        0    0    0    0    0    0    0    0  109    0  109    0

>  <Name>
FB1.pdb

>  <RI>
0

>  <Rbt.Current_Directory>
/home/fc/tossine/FB1_39/p3/2_clust01

>  <Rbt.Executable>
rbdock/0.1.0

>  <Rbt.Library>
librxdock.so/0.1.0

>  <Rbt.Parameter_File>
/cluster/rxdock/data/scripts/dock.prm

>  <Rbt.Receptor>
rx_2.prm

>  <SCORE>
9.82348

>  <SCORE.INTER>
-0.306007

>  <SCORE.INTER.CONST>
1

>  <SCORE.INTER.POLAR>
-2.42007

>  <SCORE.INTER.REPUL>
0.265483

>  <SCORE.INTER.ROT>
32

>  <SCORE.INTER.VDW>
-30.8052

>  <SCORE.INTER.norm>
-0.00612014

>  <SCORE.INTRA>
8.85623

>  <SCORE.INTRA.DIHEDRAL>
14.3002

>  <SCORE.INTRA.DIHEDRAL.0>
47.3121

>  <SCORE.INTRA.POLAR>
0.376917

>  <SCORE.INTRA.POLAR.0>
-1.47808

>  <SCORE.INTRA.REPUL>
0

>  <SCORE.INTRA.REPUL.0>
0

>  <SCORE.INTRA.VDW>
0.424596

>  <SCORE.INTRA.VDW.0>
-2.78316

>  <SCORE.INTRA.norm>
0.177125

>  <SCORE.RESTR>
1.27326

>  <SCORE.RESTR.CAVITY>
1.27326

>  <SCORE.RESTR.norm>
0.0254652

>  <SCORE.SYSTEM>
0

>  <SCORE.SYSTEM.CONST>
0

>  <SCORE.SYSTEM.DIHEDRAL>
0

>  <SCORE.SYSTEM.norm>
0

>  <SCORE.heavy>
50

>  <SCORE.norm>
0.19647

$$$$
