FB1.pdb
  RxDock  10072012353D
librxdock.so/0.1.0
 59 58  0  0  0  0  0  0  0  0999 V2000
   -2.1464    1.9364    0.7532 C   0  0  0  0  0  0
   -0.7365    2.5180    0.8257 C   0  0  0  0  0  0
   -0.0583    2.2014    2.1688 C   0  0  0  0  0  0
    0.6912    0.8457    2.1777 C   0  0  0  0  0  0
    2.0877    0.8570    1.4635 C   0  0  0  0  0  0
    1.8555    1.0436   -0.0537 C   0  0  0  0  0  0
    3.0777    1.9620    2.0262 C   0  0  0  0  0  0
    3.9900    1.5499    3.2768 C   0  0  0  0  0  0
    4.3902    2.5153    4.4752 C   0  0  0  0  0  0
    5.8747    2.2315    5.1363 C   0  0  0  0  0  0
    6.9412    2.5612    4.0932 C   0  0  0  0  0  0
    6.1985    3.0026    6.4947 C   0  0  0  0  0  0
    7.3244    2.5338    7.5583 C   0  0  0  0  0  0
    8.8514    2.5035    7.2067 C   0  0  0  0  0  0
    9.6987    3.8435    7.3956 C   0  0  0  0  0  0
    9.8646    4.9540    6.2848 C   0  0  0  0  0  0
    9.8748    4.5434    4.7886 C   0  0  0  0  0  0
   10.7812    5.4050    3.8267 C   0  0  0  0  0  0
   11.0825    4.7966    2.4513 C   0  0  0  0  0  0
   11.9248    3.4908    2.3911 C   0  0  0  0  0  0
   11.4644    2.2160    3.1582 C   0  0  0  0  0  0
   10.3343    1.4159    2.5257 C   0  0  0  0  0  0
   12.6147    1.3470    3.4714 N   0  0  0  0  0  0
   11.9145    3.1109    0.9913 O   0  0  0  0  0  0
   10.1416    6.6712    3.6337 O   0  0  0  0  0  0
    7.2092    3.4607    8.6510 O   0  0  0  0  0  0
    3.3156    0.4358    3.9221 O   0  0  0  0  0  0
    3.9675   -0.7559    3.9354 C   0  0  0  0  0  0
    4.0893   -1.4987    4.8908 O   0  0  0  0  0  0
    4.4326   -1.0596    2.5379 C   0  0  0  0  0  0
    3.6668   -2.2309    1.9023 C   0  0  0  0  0  0
    2.1453   -2.0529    1.9839 C   0  0  0  0  0  0
    1.4247   -3.2609    1.4319 C   0  0  0  0  0  0
    1.5535   -3.6596    0.2794 O   0  0  0  0  0  0
    0.6266   -3.8621    2.3266 O   0  0  0  0  0  0
    4.1120   -2.2789    0.4342 C   0  0  0  0  0  0
    3.3410   -2.1309   -0.5018 O   0  0  0  0  0  0
    5.4135   -2.5467    0.2594 O   0  0  0  0  0  0
    3.8760    2.5715    0.9348 O   0  0  0  0  0  0
    4.9477    1.8580    0.4245 C   0  0  0  0  0  0
    5.3391    0.7829    0.8598 O   0  0  0  0  0  0
    5.6069    2.5664   -0.7662 C   0  0  0  0  0  0
    7.0489    2.0900   -1.1242 C   0  0  0  0  0  0
    8.0873    2.0121    0.0098 C   0  0  0  0  0  0
    9.4435    2.5081   -0.4017 C   0  0  0  0  0  0
   10.3478    1.8198   -0.8546 O   0  0  0  0  0  0
    9.5763    3.8333   -0.2393 O   0  0  0  0  0  0
    7.1104    0.7607   -1.8867 C   0  0  0  0  0  0
    6.1175    0.1530   -2.2354 O   0  0  0  0  0  0
    8.3466    0.3547   -2.2446 O   0  0  0  0  0  0
   13.4725    1.8940    3.4118 H   0  0  0  0  0  0
   12.7006    0.6414    2.7364 H   0  0  0  0  0  0
   12.5580    2.3736    0.9311 H   0  0  0  0  0  0
    9.3007    6.5188    3.1646 H   0  0  0  0  0  0
    7.7480    3.1260    9.3873 H   0  0  0  0  0  0
    1.0201   -3.9998    3.2096 H   0  0  0  0  0  0
    5.9080   -2.7400    1.0942 H   0  0  0  0  0  0
   10.5000    4.0553   -0.4817 H   0  0  0  0  0  0
    8.9698    1.0740   -2.4904 H   0  0  0  0  0  0
  1  2  1  0  0  0
  2  3  1  0  0  0
  3  4  1  0  0  0
  4  5  1  0  0  0
  5  6  1  0  0  0
  5  7  1  0  0  0
  7  8  1  0  0  0
  7 39  1  0  0  0
  8  9  1  0  0  0
  8 27  1  0  0  0
  9 10  1  0  0  0
 10 11  1  0  0  0
 10 12  1  0  0  0
 12 13  1  0  0  0
 13 14  1  0  0  0
 13 26  1  0  0  0
 14 15  1  0  0  0
 15 16  1  0  0  0
 16 17  1  0  0  0
 17 18  1  0  0  0
 18 19  1  0  0  0
 18 25  1  0  0  0
 19 20  1  0  0  0
 20 21  1  0  0  0
 20 24  1  0  0  0
 21 22  1  0  0  0
 21 23  1  0  0  0
 23 51  1  0  0  0
 23 52  1  0  0  0
 24 53  1  0  0  0
 25 54  1  0  0  0
 26 55  1  0  0  0
 27 28  1  0  0  0
 28 29  2  0  0  0
 28 30  1  0  0  0
 30 31  1  0  0  0
 31 32  1  0  0  0
 31 36  1  0  0  0
 32 33  1  0  0  0
 33 34  2  0  0  0
 33 35  1  0  0  0
 35 56  1  0  0  0
 36 37  2  0  0  0
 36 38  1  0  0  0
 38 57  1  0  0  0
 39 40  1  0  0  0
 40 41  2  0  0  0
 40 42  1  0  0  0
 42 43  1  0  0  0
 43 44  1  0  0  0
 43 48  1  0  0  0
 44 45  1  0  0  0
 45 46  2  0  0  0
 45 47  1  0  0  0
 47 58  1  0  0  0
 48 49  2  0  0  0
 48 50  1  0  0  0
 50 59  1  0  0  0
M  END
>  <AUTHOR>
    GENERATED BY OPEN BABEL 2.4.1

>  <CHROM.1>
87.71245412,77.87479878,-68.44042844,87.82007306,-143.54183393,-77.43773012
-147.63342417,116.34882598,66.50000476,158.64798748,64.28739724,86.10986377
169.62199900,-88.39495033,-32.01465235,-146.99735537,164.54705763,-64.98499125
-64.87203191,56.72909610,77.20425618,171.34054807,19.19405140,134.30583500
-110.29990114,51.82370167,-176.31165735,-118.87007802,-59.74767366,-45.66778078
3.96478921,-4.38898255,161.89071453,-50.19020537,-138.99423790,2.97521373
-92.02637141,176.80926943,-35.14521943,6.02062811,1.38770254,2.24033460,2.75669924
-0.37021840,-1.91013839

>  <COMPND>
    UNNAMED

>  <MASTER>
        0    0    0    0    0    0    0    0  109    0  109    0

>  <Name>
FB1.pdb

>  <RI>
0

>  <Rbt.Current_Directory>
/home/fc/tossine/FB1_39/p3/2_clust01

>  <Rbt.Executable>
rbdock/0.1.0

>  <Rbt.Library>
librxdock.so/0.1.0

>  <Rbt.Parameter_File>
/cluster/rxdock/data/scripts/dock.prm

>  <Rbt.Receptor>
rx_2.prm

>  <SCORE>
29.9567

>  <SCORE.INTER>
1.11831

>  <SCORE.INTER.CONST>
1

>  <SCORE.INTER.POLAR>
-3.18239

>  <SCORE.INTER.REPUL>
1.10749

>  <SCORE.INTER.ROT>
32

>  <SCORE.INTER.VDW>
-30.999

>  <SCORE.INTER.norm>
0.0223661

>  <SCORE.INTRA>
27.8799

>  <SCORE.INTRA.DIHEDRAL>
41.7133

>  <SCORE.INTRA.DIHEDRAL.0>
47.3121

>  <SCORE.INTRA.POLAR>
1.34102

>  <SCORE.INTRA.POLAR.0>
-1.47808

>  <SCORE.INTRA.REPUL>
0

>  <SCORE.INTRA.REPUL.0>
0

>  <SCORE.INTRA.VDW>
2.46371

>  <SCORE.INTRA.VDW.0>
-2.78316

>  <SCORE.INTRA.norm>
0.557597

>  <SCORE.RESTR>
0.958488

>  <SCORE.RESTR.CAVITY>
0.958488

>  <SCORE.RESTR.norm>
0.0191698

>  <SCORE.SYSTEM>
0

>  <SCORE.SYSTEM.CONST>
0

>  <SCORE.SYSTEM.DIHEDRAL>
0

>  <SCORE.SYSTEM.norm>
0

>  <SCORE.heavy>
50

>  <SCORE.norm>
0.599133

$$$$
