FB1.pdb
  RxDock  10072014103D
librxdock.so/0.1.0
 59 58  0  0  0  0  0  0  0  0999 V2000
    1.1500    1.6468    1.9829 C   0  0  0  0  0  0
    2.2251    1.7298    3.0640 C   0  0  0  0  0  0
    3.5229    2.3575    2.5295 C   0  0  0  0  0  0
    4.7724    2.0072    3.3754 C   0  0  0  0  0  0
    6.1028    2.6928    2.9058 C   0  0  0  0  0  0
    6.0230    4.1971    3.2543 C   0  0  0  0  0  0
    7.4071    2.0352    3.5256 C   0  0  0  0  0  0
    8.5996    1.6940    2.5118 C   0  0  0  0  0  0
    8.4335    1.4670    0.9469 C   0  0  0  0  0  0
    6.9951    0.8044    0.4850 C   0  0  0  0  0  0
    6.8941    0.8773   -1.0377 C   0  0  0  0  0  0
    6.7225   -0.6912    0.9682 C   0  0  0  0  0  0
    5.2500   -1.3506    1.0929 C   0  0  0  0  0  0
    4.2954   -1.5138   -0.1394 C   0  0  0  0  0  0
    2.8439   -2.1327    0.1038 C   0  0  0  0  0  0
    1.9537   -1.8379    1.3747 C   0  0  0  0  0  0
    0.5713   -2.5281    1.5166 C   0  0  0  0  0  0
   -0.2792   -2.1489    2.7902 C   0  0  0  0  0  0
   -1.7513   -1.7959    2.5437 C   0  0  0  0  0  0
   -2.7498   -2.9539    2.2604 C   0  0  0  0  0  0
   -4.1699   -2.6540    1.6957 C   0  0  0  0  0  0
   -5.0487   -3.8604    1.3966 C   0  0  0  0  0  0
   -4.8803   -1.6826    2.5490 N   0  0  0  0  0  0
   -2.1020   -3.7565    1.2406 O   0  0  0  0  0  0
   -0.2223   -3.2503    3.7032 O   0  0  0  0  0  0
    5.4828   -2.6877    1.5668 O   0  0  0  0  0  0
    9.5489    2.7895    2.6177 O   0  0  0  0  0  0
   10.3920    2.7744    3.6828 C   0  0  0  0  0  0
   10.5667    1.8460    4.4489 O   0  0  0  0  0  0
   11.1572    4.0688    3.7024 C   0  0  0  0  0  0
   11.1410    4.7849    2.3425 C   0  0  0  0  0  0
   11.4608    6.2806    2.4610 C   0  0  0  0  0  0
   12.1610    6.5867    3.7646 C   0  0  0  0  0  0
   11.5775    6.9599    4.7765 O   0  0  0  0  0  0
   13.4894    6.4094    3.7121 O   0  0  0  0  0  0
   12.2056    4.0864    1.4853 C   0  0  0  0  0  0
   13.3725    4.4460    1.4472 O   0  0  0  0  0  0
   11.7392    3.0751    0.7398 O   0  0  0  0  0  0
    7.8833    2.7988    4.7046 O   0  0  0  0  0  0
    7.1182    2.7740    5.8588 C   0  0  0  0  0  0
    6.0603    2.1702    5.9801 O   0  0  0  0  0  0
    7.7449    3.5964    6.9924 C   0  0  0  0  0  0
    7.9656    2.8375    8.3378 C   0  0  0  0  0  0
    9.3732    2.2902    8.6371 C   0  0  0  0  0  0
   10.3190    3.3449    9.1346 C   0  0  0  0  0  0
   10.6526    3.5120   10.2996 O   0  0  0  0  0  0
   10.8018    4.1099    8.1436 O   0  0  0  0  0  0
    7.5022    3.6015    9.5843 C   0  0  0  0  0  0
    7.3356    4.8051    9.5970 O   0  0  0  0  0  0
    7.1844    2.8351   10.6487 O   0  0  0  0  0  0
   -5.5150   -2.1840    3.1689 H   0  0  0  0  0  0
   -5.4871   -1.1106    1.9573 H   0  0  0  0  0  0
   -2.6406   -4.5744    1.1913 H   0  0  0  0  0  0
   -0.5432   -2.9429    4.5710 H   0  0  0  0  0  0
    4.6195   -3.1091    1.7140 H   0  0  0  0  0  0
   13.9649    7.0024    3.0993 H   0  0  0  0  0  0
   10.8380    2.7580    0.9967 H   0  0  0  0  0  0
   10.4208    3.7632    7.3094 H   0  0  0  0  0  0
    6.8102    3.3195   11.4178 H   0  0  0  0  0  0
  1  2  1  0  0  0
  2  3  1  0  0  0
  3  4  1  0  0  0
  4  5  1  0  0  0
  5  6  1  0  0  0
  5  7  1  0  0  0
  7  8  1  0  0  0
  7 39  1  0  0  0
  8  9  1  0  0  0
  8 27  1  0  0  0
  9 10  1  0  0  0
 10 11  1  0  0  0
 10 12  1  0  0  0
 12 13  1  0  0  0
 13 14  1  0  0  0
 13 26  1  0  0  0
 14 15  1  0  0  0
 15 16  1  0  0  0
 16 17  1  0  0  0
 17 18  1  0  0  0
 18 19  1  0  0  0
 18 25  1  0  0  0
 19 20  1  0  0  0
 20 21  1  0  0  0
 20 24  1  0  0  0
 21 22  1  0  0  0
 21 23  1  0  0  0
 23 51  1  0  0  0
 23 52  1  0  0  0
 24 53  1  0  0  0
 25 54  1  0  0  0
 26 55  1  0  0  0
 27 28  1  0  0  0
 28 29  2  0  0  0
 28 30  1  0  0  0
 30 31  1  0  0  0
 31 32  1  0  0  0
 31 36  1  0  0  0
 32 33  1  0  0  0
 33 34  2  0  0  0
 33 35  1  0  0  0
 35 56  1  0  0  0
 36 37  2  0  0  0
 36 38  1  0  0  0
 38 57  1  0  0  0
 39 40  1  0  0  0
 40 41  2  0  0  0
 40 42  1  0  0  0
 42 43  1  0  0  0
 43 44  1  0  0  0
 43 48  1  0  0  0
 44 45  1  0  0  0
 45 46  2  0  0  0
 45 47  1  0  0  0
 47 58  1  0  0  0
 48 49  2  0  0  0
 48 50  1  0  0  0
 50 59  1  0  0  0
M  END
>  <AUTHOR>
    GENERATED BY OPEN BABEL 2.4.1

>  <CHROM.1>
-158.87662104,-176.83398111,71.64804556,131.99658499,-22.85771857,69.07140906
-31.66770549,79.30419672,170.26318770,157.85447237,61.15688287,-177.96341582
176.35425357,37.72053789,-178.44772829,-178.12840770,132.32610537,76.07421930
165.63422010,-166.33250547,177.44481694,169.05797349,-98.84886920,11.41566460
-19.22727895,159.55521101,19.43064702,-90.32939744,-94.55508626,64.07017431
-14.65015182,-0.54579422,-125.51238182,98.86668801,79.33480922,-19.88467535
102.20359017,-1.43672709,-174.65158187,6.12555601,1.57779263,3.64896117,-2.79725913
0.44300989,1.33323091

>  <COMPND>
    UNNAMED

>  <MASTER>
        0    0    0    0    0    0    0    0  109    0  109    0

>  <Name>
FB1.pdb

>  <RI>
0

>  <Rbt.Current_Directory>
/home/fc/tossine/FB1_39/p3/2_clust01

>  <Rbt.Executable>
rbdock/0.1.0

>  <Rbt.Library>
librxdock.so/0.1.0

>  <Rbt.Parameter_File>
/cluster/rxdock/data/scripts/dock.prm

>  <Rbt.Receptor>
rx_4.prm

>  <SCORE>
23.4187

>  <SCORE.INTER>
-0.327171

>  <SCORE.INTER.CONST>
1

>  <SCORE.INTER.POLAR>
-2.69183

>  <SCORE.INTER.REPUL>
0.158976

>  <SCORE.INTER.ROT>
32

>  <SCORE.INTER.VDW>
-29.3698

>  <SCORE.INTER.norm>
-0.00654343

>  <SCORE.INTRA>
17.5102

>  <SCORE.INTRA.DIHEDRAL>
26.9901

>  <SCORE.INTRA.DIHEDRAL.0>
47.3121

>  <SCORE.INTRA.POLAR>
0.679495

>  <SCORE.INTRA.POLAR.0>
-1.47808

>  <SCORE.INTRA.REPUL>
0

>  <SCORE.INTRA.REPUL.0>
0

>  <SCORE.INTRA.VDW>
1.70489

>  <SCORE.INTRA.VDW.0>
-2.78316

>  <SCORE.INTRA.norm>
0.350204

>  <SCORE.RESTR>
6.23566

>  <SCORE.RESTR.CAVITY>
6.23566

>  <SCORE.RESTR.norm>
0.124713

>  <SCORE.SYSTEM>
0

>  <SCORE.SYSTEM.CONST>
0

>  <SCORE.SYSTEM.DIHEDRAL>
0

>  <SCORE.SYSTEM.norm>
0

>  <SCORE.heavy>
50

>  <SCORE.norm>
0.468374

$$$$
