FB1.pdb
  RxDock  10072012333D
librxdock.so/0.1.0
 59 58  0  0  0  0  0  0  0  0999 V2000
    3.3275    2.1305    5.8706 C   0  0  0  0  0  0
    4.8066    1.7772    5.7336 C   0  0  0  0  0  0
    5.0054    0.4134    5.0519 C   0  0  0  0  0  0
    5.1494    0.5076    3.5124 C   0  0  0  0  0  0
    5.8564    1.8077    2.9924 C   0  0  0  0  0  0
    7.3842    1.6221    3.1411 C   0  0  0  0  0  0
    5.4731    2.1830    1.4991 C   0  0  0  0  0  0
    6.3266    1.4891    0.3345 C   0  0  0  0  0  0
    7.6538    2.0854   -0.3067 C   0  0  0  0  0  0
    9.0160    1.8991    0.6050 C   0  0  0  0  0  0
   10.0214    1.0673   -0.1895 C   0  0  0  0  0  0
    9.7132    3.2421    1.1099 C   0  0  0  0  0  0
   10.5702    3.3611    2.4774 C   0  0  0  0  0  0
   11.6216    2.2811    2.9067 C   0  0  0  0  0  0
   11.1484    1.1093    3.8824 C   0  0  0  0  0  0
   10.6100    1.3376    5.3496 C   0  0  0  0  0  0
    9.4101    2.2930    5.5838 C   0  0  0  0  0  0
    9.7531    3.7417    6.1059 C   0  0  0  0  0  0
   10.3843    4.6992    5.0875 C   0  0  0  0  0  0
   10.0001    6.2046    5.1542 C   0  0  0  0  0  0
   10.7275    7.2477    4.2551 C   0  0  0  0  0  0
   10.5857    8.7080    4.6609 C   0  0  0  0  0  0
   12.1462    6.8862    4.0733 N   0  0  0  0  0  0
    8.6127    6.2489    4.7335 O   0  0  0  0  0  0
    8.5446    4.3320    6.5968 O   0  0  0  0  0  0
   11.3196    4.5800    2.3390 O   0  0  0  0  0  0
    6.7262    0.1878    0.8438 O   0  0  0  0  0  0
    5.8108   -0.8128    0.7659 C   0  0  0  0  0  0
    5.7635   -1.8013    1.4730 O   0  0  0  0  0  0
    4.7945   -0.4477   -0.2807 C   0  0  0  0  0  0
    5.2327   -0.8549   -1.6965 C   0  0  0  0  0  0
    6.5964   -0.2676   -2.0824 C   0  0  0  0  0  0
    7.6748   -1.3257   -2.0488 C   0  0  0  0  0  0
    7.9449   -2.0492   -3.0013 O   0  0  0  0  0  0
    8.3148   -1.3992   -0.8725 O   0  0  0  0  0  0
    5.3036   -2.3882   -1.6915 C   0  0  0  0  0  0
    4.5924   -3.0910   -2.3934 O   0  0  0  0  0  0
    6.1788   -2.8986   -0.8144 O   0  0  0  0  0  0
    4.0135    2.0496    1.2713 O   0  0  0  0  0  0
    3.1515    2.7701    2.0812 C   0  0  0  0  0  0
    3.4888    3.6964    2.8069 O   0  0  0  0  0  0
    1.7018    2.2793    1.9732 C   0  0  0  0  0  0
    1.1667    2.0612    0.5239 C   0  0  0  0  0  0
    1.3660    0.6770   -0.1201 C   0  0  0  0  0  0
    1.3620    0.7221   -1.6209 C   0  0  0  0  0  0
    0.5017    1.2440   -2.3167 O   0  0  0  0  0  0
    2.4412    0.1303   -2.1550 O   0  0  0  0  0  0
   -0.3040    2.4469    0.3223 C   0  0  0  0  0  0
   -0.7755    2.7048   -0.7676 O   0  0  0  0  0  0
   -1.0773    2.3787    1.4262 O   0  0  0  0  0  0
   12.2138    6.1305    3.3930 H   0  0  0  0  0  0
   12.4959    6.4863    4.9469 H   0  0  0  0  0  0
    8.3151    7.1554    4.9597 H   0  0  0  0  0  0
    7.9609    4.5074    5.8358 H   0  0  0  0  0  0
   10.6949    5.2954    2.1330 H   0  0  0  0  0  0
    8.0395   -0.7403   -0.2065 H   0  0  0  0  0  0
    6.3401   -3.8696   -0.9138 H   0  0  0  0  0  0
    3.1410    0.8151   -2.2065 H   0  0  0  0  0  0
   -0.6716    1.9204    2.1953 H   0  0  0  0  0  0
  1  2  1  0  0  0
  2  3  1  0  0  0
  3  4  1  0  0  0
  4  5  1  0  0  0
  5  6  1  0  0  0
  5  7  1  0  0  0
  7  8  1  0  0  0
  7 39  1  0  0  0
  8  9  1  0  0  0
  8 27  1  0  0  0
  9 10  1  0  0  0
 10 11  1  0  0  0
 10 12  1  0  0  0
 12 13  1  0  0  0
 13 14  1  0  0  0
 13 26  1  0  0  0
 14 15  1  0  0  0
 15 16  1  0  0  0
 16 17  1  0  0  0
 17 18  1  0  0  0
 18 19  1  0  0  0
 18 25  1  0  0  0
 19 20  1  0  0  0
 20 21  1  0  0  0
 20 24  1  0  0  0
 21 22  1  0  0  0
 21 23  1  0  0  0
 23 51  1  0  0  0
 23 52  1  0  0  0
 24 53  1  0  0  0
 25 54  1  0  0  0
 26 55  1  0  0  0
 27 28  1  0  0  0
 28 29  2  0  0  0
 28 30  1  0  0  0
 30 31  1  0  0  0
 31 32  1  0  0  0
 31 36  1  0  0  0
 32 33  1  0  0  0
 33 34  2  0  0  0
 33 35  1  0  0  0
 35 56  1  0  0  0
 36 37  2  0  0  0
 36 38  1  0  0  0
 38 57  1  0  0  0
 39 40  1  0  0  0
 40 41  2  0  0  0
 40 42  1  0  0  0
 42 43  1  0  0  0
 43 44  1  0  0  0
 43 48  1  0  0  0
 44 45  1  0  0  0
 45 46  2  0  0  0
 45 47  1  0  0  0
 47 58  1  0  0  0
 48 49  2  0  0  0
 48 50  1  0  0  0
 50 59  1  0  0  0
M  END
>  <AUTHOR>
    GENERATED BY OPEN BABEL 2.4.1

>  <CHROM.1>
91.18197106,32.91507747,80.40828981,-85.88506141,-90.45951417,56.83209070
77.77006147,81.57775688,119.29898122,150.81713605,44.21166073,-93.95249107
53.63138293,-62.08374925,55.47434889,-100.79196360,73.17180930,144.09673308
-69.29488151,173.05034340,-162.84267211,168.08807466,77.10850959,-155.18922544
85.69556480,-55.72848003,105.49712606,116.99570853,87.47892531,-2.85419053
-170.09211557,14.29787597,-47.04708252,89.33334574,-155.87785899,158.54631690
-51.59228115,-87.52879533,-11.86674470,6.34328885,1.79196830,1.68285377,0.72942587
-0.06547917,0.77712174

>  <COMPND>
    UNNAMED

>  <MASTER>
        0    0    0    0    0    0    0    0  109    0  109    0

>  <Name>
FB1.pdb

>  <RI>
0

>  <Rbt.Current_Directory>
/home/fc/tossine/FB1_39/p3/2_clust01

>  <Rbt.Executable>
rbdock/0.1.0

>  <Rbt.Library>
librxdock.so/0.1.0

>  <Rbt.Parameter_File>
/cluster/rxdock/data/scripts/dock.prm

>  <Rbt.Receptor>
rx_2.prm

>  <SCORE>
37.273

>  <SCORE.INTER>
6.70463

>  <SCORE.INTER.CONST>
1

>  <SCORE.INTER.POLAR>
-1.69938

>  <SCORE.INTER.REPUL>
1.05625

>  <SCORE.INTER.ROT>
32

>  <SCORE.INTER.VDW>
-30.1987

>  <SCORE.INTER.norm>
0.134093

>  <SCORE.INTRA>
29.6742

>  <SCORE.INTRA.DIHEDRAL>
46.834

>  <SCORE.INTRA.DIHEDRAL.0>
47.3121

>  <SCORE.INTRA.POLAR>
-0.703454

>  <SCORE.INTRA.POLAR.0>
-1.47808

>  <SCORE.INTRA.REPUL>
0

>  <SCORE.INTRA.REPUL.0>
0

>  <SCORE.INTRA.VDW>
8.64894

>  <SCORE.INTRA.VDW.0>
-2.78316

>  <SCORE.INTRA.norm>
0.593484

>  <SCORE.RESTR>
0.894147

>  <SCORE.RESTR.CAVITY>
0.894147

>  <SCORE.RESTR.norm>
0.0178829

>  <SCORE.SYSTEM>
0

>  <SCORE.SYSTEM.CONST>
0

>  <SCORE.SYSTEM.DIHEDRAL>
0

>  <SCORE.SYSTEM.norm>
0

>  <SCORE.heavy>
50

>  <SCORE.norm>
0.745459

$$$$
