FB1.pdb
  RxDock  10072011003D
librxdock.so/0.1.0
 59 58  0  0  0  0  0  0  0  0999 V2000
  -14.4657    8.7954   -0.7658 C   0  0  0  0  0  0
  -13.2507    9.0508    0.1230 C   0  0  0  0  0  0
  -12.6155   10.4219   -0.1612 C   0  0  0  0  0  0
  -12.1357   10.5888   -1.6247 C   0  0  0  0  0  0
  -11.2825   11.8763   -1.8984 C   0  0  0  0  0  0
  -12.0924   13.1052   -1.4247 C   0  0  0  0  0  0
   -9.8501   11.8435   -1.2166 C   0  0  0  0  0  0
   -8.8049   12.9700   -1.6692 C   0  0  0  0  0  0
   -8.6156   13.4977   -3.1571 C   0  0  0  0  0  0
   -7.0494   13.7066   -3.6312 C   0  0  0  0  0  0
   -6.7443   12.7117   -4.7497 C   0  0  0  0  0  0
   -6.6467   15.1776   -4.0991 C   0  0  0  0  0  0
   -7.2191   15.8946   -5.4320 C   0  0  0  0  0  0
   -7.0747   17.4344   -5.6857 C   0  0  0  0  0  0
   -7.2377   17.9744   -7.1793 C   0  0  0  0  0  0
   -6.1661   17.7675   -8.3210 C   0  0  0  0  0  0
   -6.0706   16.3962   -9.0406 C   0  0  0  0  0  0
   -5.4482   16.4020  -10.4904 C   0  0  0  0  0  0
   -4.2274   17.3061  -10.7020 C   0  0  0  0  0  0
   -4.4341   18.8467  -10.6566 C   0  0  0  0  0  0
   -3.2260   19.8006  -10.4198 C   0  0  0  0  0  0
   -2.4523   19.6050   -9.1235 C   0  0  0  0  0  0
   -2.3175   19.7964  -11.5821 N   0  0  0  0  0  0
   -4.9308   19.1900  -11.9754 O   0  0  0  0  0  0
   -5.0810   15.0578  -10.8188 O   0  0  0  0  0  0
   -6.5177   15.2678   -6.5191 O   0  0  0  0  0  0
   -9.1347   14.1611   -0.9042 O   0  0  0  0  0  0
   -8.3787   14.4171    0.1950 C   0  0  0  0  0  0
   -7.7151   13.6088    0.8159 O   0  0  0  0  0  0
   -8.4148   15.8963    0.4634 C   0  0  0  0  0  0
   -7.2509   16.3636    1.3520 C   0  0  0  0  0  0
   -6.9035   17.8423    1.1375 C   0  0  0  0  0  0
   -6.1160   18.0379   -0.1372 C   0  0  0  0  0  0
   -4.9636   18.4561   -0.1651 O   0  0  0  0  0  0
   -6.7989   17.7076   -1.2432 O   0  0  0  0  0  0
   -7.7076   16.1359    2.7996 C   0  0  0  0  0  0
   -8.8286   15.7485    3.0922 O   0  0  0  0  0  0
   -6.7885   16.4451    3.7246 O   0  0  0  0  0  0
   -9.9617   11.7519    0.2596 O   0  0  0  0  0  0
   -9.7210   10.5294    0.8642 C   0  0  0  0  0  0
  -10.1287   10.2086    1.9730 O   0  0  0  0  0  0
   -8.8751    9.5995   -0.0156 C   0  0  0  0  0  0
   -9.6525    8.4510   -0.7305 C   0  0  0  0  0  0
   -9.4672    8.2891   -2.2504 C   0  0  0  0  0  0
  -10.2736    7.1590   -2.8225 C   0  0  0  0  0  0
   -9.8700    6.0202   -3.0144 O   0  0  0  0  0  0
  -11.5362    7.5185   -3.0996 O   0  0  0  0  0  0
   -9.4639    7.0652   -0.1011 C   0  0  0  0  0  0
  -10.3780    6.4337    0.3913 O   0  0  0  0  0  0
   -8.2281    6.5368   -0.2230 O   0  0  0  0  0  0
   -2.0601   20.7561  -11.8084 H   0  0  0  0  0  0
   -2.8337   19.4624  -12.3990 H   0  0  0  0  0  0
   -5.8415   18.8277  -11.9980 H   0  0  0  0  0  0
   -5.8836   14.5055  -10.7819 H   0  0  0  0  0  0
   -6.9565   14.4226   -6.7126 H   0  0  0  0  0  0
   -6.3600   17.9314   -2.0863 H   0  0  0  0  0  0
   -7.0677   16.2647    4.6564 H   0  0  0  0  0  0
  -11.9696    6.7362   -3.5017 H   0  0  0  0  0  0
   -7.5654    7.1159   -0.6609 H   0  0  0  0  0  0
  1  2  1  0  0  0
  2  3  1  0  0  0
  3  4  1  0  0  0
  4  5  1  0  0  0
  5  6  1  0  0  0
  5  7  1  0  0  0
  7  8  1  0  0  0
  7 39  1  0  0  0
  8  9  1  0  0  0
  8 27  1  0  0  0
  9 10  1  0  0  0
 10 11  1  0  0  0
 10 12  1  0  0  0
 12 13  1  0  0  0
 13 14  1  0  0  0
 13 26  1  0  0  0
 14 15  1  0  0  0
 15 16  1  0  0  0
 16 17  1  0  0  0
 17 18  1  0  0  0
 18 19  1  0  0  0
 18 25  1  0  0  0
 19 20  1  0  0  0
 20 21  1  0  0  0
 20 24  1  0  0  0
 21 22  1  0  0  0
 21 23  1  0  0  0
 23 51  1  0  0  0
 23 52  1  0  0  0
 24 53  1  0  0  0
 25 54  1  0  0  0
 26 55  1  0  0  0
 27 28  1  0  0  0
 28 29  2  0  0  0
 28 30  1  0  0  0
 30 31  1  0  0  0
 31 32  1  0  0  0
 31 36  1  0  0  0
 32 33  1  0  0  0
 33 34  2  0  0  0
 33 35  1  0  0  0
 35 56  1  0  0  0
 36 37  2  0  0  0
 36 38  1  0  0  0
 38 57  1  0  0  0
 39 40  1  0  0  0
 40 41  2  0  0  0
 40 42  1  0  0  0
 42 43  1  0  0  0
 43 44  1  0  0  0
 43 48  1  0  0  0
 44 45  1  0  0  0
 45 46  2  0  0  0
 45 47  1  0  0  0
 47 58  1  0  0  0
 48 49  2  0  0  0
 48 50  1  0  0  0
 50 59  1  0  0  0
M  END
>  <AUTHOR>
    GENERATED BY OPEN BABEL 2.4.1

>  <CHROM.1>
-59.44799460,-170.75336085,-54.61680688,168.34614017,-39.55226478,103.46036807
-137.45200370,99.41991113,114.65014441,-67.01136134,165.30210984,160.91511485
81.16561941,-72.73129804,78.07555959,156.00319987,40.90706212,-68.78343783
59.55936972,160.89667991,-59.09631453,70.85140242,134.81323422,-21.52254088
-160.36527388,154.63135437,-77.11278901,-4.70010097,-116.37812176,172.41627657
-177.65344854,-158.28687161,-103.74383811,128.22967784,-179.55260634,116.92151400
-94.95913129,177.53756550,3.09412882,-8.03285169,13.69504943,-3.02678357
2.76629338,1.10039625,1.16525012

>  <COMPND>
    UNNAMED

>  <MASTER>
        0    0    0    0    0    0    0    0  109    0  109    0

>  <Name>
FB1.pdb

>  <RI>
0

>  <Rbt.Current_Directory>
/home/fc/tossine/FB1_39/p3/2_clust01

>  <Rbt.Executable>
rbdock/0.1.0

>  <Rbt.Library>
librxdock.so/0.1.0

>  <Rbt.Parameter_File>
/cluster/rxdock/data/scripts/dock.prm

>  <Rbt.Receptor>
rx_0.prm

>  <SCORE>
5.10899

>  <SCORE.INTER>
-5.97301

>  <SCORE.INTER.CONST>
1

>  <SCORE.INTER.POLAR>
-3.65812

>  <SCORE.INTER.REPUL>
0.723972

>  <SCORE.INTER.ROT>
32

>  <SCORE.INTER.VDW>
-34.5552

>  <SCORE.INTER.norm>
-0.11946

>  <SCORE.INTRA>
11.0429

>  <SCORE.INTRA.DIHEDRAL>
14.8904

>  <SCORE.INTRA.DIHEDRAL.0>
47.3121

>  <SCORE.INTRA.POLAR>
1.247

>  <SCORE.INTRA.POLAR.0>
-1.47808

>  <SCORE.INTRA.REPUL>
0

>  <SCORE.INTRA.REPUL.0>
0

>  <SCORE.INTRA.VDW>
-0.64207

>  <SCORE.INTRA.VDW.0>
-2.78316

>  <SCORE.INTRA.norm>
0.220858

>  <SCORE.RESTR>
0.0390854

>  <SCORE.RESTR.CAVITY>
0.0390854

>  <SCORE.RESTR.norm>
0.000781709

>  <SCORE.SYSTEM>
0

>  <SCORE.SYSTEM.CONST>
0

>  <SCORE.SYSTEM.DIHEDRAL>
0

>  <SCORE.SYSTEM.norm>
0

>  <SCORE.heavy>
50

>  <SCORE.norm>
0.10218

$$$$
