FB1.pdb
  RxDock  10072011503D
librxdock.so/0.1.0
 59 58  0  0  0  0  0  0  0  0999 V2000
    6.4666    1.6870   -0.4597 C   0  0  0  0  0  0
    7.9429    1.9175   -0.1454 C   0  0  0  0  0  0
    8.2891    1.5072    1.2955 C   0  0  0  0  0  0
    9.7628    1.7888    1.6806 C   0  0  0  0  0  0
   10.2069    1.2069    3.0679 C   0  0  0  0  0  0
   11.7508    1.1257    3.0887 C   0  0  0  0  0  0
    9.6657    2.0388    4.3061 C   0  0  0  0  0  0
    8.1132    2.4337    4.2922 C   0  0  0  0  0  0
    7.2826    2.9246    5.5560 C   0  0  0  0  0  0
    5.6986    2.4643    5.5737 C   0  0  0  0  0  0
    5.1160    2.7835    6.9495 C   0  0  0  0  0  0
    4.7703    3.0955    4.4402 C   0  0  0  0  0  0
    3.4367    2.3859    3.8599 C   0  0  0  0  0  0
    2.4520    1.5756    4.7708 C   0  0  0  0  0  0
    1.9691    0.1376    4.2725 C   0  0  0  0  0  0
    2.9214   -1.1114    4.1065 C   0  0  0  0  0  0
    2.9099   -1.9102    2.7764 C   0  0  0  0  0  0
    3.2193   -1.0953    1.4613 C   0  0  0  0  0  0
    3.7861   -1.8969    0.2829 C   0  0  0  0  0  0
    3.9874   -1.1679   -1.0759 C   0  0  0  0  0  0
    4.9834   -1.7274   -2.1343 C   0  0  0  0  0  0
    5.2132   -0.8678   -3.3694 C   0  0  0  0  0  0
    6.2648   -2.0995   -1.5049 N   0  0  0  0  0  0
    2.6879   -1.2216   -1.7180 O   0  0  0  0  0  0
    2.0071   -0.4614    1.0390 O   0  0  0  0  0  0
    2.6502    3.4620    3.3213 O   0  0  0  0  0  0
    7.9775    3.5149    3.3304 O   0  0  0  0  0  0
    8.3315    4.7587    3.7465 C   0  0  0  0  0  0
    7.5789    5.6951    3.9364 O   0  0  0  0  0  0
    9.8075    4.7621    4.0345 C   0  0  0  0  0  0
   10.3950    6.1813    4.0890 C   0  0  0  0  0  0
   10.6326    6.6654    5.5252 C   0  0  0  0  0  0
   10.9799    8.1357    5.5545 C   0  0  0  0  0  0
   11.3169    8.7729    4.5625 O   0  0  0  0  0  0
   10.8830    8.6834    6.7749 O   0  0  0  0  0  0
   11.7274    6.1158    3.3297 C   0  0  0  0  0  0
   12.8145    6.1587    3.8853 O   0  0  0  0  0  0
   11.6019    6.0569    1.9967 O   0  0  0  0  0  0
   10.0667    1.4117    5.5889 O   0  0  0  0  0  0
   10.0172    2.1784    6.7412 C   0  0  0  0  0  0
   10.0027    3.4022    6.7632 O   0  0  0  0  0  0
    9.9810    1.3201    8.0125 C   0  0  0  0  0  0
    9.7990    2.1001    9.3515 C   0  0  0  0  0  0
    8.5002    2.9026    9.5503 C   0  0  0  0  0  0
    8.5988    3.9138   10.6559 C   0  0  0  0  0  0
    8.1847    3.7656   11.7975 O   0  0  0  0  0  0
    9.2249    5.0361   10.2704 O   0  0  0  0  0  0
   10.0075    1.2558   10.6148 C   0  0  0  0  0  0
    9.1257    1.0517   11.4256 O   0  0  0  0  0  0
   11.2129    0.6581   10.7197 O   0  0  0  0  0  0
    6.0933   -2.8048   -0.7896 H   0  0  0  0  0  0
    6.6257   -1.2898   -0.9954 H   0  0  0  0  0  0
    2.5435   -2.1735   -1.9032 H   0  0  0  0  0  0
    1.7296    0.1600    1.7371 H   0  0  0  0  0  0
    2.4324    4.0686    4.0487 H   0  0  0  0  0  0
   11.1400    9.6238    6.8311 H   0  0  0  0  0  0
   10.6678    6.0069    1.6746 H   0  0  0  0  0  0
    9.4640    4.9152    9.3273 H   0  0  0  0  0  0
   11.3362    0.0993   11.5190 H   0  0  0  0  0  0
  1  2  1  0  0  0
  2  3  1  0  0  0
  3  4  1  0  0  0
  4  5  1  0  0  0
  5  6  1  0  0  0
  5  7  1  0  0  0
  7  8  1  0  0  0
  7 39  1  0  0  0
  8  9  1  0  0  0
  8 27  1  0  0  0
  9 10  1  0  0  0
 10 11  1  0  0  0
 10 12  1  0  0  0
 12 13  1  0  0  0
 13 14  1  0  0  0
 13 26  1  0  0  0
 14 15  1  0  0  0
 15 16  1  0  0  0
 16 17  1  0  0  0
 17 18  1  0  0  0
 18 19  1  0  0  0
 18 25  1  0  0  0
 19 20  1  0  0  0
 20 21  1  0  0  0
 20 24  1  0  0  0
 21 22  1  0  0  0
 21 23  1  0  0  0
 23 51  1  0  0  0
 23 52  1  0  0  0
 24 53  1  0  0  0
 25 54  1  0  0  0
 26 55  1  0  0  0
 27 28  1  0  0  0
 28 29  2  0  0  0
 28 30  1  0  0  0
 30 31  1  0  0  0
 31 32  1  0  0  0
 31 36  1  0  0  0
 32 33  1  0  0  0
 33 34  2  0  0  0
 33 35  1  0  0  0
 35 56  1  0  0  0
 36 37  2  0  0  0
 36 38  1  0  0  0
 38 57  1  0  0  0
 39 40  1  0  0  0
 40 41  2  0  0  0
 40 42  1  0  0  0
 42 43  1  0  0  0
 43 44  1  0  0  0
 43 48  1  0  0  0
 44 45  1  0  0  0
 45 46  2  0  0  0
 45 47  1  0  0  0
 47 58  1  0  0  0
 48 49  2  0  0  0
 48 50  1  0  0  0
 50 59  1  0  0  0
M  END
>  <AUTHOR>
    GENERATED BY OPEN BABEL 2.4.1

>  <CHROM.1>
-177.16936325,-171.96501821,160.47256540,47.31365255,163.62722116,161.94594133
-146.50857271,-79.46121514,169.66512821,153.07640438,37.74941664,-132.47159252
-61.60944435,65.83345600,-129.35734486,57.08138910,155.02089232,174.56395972
62.32844276,158.45634550,-174.02039356,-66.52945302,59.14238466,-111.09686576
162.28844839,102.50806904,-170.16022319,-107.23876962,-15.03854749,177.39977144
-3.58080921,-19.67250432,-174.87114772,62.38271639,-163.05981543,-117.06286611
-98.85220040,0.47671389,-178.53177966,7.63992238,2.49066126,4.35807078,-2.40776275
0.70800271,1.59825759

>  <COMPND>
    UNNAMED

>  <MASTER>
        0    0    0    0    0    0    0    0  109    0  109    0

>  <Name>
FB1.pdb

>  <RI>
0

>  <Rbt.Current_Directory>
/home/fc/tossine/FB1_39/p3/2_clust01

>  <Rbt.Executable>
rbdock/0.1.0

>  <Rbt.Library>
librxdock.so/0.1.0

>  <Rbt.Parameter_File>
/cluster/rxdock/data/scripts/dock.prm

>  <Rbt.Receptor>
rx_1.prm

>  <SCORE>
15.6852

>  <SCORE.INTER>
-1.00804

>  <SCORE.INTER.CONST>
1

>  <SCORE.INTER.POLAR>
-1.6583

>  <SCORE.INTER.REPUL>
0.357699

>  <SCORE.INTER.ROT>
32

>  <SCORE.INTER.VDW>
-34.5583

>  <SCORE.INTER.norm>
-0.0201608

>  <SCORE.INTRA>
16.6933

>  <SCORE.INTRA.DIHEDRAL>
20.3656

>  <SCORE.INTRA.DIHEDRAL.0>
47.3121

>  <SCORE.INTRA.POLAR>
1.47808

>  <SCORE.INTRA.POLAR.0>
-1.47808

>  <SCORE.INTRA.REPUL>
0

>  <SCORE.INTRA.REPUL.0>
0

>  <SCORE.INTRA.VDW>
1.48501

>  <SCORE.INTRA.VDW.0>
-2.78316

>  <SCORE.INTRA.norm>
0.333866

>  <SCORE.RESTR>
0

>  <SCORE.RESTR.CAVITY>
0

>  <SCORE.RESTR.norm>
0

>  <SCORE.SYSTEM>
0

>  <SCORE.SYSTEM.CONST>
0

>  <SCORE.SYSTEM.DIHEDRAL>
0

>  <SCORE.SYSTEM.norm>
0

>  <SCORE.heavy>
50

>  <SCORE.norm>
0.313705

$$$$
