FB1.pdb
  RxDock  10072011453D
librxdock.so/0.1.0
 59 58  0  0  0  0  0  0  0  0999 V2000
   -7.0372    7.3154    0.4136 C   0  0  0  0  0  0
   -5.7668    8.0393   -0.0263 C   0  0  0  0  0  0
   -6.0855    9.3301   -0.7987 C   0  0  0  0  0  0
   -6.9486   10.3340    0.0056 C   0  0  0  0  0  0
   -8.4849   10.2843   -0.3069 C   0  0  0  0  0  0
   -9.2483   10.8300    0.9219 C   0  0  0  0  0  0
   -8.8894   11.0737   -1.6227 C   0  0  0  0  0  0
   -8.4624   10.4198   -3.0214 C   0  0  0  0  0  0
   -9.3746    9.4559   -3.8972 C   0  0  0  0  0  0
   -9.6971    7.9885   -3.2161 C   0  0  0  0  0  0
   -8.3866    7.3923   -2.7052 C   0  0  0  0  0  0
  -10.7811    7.9795   -2.0458 C   0  0  0  0  0  0
  -11.9728    6.8919   -1.9207 C   0  0  0  0  0  0
  -12.9869    6.8905   -0.7259 C   0  0  0  0  0  0
  -12.5094    6.2849    0.6721 C   0  0  0  0  0  0
  -11.0681    6.4911    1.2840 C   0  0  0  0  0  0
   -9.8264    5.9841    0.5039 C   0  0  0  0  0  0
   -9.7419    4.4300    0.2453 C   0  0  0  0  0  0
   -8.3497    3.8683   -0.0693 C   0  0  0  0  0  0
   -7.6302    4.3598   -1.3573 C   0  0  0  0  0  0
   -6.2832    3.7188   -1.8048 C   0  0  0  0  0  0
   -5.7753    4.1050   -3.1870 C   0  0  0  0  0  0
   -5.2388    3.9233   -0.7831 N   0  0  0  0  0  0
   -8.5599    4.0683   -2.4317 O   0  0  0  0  0  0
  -10.2509    3.7611    1.4043 O   0  0  0  0  0  0
  -12.7774    7.0886   -3.0956 O   0  0  0  0  0  0
   -8.1525   11.5275   -3.9100 O   0  0  0  0  0  0
   -6.8913   12.0291   -3.8538 C   0  0  0  0  0  0
   -6.1035   11.8937   -2.9371 O   0  0  0  0  0  0
   -6.5873   12.7005   -5.1646 C   0  0  0  0  0  0
   -6.1810   14.1730   -4.9933 C   0  0  0  0  0  0
   -6.1546   14.9350   -6.3245 C   0  0  0  0  0  0
   -5.7604   16.3791   -6.1182 C   0  0  0  0  0  0
   -6.4692   17.2007   -5.5470 O   0  0  0  0  0  0
   -4.5537   16.6805   -6.6201 O   0  0  0  0  0  0
   -7.2254   14.7923   -4.0543 C   0  0  0  0  0  0
   -8.2405   15.3412   -4.4551 O   0  0  0  0  0  0
   -6.9085   14.7256   -2.7539 O   0  0  0  0  0  0
  -10.3238   11.4501   -1.6017 O   0  0  0  0  0  0
  -10.6603   12.7449   -1.2435 C   0  0  0  0  0  0
  -11.8003   13.1325   -1.0231 O   0  0  0  0  0  0
   -9.4337   13.6618   -1.1485 C   0  0  0  0  0  0
   -8.9934   14.0567    0.2954 C   0  0  0  0  0  0
   -7.9658   15.1923    0.4531 C   0  0  0  0  0  0
   -7.6710   15.5215    1.8881 C   0  0  0  0  0  0
   -8.4196   16.1152    2.6522 O   0  0  0  0  0  0
   -6.4697   15.0717    2.2815 O   0  0  0  0  0  0
  -10.1512   14.3571    1.2554 C   0  0  0  0  0  0
  -11.1622   14.9358    0.9098 O   0  0  0  0  0  0
  -10.0243   13.8405    2.4957 O   0  0  0  0  0  0
   -5.1636    3.0842   -0.2097 H   0  0  0  0  0  0
   -5.5498    4.6548   -0.1400 H   0  0  0  0  0  0
   -9.3484    4.6154   -2.2308 H   0  0  0  0  0  0
   -9.6619    3.9620    2.1547 H   0  0  0  0  0  0
  -12.3062    6.6997   -3.8514 H   0  0  0  0  0  0
   -4.2835   17.6138   -6.5231 H   0  0  0  0  0  0
   -7.5060   15.2433   -2.1591 H   0  0  0  0  0  0
   -6.3632   15.3374    3.2193 H   0  0  0  0  0  0
   -9.1641   13.4029    2.6821 H   0  0  0  0  0  0
  1  2  1  0  0  0
  2  3  1  0  0  0
  3  4  1  0  0  0
  4  5  1  0  0  0
  5  6  1  0  0  0
  5  7  1  0  0  0
  7  8  1  0  0  0
  7 39  1  0  0  0
  8  9  1  0  0  0
  8 27  1  0  0  0
  9 10  1  0  0  0
 10 11  1  0  0  0
 10 12  1  0  0  0
 12 13  1  0  0  0
 13 14  1  0  0  0
 13 26  1  0  0  0
 14 15  1  0  0  0
 15 16  1  0  0  0
 16 17  1  0  0  0
 17 18  1  0  0  0
 18 19  1  0  0  0
 18 25  1  0  0  0
 19 20  1  0  0  0
 20 21  1  0  0  0
 20 24  1  0  0  0
 21 22  1  0  0  0
 21 23  1  0  0  0
 23 51  1  0  0  0
 23 52  1  0  0  0
 24 53  1  0  0  0
 25 54  1  0  0  0
 26 55  1  0  0  0
 27 28  1  0  0  0
 28 29  2  0  0  0
 28 30  1  0  0  0
 30 31  1  0  0  0
 31 32  1  0  0  0
 31 36  1  0  0  0
 32 33  1  0  0  0
 33 34  2  0  0  0
 33 35  1  0  0  0
 35 56  1  0  0  0
 36 37  2  0  0  0
 36 38  1  0  0  0
 38 57  1  0  0  0
 39 40  1  0  0  0
 40 41  2  0  0  0
 40 42  1  0  0  0
 42 43  1  0  0  0
 43 44  1  0  0  0
 43 48  1  0  0  0
 44 45  1  0  0  0
 45 46  2  0  0  0
 45 47  1  0  0  0
 47 58  1  0  0  0
 48 49  2  0  0  0
 48 50  1  0  0  0
 50 59  1  0  0  0
M  END
>  <AUTHOR>
    GENERATED BY OPEN BABEL 2.4.1

>  <CHROM.1>
57.83468238,-97.48575170,155.61125394,71.82836296,93.19850155,99.88276287
-66.65573400,85.54975249,-48.02005916,135.11767617,177.81578586,-78.20547361
75.65016398,39.42455830,-60.49753459,-62.14965204,-159.48426532,-62.80428034
-64.21961400,-173.70861878,170.36971925,62.70717488,98.09452707,-19.77634360
123.40687875,-168.08754176,179.63725965,-91.72421130,-68.80374743,178.36879234
171.03034348,-170.26406989,-106.90249822,-167.60825016,177.34055917,-37.79444562
-73.34045071,179.52453201,5.85822000,-8.48712487,10.50560083,-1.52280075
1.87974005,-0.98292508,-3.07426588

>  <COMPND>
    UNNAMED

>  <MASTER>
        0    0    0    0    0    0    0    0  109    0  109    0

>  <Name>
FB1.pdb

>  <RI>
0

>  <Rbt.Current_Directory>
/home/fc/tossine/FB1_39/p3/2_clust01

>  <Rbt.Executable>
rbdock/0.1.0

>  <Rbt.Library>
librxdock.so/0.1.0

>  <Rbt.Parameter_File>
/cluster/rxdock/data/scripts/dock.prm

>  <Rbt.Receptor>
rx_1.prm

>  <SCORE>
13.9294

>  <SCORE.INTER>
9.41111

>  <SCORE.INTER.CONST>
1

>  <SCORE.INTER.POLAR>
-1.80245

>  <SCORE.INTER.REPUL>
0.130836

>  <SCORE.INTER.ROT>
32

>  <SCORE.INTER.VDW>
-22.5147

>  <SCORE.INTER.norm>
0.188222

>  <SCORE.INTRA>
4.51469

>  <SCORE.INTRA.DIHEDRAL>
7.10603

>  <SCORE.INTRA.DIHEDRAL.0>
47.3121

>  <SCORE.INTRA.POLAR>
1.47808

>  <SCORE.INTRA.POLAR.0>
-1.47808

>  <SCORE.INTRA.REPUL>
0

>  <SCORE.INTRA.REPUL.0>
0

>  <SCORE.INTRA.VDW>
-4.06379

>  <SCORE.INTRA.VDW.0>
-2.78316

>  <SCORE.INTRA.norm>
0.0902938

>  <SCORE.RESTR>
0.0036193

>  <SCORE.RESTR.CAVITY>
0.0036193

>  <SCORE.RESTR.norm>
7.23859e-05

>  <SCORE.SYSTEM>
0

>  <SCORE.SYSTEM.CONST>
0

>  <SCORE.SYSTEM.DIHEDRAL>
0

>  <SCORE.SYSTEM.norm>
0

>  <SCORE.heavy>
50

>  <SCORE.norm>
0.278588

$$$$
