FB1.pdb
  RxDock  10072012443D
librxdock.so/0.1.0
 59 58  0  0  0  0  0  0  0  0999 V2000
    2.2464   -3.0126   -1.2868 C   0  0  0  0  0  0
    3.4833   -2.6536   -2.1070 C   0  0  0  0  0  0
    4.7457   -2.5825   -1.2321 C   0  0  0  0  0  0
    4.9648   -1.1966   -0.5756 C   0  0  0  0  0  0
    6.2715   -1.0705    0.2830 C   0  0  0  0  0  0
    7.4674   -1.5301   -0.5825 C   0  0  0  0  0  0
    6.5139    0.3890    0.8565 C   0  0  0  0  0  0
    8.0347    0.8301    1.0992 C   0  0  0  0  0  0
    8.7759    2.0149    0.3411 C   0  0  0  0  0  0
   10.3889    2.1487    0.6601 C   0  0  0  0  0  0
   11.1584    1.9712   -0.6477 C   0  0  0  0  0  0
   10.8546    3.4960    1.3761 C   0  0  0  0  0  0
   12.2871    3.6887    2.1038 C   0  0  0  0  0  0
   12.5046    4.7084    3.2739 C   0  0  0  0  0  0
   11.5000    5.9430    3.3991 C   0  0  0  0  0  0
   11.9522    7.4556    3.4448 C   0  0  0  0  0  0
   13.0338    7.8998    4.4647 C   0  0  0  0  0  0
   12.6969    9.1656    5.3441 C   0  0  0  0  0  0
   11.2575    9.2682    5.8638 C   0  0  0  0  0  0
   10.6417    8.0319    6.5783 C   0  0  0  0  0  0
   10.4856    8.0097    8.1277 C   0  0  0  0  0  0
   11.6867    8.4792    8.9365 C   0  0  0  0  0  0
    9.2605    8.7192    8.5427 N   0  0  0  0  0  0
    9.2885    7.9459    6.0633 O   0  0  0  0  0  0
   13.5870    9.1741    6.4654 O   0  0  0  0  0  0
   12.5919    2.4014    2.6665 O   0  0  0  0  0  0
    8.1357    1.1838    2.5054 O   0  0  0  0  0  0
    7.6075    2.3777    2.8806 C   0  0  0  0  0  0
    7.0675    3.1868    2.1504 O   0  0  0  0  0  0
    7.7090    2.4940    4.3764 C   0  0  0  0  0  0
    9.1521    2.7209    4.8544 C   0  0  0  0  0  0
    9.2379    2.9843    6.3632 C   0  0  0  0  0  0
    9.4681    4.4502    6.6484 C   0  0  0  0  0  0
    9.2855    5.3386    5.8231 O   0  0  0  0  0  0
    9.8920    4.6914    7.8978 O   0  0  0  0  0  0
    9.9200    1.4399    4.5003 C   0  0  0  0  0  0
   10.1422    0.5506    5.3079 O   0  0  0  0  0  0
   10.3725    1.3970    3.2396 O   0  0  0  0  0  0
    5.7604    1.4022    0.0782 O   0  0  0  0  0  0
    4.4615    1.6941    0.4597 C   0  0  0  0  0  0
    3.6413    2.2685   -0.2445 O   0  0  0  0  0  0
    4.1492    1.2139    1.8831 C   0  0  0  0  0  0
    3.2131    2.1399    2.7203 C   0  0  0  0  0  0
    1.9975    1.5009    3.4161 C   0  0  0  0  0  0
    1.0274    0.8825    2.4513 C   0  0  0  0  0  0
    1.1890    0.7819    1.2428 O   0  0  0  0  0  0
   -0.0724    0.4127    3.0596 O   0  0  0  0  0  0
    3.9350    2.9977    3.7670 C   0  0  0  0  0  0
    3.9055    4.2125    3.7593 O   0  0  0  0  0  0
    4.5239    2.3137    4.7703 O   0  0  0  0  0  0
    8.4681    8.3533    8.0166 H   0  0  0  0  0  0
    9.3372    9.6979    8.2567 H   0  0  0  0  0  0
    9.0234    7.0152    6.2206 H   0  0  0  0  0  0
   14.2864    8.5144    6.3036 H   0  0  0  0  0  0
   13.4855    2.4432    3.0462 H   0  0  0  0  0  0
   10.0710    5.6290    8.1033 H   0  0  0  0  0  0
   10.8027    0.5425    2.9872 H   0  0  0  0  0  0
    0.0823    0.4960    4.0242 H   0  0  0  0  0  0
    4.8876    1.4349    4.5222 H   0  0  0  0  0  0
  1  2  1  0  0  0
  2  3  1  0  0  0
  3  4  1  0  0  0
  4  5  1  0  0  0
  5  6  1  0  0  0
  5  7  1  0  0  0
  7  8  1  0  0  0
  7 39  1  0  0  0
  8  9  1  0  0  0
  8 27  1  0  0  0
  9 10  1  0  0  0
 10 11  1  0  0  0
 10 12  1  0  0  0
 12 13  1  0  0  0
 13 14  1  0  0  0
 13 26  1  0  0  0
 14 15  1  0  0  0
 15 16  1  0  0  0
 16 17  1  0  0  0
 17 18  1  0  0  0
 18 19  1  0  0  0
 18 25  1  0  0  0
 19 20  1  0  0  0
 20 21  1  0  0  0
 20 24  1  0  0  0
 21 22  1  0  0  0
 21 23  1  0  0  0
 23 51  1  0  0  0
 23 52  1  0  0  0
 24 53  1  0  0  0
 25 54  1  0  0  0
 26 55  1  0  0  0
 27 28  1  0  0  0
 28 29  2  0  0  0
 28 30  1  0  0  0
 30 31  1  0  0  0
 31 32  1  0  0  0
 31 36  1  0  0  0
 32 33  1  0  0  0
 33 34  2  0  0  0
 33 35  1  0  0  0
 35 56  1  0  0  0
 36 37  2  0  0  0
 36 38  1  0  0  0
 38 57  1  0  0  0
 39 40  1  0  0  0
 40 41  2  0  0  0
 40 42  1  0  0  0
 42 43  1  0  0  0
 43 44  1  0  0  0
 43 48  1  0  0  0
 44 45  1  0  0  0
 45 46  2  0  0  0
 45 47  1  0  0  0
 47 58  1  0  0  0
 48 49  2  0  0  0
 48 50  1  0  0  0
 50 59  1  0  0  0
M  END
>  <AUTHOR>
    GENERATED BY OPEN BABEL 2.4.1

>  <CHROM.1>
-86.60895473,-177.88337742,52.31798166,-151.02385214,116.34777746,88.49111585
-173.46203578,-75.63228634,119.41501276,164.16512024,-153.31866850,-23.03025469
174.83520106,-125.01418333,-51.98884152,-130.26301854,40.43252575,50.01324870
11.73656529,104.45775255,-45.58982443,158.60598870,51.69162243,-0.70583533
71.97226598,174.05880266,-103.86730385,-98.48601196,16.38332203,178.49813725
-175.23892601,-163.07887666,143.57964288,129.51164181,-61.70969549,119.72681416
5.31891461,-6.80483517,33.45410049,7.87390100,3.10873409,3.18495755,-2.28088207
0.18662188,0.79347265

>  <COMPND>
    UNNAMED

>  <MASTER>
        0    0    0    0    0    0    0    0  109    0  109    0

>  <Name>
FB1.pdb

>  <RI>
0

>  <Rbt.Current_Directory>
/home/fc/tossine/FB1_39/p3/2_clust01

>  <Rbt.Executable>
rbdock/0.1.0

>  <Rbt.Library>
librxdock.so/0.1.0

>  <Rbt.Parameter_File>
/cluster/rxdock/data/scripts/dock.prm

>  <Rbt.Receptor>
rx_2.prm

>  <SCORE>
30.011

>  <SCORE.INTER>
2.50228

>  <SCORE.INTER.CONST>
1

>  <SCORE.INTER.POLAR>
-1.3552

>  <SCORE.INTER.REPUL>
0.156705

>  <SCORE.INTER.ROT>
32

>  <SCORE.INTER.VDW>
-31.0736

>  <SCORE.INTER.norm>
0.0500456

>  <SCORE.INTRA>
25.8263

>  <SCORE.INTRA.DIHEDRAL>
37.1098

>  <SCORE.INTRA.DIHEDRAL.0>
47.3121

>  <SCORE.INTRA.POLAR>
0.527431

>  <SCORE.INTRA.POLAR.0>
-1.47808

>  <SCORE.INTRA.REPUL>
0

>  <SCORE.INTRA.REPUL.0>
0

>  <SCORE.INTRA.VDW>
5.47817

>  <SCORE.INTRA.VDW.0>
-2.78316

>  <SCORE.INTRA.norm>
0.516527

>  <SCORE.RESTR>
1.6824

>  <SCORE.RESTR.CAVITY>
1.6824

>  <SCORE.RESTR.norm>
0.0336479

>  <SCORE.SYSTEM>
0

>  <SCORE.SYSTEM.CONST>
0

>  <SCORE.SYSTEM.DIHEDRAL>
0

>  <SCORE.SYSTEM.norm>
0

>  <SCORE.heavy>
50

>  <SCORE.norm>
0.60022

$$$$
