FB1.pdb
  RxDock  10072014153D
librxdock.so/0.1.0
 59 58  0  0  0  0  0  0  0  0999 V2000
  -12.5801    4.9537    1.5983 C   0  0  0  0  0  0
  -11.5122    4.9719    2.6895 C   0  0  0  0  0  0
  -10.1617    4.4488    2.1733 C   0  0  0  0  0  0
   -9.6257    5.2279    0.9463 C   0  0  0  0  0  0
   -8.0627    5.3214    0.8531 C   0  0  0  0  0  0
   -7.5142    3.9248    0.4799 C   0  0  0  0  0  0
   -7.5541    6.4227   -0.1697 C   0  0  0  0  0  0
   -6.2202    7.2177    0.2238 C   0  0  0  0  0  0
   -4.8481    7.1559   -0.5773 C   0  0  0  0  0  0
   -4.3470    5.6395   -0.9904 C   0  0  0  0  0  0
   -3.8650    5.6659   -2.4399 C   0  0  0  0  0  0
   -3.2200    4.9946   -0.0636 C   0  0  0  0  0  0
   -2.3841    3.6625   -0.4449 C   0  0  0  0  0  0
   -1.2531    3.0882    0.4756 C   0  0  0  0  0  0
   -0.2623    1.9949   -0.1344 C   0  0  0  0  0  0
    1.1206    1.5896    0.5121 C   0  0  0  0  0  0
    1.8942    0.3644   -0.0427 C   0  0  0  0  0  0
    3.3980    0.2152    0.4106 C   0  0  0  0  0  0
    4.1053   -1.0828    0.0014 C   0  0  0  0  0  0
    5.4176   -1.4716    0.7395 C   0  0  0  0  0  0
    6.7476   -0.7193    0.4386 C   0  0  0  0  0  0
    6.7775    0.7650    0.7755 C   0  0  0  0  0  0
    7.8963   -1.4204    1.0429 N   0  0  0  0  0  0
    5.1446   -1.2064    2.1392 O   0  0  0  0  0  0
    4.1325    1.3215   -0.1245 O   0  0  0  0  0  0
   -3.3690    2.6184   -0.5250 O   0  0  0  0  0  0
   -6.5729    8.6277    0.2251 O   0  0  0  0  0  0
   -7.4541    9.0423    1.1721 C   0  0  0  0  0  0
   -7.1989    9.2804    2.3373 O   0  0  0  0  0  0
   -8.7902    9.2587    0.5168 C   0  0  0  0  0  0
   -9.1625   10.7463    0.4124 C   0  0  0  0  0  0
   -9.0739   11.4714    1.7614 C   0  0  0  0  0  0
  -10.1543   12.5202    1.8885 C   0  0  0  0  0  0
  -11.0187   12.5016    2.7581 O   0  0  0  0  0  0
  -10.0784   13.4812    0.9560 O   0  0  0  0  0  0
   -8.1671   11.3615   -0.5809 C   0  0  0  0  0  0
   -7.0056   10.9947   -0.6748 O   0  0  0  0  0  0
   -8.6636   12.3726   -1.3070 O   0  0  0  0  0  0
   -7.4910    5.8833   -1.5499 O   0  0  0  0  0  0
   -7.5345    6.7750   -2.6087 C   0  0  0  0  0  0
   -6.5503    7.2579   -3.1532 O   0  0  0  0  0  0
   -8.9708    7.1015   -3.0384 C   0  0  0  0  0  0
  -10.0938    6.2925   -2.3180 C   0  0  0  0  0  0
  -11.5580    6.6558   -2.6257 C   0  0  0  0  0  0
  -11.8838    8.0889   -2.3179 C   0  0  0  0  0  0
  -12.1031    8.9641   -3.1441 O   0  0  0  0  0  0
  -11.9338    8.3320   -0.9993 O   0  0  0  0  0  0
   -9.9677    4.7697   -2.4504 C   0  0  0  0  0  0
  -10.0907    4.0126   -1.5079 O   0  0  0  0  0  0
   -9.8156    4.3082   -3.7094 O   0  0  0  0  0  0
    8.7585   -0.9621    0.7512 H   0  0  0  0  0  0
    7.9506   -2.3611    0.6459 H   0  0  0  0  0  0
    5.9283   -1.5553    2.6138 H   0  0  0  0  0  0
    3.8200    2.1345    0.3136 H   0  0  0  0  0  0
   -3.9640    2.8226   -1.2658 H   0  0  0  0  0  0
   -9.3977   13.3429    0.2697 H   0  0  0  0  0  0
   -8.0179   12.7828   -1.9342 H   0  0  0  0  0  0
  -12.1733    9.2771   -0.8964 H   0  0  0  0  0  0
   -9.7345    4.9999   -4.4030 H   0  0  0  0  0  0
  1  2  1  0  0  0
  2  3  1  0  0  0
  3  4  1  0  0  0
  4  5  1  0  0  0
  5  6  1  0  0  0
  5  7  1  0  0  0
  7  8  1  0  0  0
  7 39  1  0  0  0
  8  9  1  0  0  0
  8 27  1  0  0  0
  9 10  1  0  0  0
 10 11  1  0  0  0
 10 12  1  0  0  0
 12 13  1  0  0  0
 13 14  1  0  0  0
 13 26  1  0  0  0
 14 15  1  0  0  0
 15 16  1  0  0  0
 16 17  1  0  0  0
 17 18  1  0  0  0
 18 19  1  0  0  0
 18 25  1  0  0  0
 19 20  1  0  0  0
 20 21  1  0  0  0
 20 24  1  0  0  0
 21 22  1  0  0  0
 21 23  1  0  0  0
 23 51  1  0  0  0
 23 52  1  0  0  0
 24 53  1  0  0  0
 25 54  1  0  0  0
 26 55  1  0  0  0
 27 28  1  0  0  0
 28 29  2  0  0  0
 28 30  1  0  0  0
 30 31  1  0  0  0
 31 32  1  0  0  0
 31 36  1  0  0  0
 32 33  1  0  0  0
 33 34  2  0  0  0
 33 35  1  0  0  0
 35 56  1  0  0  0
 36 37  2  0  0  0
 36 38  1  0  0  0
 38 57  1  0  0  0
 39 40  1  0  0  0
 40 41  2  0  0  0
 40 42  1  0  0  0
 42 43  1  0  0  0
 43 44  1  0  0  0
 43 48  1  0  0  0
 44 45  1  0  0  0
 45 46  2  0  0  0
 45 47  1  0  0  0
 47 58  1  0  0  0
 48 49  2  0  0  0
 48 50  1  0  0  0
 50 59  1  0  0  0
M  END
>  <AUTHOR>
    GENERATED BY OPEN BABEL 2.4.1

>  <CHROM.1>
56.86096108,148.20936141,71.52086281,144.31028272,115.48580954,157.51043459
-46.61176660,66.25654549,135.73134552,-167.46061771,178.03650485,-165.65749652
64.94399572,163.94488160,170.50388134,166.26771179,172.74730017,-162.87685797
67.11039217,-74.36256003,63.15048246,173.17192922,174.23429829,79.68000379
-108.89033049,-52.93947255,-144.45552134,-34.27449437,118.96343392,5.46567751
178.77468002,92.68402658,-5.41687909,175.19465464,-58.25457575,133.76183988
109.24521243,-178.55940604,4.35432545,-5.40442950,5.72084809,-0.20642780
2.61597726,-0.19961878,0.23999286

>  <COMPND>
    UNNAMED

>  <MASTER>
        0    0    0    0    0    0    0    0  109    0  109    0

>  <Name>
FB1.pdb

>  <RI>
0

>  <Rbt.Current_Directory>
/home/fc/tossine/FB1_39/p3/2_clust01

>  <Rbt.Executable>
rbdock/0.1.0

>  <Rbt.Library>
librxdock.so/0.1.0

>  <Rbt.Parameter_File>
/cluster/rxdock/data/scripts/dock.prm

>  <Rbt.Receptor>
rx_4.prm

>  <SCORE>
32.5016

>  <SCORE.INTER>
11.815

>  <SCORE.INTER.CONST>
1

>  <SCORE.INTER.POLAR>
-1.04709

>  <SCORE.INTER.REPUL>
0.833493

>  <SCORE.INTER.ROT>
32

>  <SCORE.INTER.VDW>
-26.1924

>  <SCORE.INTER.norm>
0.2363

>  <SCORE.INTRA>
20.4348

>  <SCORE.INTRA.DIHEDRAL>
43.1987

>  <SCORE.INTRA.DIHEDRAL.0>
47.3121

>  <SCORE.INTRA.POLAR>
0.480965

>  <SCORE.INTRA.POLAR.0>
-1.47808

>  <SCORE.INTRA.REPUL>
0

>  <SCORE.INTRA.REPUL.0>
0

>  <SCORE.INTRA.VDW>
-2.79986

>  <SCORE.INTRA.VDW.0>
-2.78316

>  <SCORE.INTRA.norm>
0.408695

>  <SCORE.RESTR>
0.251829

>  <SCORE.RESTR.CAVITY>
0.251829

>  <SCORE.RESTR.norm>
0.00503658

>  <SCORE.SYSTEM>
0

>  <SCORE.SYSTEM.CONST>
0

>  <SCORE.SYSTEM.DIHEDRAL>
0

>  <SCORE.SYSTEM.norm>
0

>  <SCORE.heavy>
50

>  <SCORE.norm>
0.650032

$$$$
