FB1.pdb
  RxDock  10072010593D
librxdock.so/0.1.0
 59 58  0  0  0  0  0  0  0  0999 V2000
   -8.6544    4.9878   -3.6436 C   0  0  0  0  0  0
   -7.3657    5.4746   -2.9852 C   0  0  0  0  0  0
   -7.5457    6.8557   -2.3337 C   0  0  0  0  0  0
   -7.1970    6.8767   -0.8245 C   0  0  0  0  0  0
   -7.2808    8.2884   -0.1458 C   0  0  0  0  0  0
   -6.3777    9.2622   -0.9375 C   0  0  0  0  0  0
   -8.7605    8.8505   -0.0341 C   0  0  0  0  0  0
   -8.9452   10.4370   -0.1559 C   0  0  0  0  0  0
   -9.4556   11.2019   -1.4531 C   0  0  0  0  0  0
   -8.3294   11.3878   -2.6440 C   0  0  0  0  0  0
   -8.4514   10.2143   -3.6146 C   0  0  0  0  0  0
   -8.3836   12.7605   -3.4549 C   0  0  0  0  0  0
   -7.4665   13.0881   -4.7473 C   0  0  0  0  0  0
   -6.5597   14.3635   -4.8325 C   0  0  0  0  0  0
   -7.1340   15.6525   -5.5794 C   0  0  0  0  0  0
   -6.7799   17.1401   -5.1840 C   0  0  0  0  0  0
   -5.6420   17.8806   -5.9352 C   0  0  0  0  0  0
   -4.4260   16.9994   -6.4191 C   0  0  0  0  0  0
   -4.4256   16.5963   -7.8990 C   0  0  0  0  0  0
   -3.0608   16.2950   -8.5807 C   0  0  0  0  0  0
   -3.0091   15.6753  -10.0086 C   0  0  0  0  0  0
   -3.7834   16.4097  -11.0942 C   0  0  0  0  0  0
   -1.6151   15.4340  -10.4266 N   0  0  0  0  0  0
   -2.4206   17.5901   -8.7101 O   0  0  0  0  0  0
   -3.2205   17.7210   -6.1440 O   0  0  0  0  0  0
   -6.5607   11.9763   -4.8490 O   0  0  0  0  0  0
   -9.8903   10.8169    0.8809 O   0  0  0  0  0  0
   -9.4239   11.6104    1.8800 C   0  0  0  0  0  0
   -9.7763   11.5838    3.0438 O   0  0  0  0  0  0
   -8.3172   12.4673    1.3300 C   0  0  0  0  0  0
   -8.8227   13.8229    0.8111 C   0  0  0  0  0  0
  -10.1773   13.7129    0.0995 C   0  0  0  0  0  0
  -10.5047   14.9842   -0.6489 C   0  0  0  0  0  0
  -10.2885   16.1069   -0.2058 O   0  0  0  0  0  0
  -11.0562   14.7688   -1.8523 O   0  0  0  0  0  0
   -8.9496   14.7264    2.0455 C   0  0  0  0  0  0
   -9.6765   14.4644    2.9918 O   0  0  0  0  0  0
   -8.2325   15.8566    1.9797 O   0  0  0  0  0  0
   -9.6822    8.1144   -0.9333 O   0  0  0  0  0  0
  -10.2062    6.9091   -0.4967 C   0  0  0  0  0  0
   -9.9761    6.4042    0.5944 O   0  0  0  0  0  0
  -11.1232    6.2587   -1.5410 C   0  0  0  0  0  0
  -11.9295    5.0150   -1.0535 C   0  0  0  0  0  0
  -12.7203    4.2098   -2.1008 C   0  0  0  0  0  0
  -13.9858    4.8929   -2.5327 C   0  0  0  0  0  0
  -15.1220    4.5105   -2.2892 O   0  0  0  0  0  0
  -13.7510    6.0189   -3.2237 O   0  0  0  0  0  0
  -11.1151    4.0098   -0.2299 C   0  0  0  0  0  0
  -10.1875    3.3752   -0.6921 O   0  0  0  0  0  0
  -11.4254    3.9493    1.0821 O   0  0  0  0  0  0
   -1.5144   14.4596  -10.7075 H   0  0  0  0  0  0
   -1.0070   15.5373   -9.6111 H   0  0  0  0  0  0
   -1.5035   17.3851   -8.9897 H   0  0  0  0  0  0
   -2.4691   17.1081   -6.2456 H   0  0  0  0  0  0
   -5.9500   12.0160   -4.0941 H   0  0  0  0  0  0
  -11.3646   15.5694   -2.3186 H   0  0  0  0  0  0
   -7.6576   15.9314    1.1780 H   0  0  0  0  0  0
  -12.8263    5.9641   -3.5450 H   0  0  0  0  0  0
  -10.8781    3.3305    1.6148 H   0  0  0  0  0  0
  1  2  1  0  0  0
  2  3  1  0  0  0
  3  4  1  0  0  0
  4  5  1  0  0  0
  5  6  1  0  0  0
  5  7  1  0  0  0
  7  8  1  0  0  0
  7 39  1  0  0  0
  8  9  1  0  0  0
  8 27  1  0  0  0
  9 10  1  0  0  0
 10 11  1  0  0  0
 10 12  1  0  0  0
 12 13  1  0  0  0
 13 14  1  0  0  0
 13 26  1  0  0  0
 14 15  1  0  0  0
 15 16  1  0  0  0
 16 17  1  0  0  0
 17 18  1  0  0  0
 18 19  1  0  0  0
 18 25  1  0  0  0
 19 20  1  0  0  0
 20 21  1  0  0  0
 20 24  1  0  0  0
 21 22  1  0  0  0
 21 23  1  0  0  0
 23 51  1  0  0  0
 23 52  1  0  0  0
 24 53  1  0  0  0
 25 54  1  0  0  0
 26 55  1  0  0  0
 27 28  1  0  0  0
 28 29  2  0  0  0
 28 30  1  0  0  0
 30 31  1  0  0  0
 31 32  1  0  0  0
 31 36  1  0  0  0
 32 33  1  0  0  0
 33 34  2  0  0  0
 33 35  1  0  0  0
 35 56  1  0  0  0
 36 37  2  0  0  0
 36 38  1  0  0  0
 38 57  1  0  0  0
 39 40  1  0  0  0
 40 41  2  0  0  0
 40 42  1  0  0  0
 42 43  1  0  0  0
 43 44  1  0  0  0
 43 48  1  0  0  0
 44 45  1  0  0  0
 45 46  2  0  0  0
 45 47  1  0  0  0
 47 58  1  0  0  0
 48 49  2  0  0  0
 48 50  1  0  0  0
 50 59  1  0  0  0
M  END
>  <AUTHOR>
    GENERATED BY OPEN BABEL 2.4.1

>  <CHROM.1>
123.22683877,176.28524618,-55.20330912,-146.77161564,102.00167099,82.63788251
-77.82702114,114.59342743,92.65841834,-174.02048977,-125.67423464,-96.09036446
-68.59299969,147.78409556,95.63880592,-33.32098629,100.32771971,153.93541409
167.05455759,170.65873644,53.99935751,170.24991535,126.05984948,-146.16227177
92.11947938,-38.38052427,-167.86714477,-59.81569293,-40.76698911,173.81789683
-4.62987111,0.85363410,-170.87194114,-172.05355929,-75.71782189,-64.97628336
-111.76684255,19.23780644,-177.67101128,-8.36703644,11.18292372,-2.49407730
-2.70950592,1.02076622,0.51753649

>  <COMPND>
    UNNAMED

>  <MASTER>
        0    0    0    0    0    0    0    0  109    0  109    0

>  <Name>
FB1.pdb

>  <RI>
0

>  <Rbt.Current_Directory>
/home/fc/tossine/FB1_39/p3/2_clust01

>  <Rbt.Executable>
rbdock/0.1.0

>  <Rbt.Library>
librxdock.so/0.1.0

>  <Rbt.Parameter_File>
/cluster/rxdock/data/scripts/dock.prm

>  <Rbt.Receptor>
rx_0.prm

>  <SCORE>
30.3644

>  <SCORE.INTER>
-1.24048

>  <SCORE.INTER.CONST>
1

>  <SCORE.INTER.POLAR>
-3.69125

>  <SCORE.INTER.REPUL>
1.09545

>  <SCORE.INTER.ROT>
32

>  <SCORE.INTER.VDW>
-31.5675

>  <SCORE.INTER.norm>
-0.0248097

>  <SCORE.INTRA>
31.0231

>  <SCORE.INTRA.DIHEDRAL>
38.3328

>  <SCORE.INTRA.DIHEDRAL.0>
47.3121

>  <SCORE.INTRA.POLAR>
1.46688

>  <SCORE.INTRA.POLAR.0>
-1.47808

>  <SCORE.INTRA.REPUL>
0

>  <SCORE.INTRA.REPUL.0>
0

>  <SCORE.INTRA.VDW>
6.86935

>  <SCORE.INTRA.VDW.0>
-2.78316

>  <SCORE.INTRA.norm>
0.620462

>  <SCORE.RESTR>
0.581793

>  <SCORE.RESTR.CAVITY>
0.581793

>  <SCORE.RESTR.norm>
0.0116359

>  <SCORE.SYSTEM>
0

>  <SCORE.SYSTEM.CONST>
0

>  <SCORE.SYSTEM.DIHEDRAL>
0

>  <SCORE.SYSTEM.norm>
0

>  <SCORE.heavy>
50

>  <SCORE.norm>
0.607289

$$$$
