FB1.pdb
  RxDock  09132008023D
librxdock.so/0.1.0
 59 58  0  0  0  0  0  0  0  0999 V2000
    5.9224    3.5170    8.5076 C   0  0  0  0  0  0
    4.5804    3.8762    7.8739 C   0  0  0  0  0  0
    4.0953    2.7818    6.9089 C   0  0  0  0  0  0
    4.9873    2.6272    5.6519 C   0  0  0  0  0  0
    4.2673    2.0121    4.4014 C   0  0  0  0  0  0
    3.5129    3.1458    3.6691 C   0  0  0  0  0  0
    5.2510    1.2545    3.4133 C   0  0  0  0  0  0
    4.5841    0.2779    2.3328 C   0  0  0  0  0  0
    3.4766    0.7042    1.2745 C   0  0  0  0  0  0
    3.0185   -0.4830    0.2247 C   0  0  0  0  0  0
    2.1986   -1.5191    0.9918 C   0  0  0  0  0  0
    2.2081   -0.0074   -1.0645 C   0  0  0  0  0  0
    0.8315    0.8414   -1.0090 C   0  0  0  0  0  0
    0.5950    1.9917    0.0287 C   0  0  0  0  0  0
   -0.7673    2.8201   -0.0563 C   0  0  0  0  0  0
   -2.2042    2.1657   -0.0960 C   0  0  0  0  0  0
   -3.4602    3.0755   -0.0495 C   0  0  0  0  0  0
   -3.3649    4.4496   -0.8188 C   0  0  0  0  0  0
   -3.1499    4.3659   -2.3351 C   0  0  0  0  0  0
   -4.0200    3.3665   -3.1491 C   0  0  0  0  0  0
   -5.5681    3.5271   -3.2034 C   0  0  0  0  0  0
   -6.3742    2.6452   -2.2600 C   0  0  0  0  0  0
   -5.9548    4.9436   -3.0605 N   0  0  0  0  0  0
   -3.5776    3.5269   -4.5211 O   0  0  0  0  0  0
   -4.5712    5.1796   -0.5702 O   0  0  0  0  0  0
    0.7342    1.4721   -2.2971 O   0  0  0  0  0  0
    5.6754   -0.2384    1.5234 O   0  0  0  0  0  0
    5.9024   -1.5767    1.5754 C   0  0  0  0  0  0
    5.3279   -2.3766    2.2891 O   0  0  0  0  0  0
    6.9190   -1.9282    0.5245 C   0  0  0  0  0  0
    6.4391   -1.5928   -0.8967 C   0  0  0  0  0  0
    7.4322   -0.7067   -1.6596 C   0  0  0  0  0  0
    7.3754    0.7218   -1.1703 C   0  0  0  0  0  0
    8.3663    1.4302   -1.0288 O   0  0  0  0  0  0
    6.1313    1.1467   -0.9049 O   0  0  0  0  0  0
    6.2767   -2.9392   -1.6157 C   0  0  0  0  0  0
    5.2399   -3.2819   -2.1634 O   0  0  0  0  0  0
    7.3538   -3.7339   -1.5517 O   0  0  0  0  0  0
    6.2137    2.1953    2.7906 O   0  0  0  0  0  0
    7.4466    1.7077    2.3902 C   0  0  0  0  0  0
    7.7763    0.5296    2.4315 O   0  0  0  0  0  0
    8.3751    2.8170    1.8787 C   0  0  0  0  0  0
    9.7254    2.9767    2.6442 C   0  0  0  0  0  0
   10.8270    3.8352    1.9962 C   0  0  0  0  0  0
   12.0981    3.8590    2.7951 C   0  0  0  0  0  0
   12.7006    2.8771    3.2068 O   0  0  0  0  0  0
   12.5448    5.1055    3.0117 O   0  0  0  0  0  0
    9.5828    3.4445    4.0978 C   0  0  0  0  0  0
    8.6878    4.1769    4.4710 O   0  0  0  0  0  0
   10.4593    2.9028    4.9694 O   0  0  0  0  0  0
   -6.9603    5.0312   -3.2017 H   0  0  0  0  0  0
   -5.5341    5.4758   -3.8255 H   0  0  0  0  0  0
   -2.7921    2.9450   -4.5966 H   0  0  0  0  0  0
   -5.3056    4.7122   -1.0092 H   0  0  0  0  0  0
    1.5638    1.9510   -2.4609 H   0  0  0  0  0  0
    5.5624    0.5046   -0.4385 H   0  0  0  0  0  0
    8.1219   -3.3450   -1.0641 H   0  0  0  0  0  0
   13.3783    5.0212    3.5210 H   0  0  0  0  0  0
   10.3640    3.2018    5.9009 H   0  0  0  0  0  0
  1  2  1  0  0  0
  2  3  1  0  0  0
  3  4  1  0  0  0
  4  5  1  0  0  0
  5  6  1  0  0  0
  5  7  1  0  0  0
  7  8  1  0  0  0
  7 39  1  0  0  0
  8  9  1  0  0  0
  8 27  1  0  0  0
  9 10  1  0  0  0
 10 11  1  0  0  0
 10 12  1  0  0  0
 12 13  1  0  0  0
 13 14  1  0  0  0
 13 26  1  0  0  0
 14 15  1  0  0  0
 15 16  1  0  0  0
 16 17  1  0  0  0
 17 18  1  0  0  0
 18 19  1  0  0  0
 18 25  1  0  0  0
 19 20  1  0  0  0
 20 21  1  0  0  0
 20 24  1  0  0  0
 21 22  1  0  0  0
 21 23  1  0  0  0
 23 51  1  0  0  0
 23 52  1  0  0  0
 24 53  1  0  0  0
 25 54  1  0  0  0
 26 55  1  0  0  0
 27 28  1  0  0  0
 28 29  2  0  0  0
 28 30  1  0  0  0
 30 31  1  0  0  0
 31 32  1  0  0  0
 31 36  1  0  0  0
 32 33  1  0  0  0
 33 34  2  0  0  0
 33 35  1  0  0  0
 35 56  1  0  0  0
 36 37  2  0  0  0
 36 38  1  0  0  0
 38 57  1  0  0  0
 39 40  1  0  0  0
 40 41  2  0  0  0
 40 42  1  0  0  0
 42 43  1  0  0  0
 43 44  1  0  0  0
 43 48  1  0  0  0
 44 45  1  0  0  0
 45 46  2  0  0  0
 45 47  1  0  0  0
 47 58  1  0  0  0
 48 49  2  0  0  0
 48 50  1  0  0  0
 50 59  1  0  0  0
M  END
>  <AUTHOR>
    GENERATED BY OPEN BABEL 2.4.1

>  <CHROM.1>
-66.44993255,-155.40542178,83.18227097,164.34770404,56.15662932,152.59947602
176.93001864,116.24714685,71.19509966,-56.49195019,39.37831805,176.62853333
-52.99707705,51.76843068,174.49956060,36.71322114,62.26433703,46.00265780
-67.91730553,62.38633568,-98.80281848,84.46127249,173.84348031,-4.28007557
-61.04363826,126.13363773,-75.21130051,125.54406128,140.53402724,42.13773217
-1.09088575,5.00945642,120.86134603,166.24487074,-177.25834693,-31.50658905
51.59023965,-178.98222718,-179.79672379,4.03885063,1.69624045,1.02719409
0.22600405,-0.31020793,0.86006250

>  <COMPND>
    UNNAMED

>  <MASTER>
        0    0    0    0    0    0    0    0  109    0  109    0

>  <Name>
FB1.pdb

>  <RI>
0

>  <Rbt.Current_Directory>
/home/fc/tossine/FB1_39/p3/2_clust01

>  <Rbt.Executable>
rbdock/0.1.0

>  <Rbt.Library>
librxdock.so/0.1.0

>  <Rbt.Parameter_File>
/cluster/rxdock/data/scripts/dock.prm

>  <Rbt.Receptor>
rx_1.prm

>  <SCORE>
-8.03024

>  <SCORE.INTER>
-11.5141

>  <SCORE.INTER.CONST>
1

>  <SCORE.INTER.POLAR>
-3.18904

>  <SCORE.INTER.REPUL>
0.241326

>  <SCORE.INTER.ROT>
32

>  <SCORE.INTER.VDW>
-39.278

>  <SCORE.INTER.norm>
-0.230282

>  <SCORE.INTRA>
2.60091

>  <SCORE.INTRA.DIHEDRAL>
9.83739

>  <SCORE.INTRA.DIHEDRAL.0>
47.3121

>  <SCORE.INTRA.POLAR>
0.331779

>  <SCORE.INTRA.POLAR.0>
-1.47808

>  <SCORE.INTRA.REPUL>
0

>  <SCORE.INTRA.REPUL.0>
0

>  <SCORE.INTRA.VDW>
-3.44583

>  <SCORE.INTRA.VDW.0>
-2.78316

>  <SCORE.INTRA.norm>
0.0520182

>  <SCORE.RESTR>
0.88295

>  <SCORE.RESTR.CAVITY>
0.88295

>  <SCORE.RESTR.norm>
0.017659

>  <SCORE.SYSTEM>
0

>  <SCORE.SYSTEM.CONST>
0

>  <SCORE.SYSTEM.DIHEDRAL>
0

>  <SCORE.SYSTEM.norm>
0

>  <SCORE.heavy>
50

>  <SCORE.norm>
-0.160605

$$$$
