FB1.pdb
  RxDock  10072014103D
librxdock.so/0.1.0
 59 58  0  0  0  0  0  0  0  0999 V2000
   -6.6521   10.2736   -2.0208 C   0  0  0  0  0  0
   -7.7962   10.0265   -3.0014 C   0  0  0  0  0  0
   -8.9019    9.1579   -2.3791 C   0  0  0  0  0  0
   -8.4715    7.6895   -2.1382 C   0  0  0  0  0  0
   -9.4754    6.8372   -1.2859 C   0  0  0  0  0  0
  -10.8232    6.7759   -2.0411 C   0  0  0  0  0  0
   -8.9446    5.3793   -0.9532 C   0  0  0  0  0  0
   -7.4028    5.0790   -1.2675 C   0  0  0  0  0  0
   -6.1921    5.3836   -0.2828 C   0  0  0  0  0  0
   -4.7771    5.7996   -1.0218 C   0  0  0  0  0  0
   -4.8446    7.2778   -1.4018 C   0  0  0  0  0  0
   -3.4427    5.5207   -0.1933 C   0  0  0  0  0  0
   -2.9057    4.0436    0.1922 C   0  0  0  0  0  0
   -1.3854    3.6653    0.1514 C   0  0  0  0  0  0
   -0.9690    2.1637    0.4992 C   0  0  0  0  0  0
   -0.6355    1.6483    1.9544 C   0  0  0  0  0  0
    0.8254    1.2710    2.3159 C   0  0  0  0  0  0
    1.9287    2.3599    2.0220 C   0  0  0  0  0  0
    2.5297    3.0652    3.2442 C   0  0  0  0  0  0
    3.3652    2.2195    4.2467 C   0  0  0  0  0  0
    4.6959    2.7756    4.8344 C   0  0  0  0  0  0
    5.2923    2.0078    6.0058 C   0  0  0  0  0  0
    5.6976    2.9752    3.7699 N   0  0  0  0  0  0
    2.4941    2.0414    5.3927 O   0  0  0  0  0  0
    2.9882    1.7299    1.2938 O   0  0  0  0  0  0
   -3.3037    3.8510    1.5600 O   0  0  0  0  0  0
   -7.3103    3.6508   -1.5204 O   0  0  0  0  0  0
   -8.0418    3.1587   -2.5539 C   0  0  0  0  0  0
   -8.9635    3.7204   -3.1145 O   0  0  0  0  0  0
   -7.4566    1.8354   -2.9637 C   0  0  0  0  0  0
   -5.9709    1.9392   -3.3436 C   0  0  0  0  0  0
   -5.5606    3.3658   -3.7308 C   0  0  0  0  0  0
   -4.0661    3.4682   -3.9291 C   0  0  0  0  0  0
   -3.3022    3.9428   -3.0955 O   0  0  0  0  0  0
   -3.6495    2.9869   -5.1097 O   0  0  0  0  0  0
   -5.1861    1.4847   -2.1052 C   0  0  0  0  0  0
   -5.1033    2.1528   -1.0858 O   0  0  0  0  0  0
   -4.5544    0.3117   -2.2505 O   0  0  0  0  0  0
   -9.3186    4.9746    0.4239 O   0  0  0  0  0  0
  -10.6031    4.5075    0.6476 C   0  0  0  0  0  0
  -11.2684    3.8821   -0.1675 O   0  0  0  0  0  0
  -11.1167    4.8605    2.0498 C   0  0  0  0  0  0
  -12.3633    5.7976    2.0984 C   0  0  0  0  0  0
  -12.7847    6.3704    3.4640 C   0  0  0  0  0  0
  -12.5696    5.4073    4.5957 C   0  0  0  0  0  0
  -12.9491    4.2447    4.6251 O   0  0  0  0  0  0
  -11.8783    5.9518    5.6086 O   0  0  0  0  0  0
  -12.3191    6.9695    1.1099 C   0  0  0  0  0  0
  -12.9741    6.9952    0.0867 O   0  0  0  0  0  0
  -11.5817    8.0299    1.5011 O   0  0  0  0  0  0
    5.2933    3.5539    3.0349 H   0  0  0  0  0  0
    5.8838    2.0744    3.3234 H   0  0  0  0  0  0
    1.6960    1.6023    5.0300 H   0  0  0  0  0  0
    3.3470    1.0081    1.8423 H   0  0  0  0  0  0
   -2.8974    4.5545    2.0934 H   0  0  0  0  0  0
   -4.3459    2.5887   -5.6664 H   0  0  0  0  0  0
   -4.7274   -0.1432   -3.1119 H   0  0  0  0  0  0
  -11.7883    5.2562    6.2937 H   0  0  0  0  0  0
  -11.1064    7.9188    2.3543 H   0  0  0  0  0  0
  1  2  1  0  0  0
  2  3  1  0  0  0
  3  4  1  0  0  0
  4  5  1  0  0  0
  5  6  1  0  0  0
  5  7  1  0  0  0
  7  8  1  0  0  0
  7 39  1  0  0  0
  8  9  1  0  0  0
  8 27  1  0  0  0
  9 10  1  0  0  0
 10 11  1  0  0  0
 10 12  1  0  0  0
 12 13  1  0  0  0
 13 14  1  0  0  0
 13 26  1  0  0  0
 14 15  1  0  0  0
 15 16  1  0  0  0
 16 17  1  0  0  0
 17 18  1  0  0  0
 18 19  1  0  0  0
 18 25  1  0  0  0
 19 20  1  0  0  0
 20 21  1  0  0  0
 20 24  1  0  0  0
 21 22  1  0  0  0
 21 23  1  0  0  0
 23 51  1  0  0  0
 23 52  1  0  0  0
 24 53  1  0  0  0
 25 54  1  0  0  0
 26 55  1  0  0  0
 27 28  1  0  0  0
 28 29  2  0  0  0
 28 30  1  0  0  0
 30 31  1  0  0  0
 31 32  1  0  0  0
 31 36  1  0  0  0
 32 33  1  0  0  0
 33 34  2  0  0  0
 33 35  1  0  0  0
 35 56  1  0  0  0
 36 37  2  0  0  0
 36 38  1  0  0  0
 38 57  1  0  0  0
 39 40  1  0  0  0
 40 41  2  0  0  0
 40 42  1  0  0  0
 42 43  1  0  0  0
 43 44  1  0  0  0
 43 48  1  0  0  0
 44 45  1  0  0  0
 45 46  2  0  0  0
 45 47  1  0  0  0
 47 58  1  0  0  0
 48 49  2  0  0  0
 48 50  1  0  0  0
 50 59  1  0  0  0
M  END
>  <AUTHOR>
    GENERATED BY OPEN BABEL 2.4.1

>  <CHROM.1>
-69.21711347,169.99510128,61.32863839,11.32692252,85.90052303,80.29662418
-147.14614586,59.97111982,80.82238431,66.24172085,140.52382409,-177.77845219
-59.17927985,-89.42682790,-110.14470948,52.89189908,107.76678146,65.30696821
-59.79231423,137.46878071,168.09795758,58.01198303,53.49523172,-16.05090031
-56.88553941,-21.58730321,172.86842973,-71.62825524,-101.53220034,-3.30291008
-4.23553334,32.13443557,117.00297937,-170.24540663,-35.72838996,104.50454529
-50.54293523,179.98580493,3.50219036,-5.52132541,4.40236808,0.24035531,-2.98087339
-0.28546960,1.54557824

>  <COMPND>
    UNNAMED

>  <MASTER>
        0    0    0    0    0    0    0    0  109    0  109    0

>  <Name>
FB1.pdb

>  <RI>
0

>  <Rbt.Current_Directory>
/home/fc/tossine/FB1_39/p3/2_clust01

>  <Rbt.Executable>
rbdock/0.1.0

>  <Rbt.Library>
librxdock.so/0.1.0

>  <Rbt.Parameter_File>
/cluster/rxdock/data/scripts/dock.prm

>  <Rbt.Receptor>
rx_4.prm

>  <SCORE>
19.5425

>  <SCORE.INTER>
3.5611

>  <SCORE.INTER.CONST>
1

>  <SCORE.INTER.POLAR>
-2.39733

>  <SCORE.INTER.REPUL>
0.394119

>  <SCORE.INTER.ROT>
32

>  <SCORE.INTER.VDW>
-27.6586

>  <SCORE.INTER.norm>
0.0712219

>  <SCORE.INTRA>
13.5082

>  <SCORE.INTRA.DIHEDRAL>
21.6359

>  <SCORE.INTRA.DIHEDRAL.0>
47.3121

>  <SCORE.INTRA.POLAR>
1.47808

>  <SCORE.INTRA.POLAR.0>
-1.47808

>  <SCORE.INTRA.REPUL>
0

>  <SCORE.INTRA.REPUL.0>
0

>  <SCORE.INTRA.VDW>
-2.33525

>  <SCORE.INTRA.VDW.0>
-2.78316

>  <SCORE.INTRA.norm>
0.270163

>  <SCORE.RESTR>
2.47319

>  <SCORE.RESTR.CAVITY>
2.47319

>  <SCORE.RESTR.norm>
0.0494639

>  <SCORE.SYSTEM>
0

>  <SCORE.SYSTEM.CONST>
0

>  <SCORE.SYSTEM.DIHEDRAL>
0

>  <SCORE.SYSTEM.norm>
0

>  <SCORE.heavy>
50

>  <SCORE.norm>
0.390849

$$$$
