FB1.pdb
  RxDock  10072013273D
librxdock.so/0.1.0
 59 58  0  0  0  0  0  0  0  0999 V2000
  -12.5569    5.6482    4.5893 C   0  0  0  0  0  0
  -13.0088    6.5212    3.4209 C   0  0  0  0  0  0
  -12.5593    5.9413    2.0696 C   0  0  0  0  0  0
  -12.8774    6.8627    0.8657 C   0  0  0  0  0  0
  -11.8397    8.0133    0.6208 C   0  0  0  0  0  0
  -11.7814    8.8929    1.8910 C   0  0  0  0  0  0
  -10.3947    7.4894    0.2265 C   0  0  0  0  0  0
   -9.2267    8.5820    0.1349 C   0  0  0  0  0  0
   -8.2507    8.7762   -1.1052 C   0  0  0  0  0  0
   -7.1837    7.5433   -1.3554 C   0  0  0  0  0  0
   -6.5828    7.1411   -0.0096 C   0  0  0  0  0  0
   -7.7623    6.2510   -2.0904 C   0  0  0  0  0  0
   -8.7450    6.3013   -3.3751 C   0  0  0  0  0  0
   -9.0869    5.0275   -4.2216 C   0  0  0  0  0  0
   -9.3714    3.6591   -3.4497 C   0  0  0  0  0  0
   -8.3417    2.9546   -2.4812 C   0  0  0  0  0  0
   -6.9209    2.6063   -2.9982 C   0  0  0  0  0  0
   -5.8707    2.1416   -1.9164 C   0  0  0  0  0  0
   -5.0519    0.8904   -2.2579 C   0  0  0  0  0  0
   -4.1910    0.9034   -3.5528 C   0  0  0  0  0  0
   -4.5624   -0.0087   -4.7593 C   0  0  0  0  0  0
   -3.5953   -1.1409   -5.0757 C   0  0  0  0  0  0
   -5.9423   -0.5144   -4.6304 N   0  0  0  0  0  0
   -4.3061    2.2585   -4.0572 O   0  0  0  0  0  0
   -4.9667    3.2271   -1.6834 O   0  0  0  0  0  0
  -10.0062    6.7579   -2.8581 O   0  0  0  0  0  0
   -9.8679    9.8765    0.2945 O   0  0  0  0  0  0
   -9.0626   10.9328    0.5795 C   0  0  0  0  0  0
   -7.8974   10.8767    0.9240 O   0  0  0  0  0  0
   -9.8227   12.1999    0.2999 C   0  0  0  0  0  0
   -9.5088   12.7827   -1.0872 C   0  0  0  0  0  0
  -10.6837   13.5774   -1.6715 C   0  0  0  0  0  0
  -11.8450   12.6691   -2.0028 C   0  0  0  0  0  0
  -13.0191   13.0154   -1.9303 O   0  0  0  0  0  0
  -11.4694   11.4405   -2.3880 O   0  0  0  0  0  0
   -8.2964   13.7039   -0.8932 C   0  0  0  0  0  0
   -8.2476   14.5697   -0.0327 O   0  0  0  0  0  0
   -7.3100   13.5139   -1.7802 O   0  0  0  0  0  0
  -10.0015    6.3261    1.0583 O   0  0  0  0  0  0
  -10.1124    5.0581    0.5125 C   0  0  0  0  0  0
  -10.0995    4.8126   -0.6867 O   0  0  0  0  0  0
  -10.2551    3.9709    1.5858 C   0  0  0  0  0  0
  -11.0871    2.7170    1.1733 C   0  0  0  0  0  0
  -10.3719    1.3540    1.1379 C   0  0  0  0  0  0
   -9.1861    1.3375    0.2169 C   0  0  0  0  0  0
   -8.0433    1.6521    0.5194 O   0  0  0  0  0  0
   -9.4999    0.9113   -1.0160 O   0  0  0  0  0  0
  -12.3871    2.5259    1.9643 C   0  0  0  0  0  0
  -13.3885    2.0361    1.4805 O   0  0  0  0  0  0
  -12.3193    2.8400    3.2750 O   0  0  0  0  0  0
   -5.9851   -1.1746   -3.8552 H   0  0  0  0  0  0
   -6.1661   -1.0680   -5.4605 H   0  0  0  0  0  0
   -3.6288    2.3170   -4.7638 H   0  0  0  0  0  0
   -5.4782    3.9786   -1.3311 H   0  0  0  0  0  0
   -9.9997    7.7297   -2.8643 H   0  0  0  0  0  0
  -12.2002   10.8314   -2.6084 H   0  0  0  0  0  0
   -7.4931   12.8123   -2.4532 H   0  0  0  0  0  0
  -10.3700    0.4648   -0.9464 H   0  0  0  0  0  0
  -11.4492    3.1802    3.5806 H   0  0  0  0  0  0
  1  2  1  0  0  0
  2  3  1  0  0  0
  3  4  1  0  0  0
  4  5  1  0  0  0
  5  6  1  0  0  0
  5  7  1  0  0  0
  7  8  1  0  0  0
  7 39  1  0  0  0
  8  9  1  0  0  0
  8 27  1  0  0  0
  9 10  1  0  0  0
 10 11  1  0  0  0
 10 12  1  0  0  0
 12 13  1  0  0  0
 13 14  1  0  0  0
 13 26  1  0  0  0
 14 15  1  0  0  0
 15 16  1  0  0  0
 16 17  1  0  0  0
 17 18  1  0  0  0
 18 19  1  0  0  0
 18 25  1  0  0  0
 19 20  1  0  0  0
 20 21  1  0  0  0
 20 24  1  0  0  0
 21 22  1  0  0  0
 21 23  1  0  0  0
 23 51  1  0  0  0
 23 52  1  0  0  0
 24 53  1  0  0  0
 25 54  1  0  0  0
 26 55  1  0  0  0
 27 28  1  0  0  0
 28 29  2  0  0  0
 28 30  1  0  0  0
 30 31  1  0  0  0
 31 32  1  0  0  0
 31 36  1  0  0  0
 32 33  1  0  0  0
 33 34  2  0  0  0
 33 35  1  0  0  0
 35 56  1  0  0  0
 36 37  2  0  0  0
 36 38  1  0  0  0
 38 57  1  0  0  0
 39 40  1  0  0  0
 40 41  2  0  0  0
 40 42  1  0  0  0
 42 43  1  0  0  0
 43 44  1  0  0  0
 43 48  1  0  0  0
 44 45  1  0  0  0
 45 46  2  0  0  0
 45 47  1  0  0  0
 47 58  1  0  0  0
 48 49  2  0  0  0
 48 50  1  0  0  0
 50 59  1  0  0  0
M  END
>  <AUTHOR>
    GENERATED BY OPEN BABEL 2.4.1

>  <CHROM.1>
-174.46143148,82.11096381,-59.24090236,-172.64661163,-128.28831131,100.92813522
-68.32848296,164.30914910,-44.51282886,43.08687506,168.86581218,41.50411762
87.03719691,-58.72883392,-55.33721638,169.56778335,133.11398758,58.28403326
61.96541778,-111.83016156,-112.28175389,169.06861720,-68.98049292,-12.59405113
-96.88478781,151.18228474,-67.79891334,-50.83127051,147.81175402,179.98241089
0.69875910,24.15665865,149.45192229,117.23945051,-57.74759059,147.31721995
87.91637718,-16.39236645,1.47972346,-9.16279442,6.13375928,-0.74252408,1.99035612
0.71207157,-0.09400885

>  <COMPND>
    UNNAMED

>  <MASTER>
        0    0    0    0    0    0    0    0  109    0  109    0

>  <Name>
FB1.pdb

>  <RI>
0

>  <Rbt.Current_Directory>
/home/fc/tossine/FB1_39/p3/2_clust01

>  <Rbt.Executable>
rbdock/0.1.0

>  <Rbt.Library>
librxdock.so/0.1.0

>  <Rbt.Parameter_File>
/cluster/rxdock/data/scripts/dock.prm

>  <Rbt.Receptor>
rx_3.prm

>  <SCORE>
31.2694

>  <SCORE.INTER>
12.6273

>  <SCORE.INTER.CONST>
1

>  <SCORE.INTER.POLAR>
-1.29329

>  <SCORE.INTER.REPUL>
0.145941

>  <SCORE.INTER.ROT>
32

>  <SCORE.INTER.VDW>
-21.1052

>  <SCORE.INTER.norm>
0.252547

>  <SCORE.INTRA>
17.4594

>  <SCORE.INTRA.DIHEDRAL>
20.7703

>  <SCORE.INTRA.DIHEDRAL.0>
47.3121

>  <SCORE.INTRA.POLAR>
1.47808

>  <SCORE.INTRA.POLAR.0>
-1.47808

>  <SCORE.INTRA.REPUL>
0.020193

>  <SCORE.INTRA.REPUL.0>
0

>  <SCORE.INTRA.VDW>
1.94778

>  <SCORE.INTRA.VDW.0>
-2.78316

>  <SCORE.INTRA.norm>
0.349187

>  <SCORE.RESTR>
1.18267

>  <SCORE.RESTR.CAVITY>
1.18267

>  <SCORE.RESTR.norm>
0.0236535

>  <SCORE.SYSTEM>
0

>  <SCORE.SYSTEM.CONST>
0

>  <SCORE.SYSTEM.DIHEDRAL>
0

>  <SCORE.SYSTEM.norm>
0

>  <SCORE.heavy>
50

>  <SCORE.norm>
0.625387

$$$$
