FB1.pdb
  RxDock  10072013333D
librxdock.so/0.1.0
 59 58  0  0  0  0  0  0  0  0999 V2000
   -8.9143    2.1958   -3.5306 C   0  0  0  0  0  0
   -9.5787    3.5493   -3.7711 C   0  0  0  0  0  0
   -8.5899    4.7111   -3.5792 C   0  0  0  0  0  0
   -9.2739    6.0994   -3.5118 C   0  0  0  0  0  0
   -9.8723    6.4749   -2.1113 C   0  0  0  0  0  0
  -10.9658    5.4406   -1.7576 C   0  0  0  0  0  0
   -8.7832    6.5652   -0.9609 C   0  0  0  0  0  0
   -7.7694    5.3326   -0.8230 C   0  0  0  0  0  0
   -6.2936    5.2911   -1.4134 C   0  0  0  0  0  0
   -5.4323    3.9322   -1.0490 C   0  0  0  0  0  0
   -5.7275    2.8720   -2.1088 C   0  0  0  0  0  0
   -3.8547    4.1178   -0.9029 C   0  0  0  0  0  0
   -2.8819    3.0621   -0.1559 C   0  0  0  0  0  0
   -1.4035    3.4101    0.2306 C   0  0  0  0  0  0
   -0.6017    2.3859    1.1566 C   0  0  0  0  0  0
    0.5003    1.3855    0.6281 C   0  0  0  0  0  0
    1.3610    0.5895    1.6445 C   0  0  0  0  0  0
    2.5053    1.3896    2.3791 C   0  0  0  0  0  0
    3.7157    1.7836    1.5235 C   0  0  0  0  0  0
    4.8447    2.6234    2.1857 C   0  0  0  0  0  0
    5.4780    2.1733    3.5354 C   0  0  0  0  0  0
    6.5815    3.0601    4.0951 C   0  0  0  0  0  0
    4.4347    1.9265    4.5489 N   0  0  0  0  0  0
    5.9354    2.5914    1.2301 O   0  0  0  0  0  0
    1.9296    2.5800    2.9280 O   0  0  0  0  0  0
   -3.5376    2.7736    1.0905 O   0  0  0  0  0  0
   -7.5931    5.1089    0.6023 O   0  0  0  0  0  0
   -8.5939    4.4611    1.2534 C   0  0  0  0  0  0
   -8.9355    4.6400    2.4070 O   0  0  0  0  0  0
   -9.2847    3.5492    0.2775 C   0  0  0  0  0  0
   -9.7200    2.2210    0.9170 C   0  0  0  0  0  0
  -11.1688    1.8501    0.5754 C   0  0  0  0  0  0
  -12.0858    2.0945    1.7513 C   0  0  0  0  0  0
  -11.9981    3.0705    2.4884 O   0  0  0  0  0  0
  -13.0124    1.1386    1.9140 O   0  0  0  0  0  0
   -8.7615    1.1548    0.3687 C   0  0  0  0  0  0
   -8.0086    1.3553   -0.5722 O   0  0  0  0  0  0
   -8.8527   -0.0360    0.9767 O   0  0  0  0  0  0
   -8.0721    7.8663   -0.9978 O   0  0  0  0  0  0
   -8.7977    9.0210   -0.7563 C   0  0  0  0  0  0
   -9.9468    9.0460   -0.3353 O   0  0  0  0  0  0
   -7.9978   10.2907   -1.0760 C   0  0  0  0  0  0
   -8.7212   11.6404   -0.7766 C   0  0  0  0  0  0
   -8.7339   12.1473    0.6771 C   0  0  0  0  0  0
   -9.6464   13.3222    0.8807 C   0  0  0  0  0  0
  -10.4124   13.7838    0.0460 O   0  0  0  0  0  0
   -9.5578   13.8324    2.1185 O   0  0  0  0  0  0
   -8.2766   12.8120   -1.6609 C   0  0  0  0  0  0
   -7.4008   13.5892   -1.3360 O   0  0  0  0  0  0
   -8.8490   12.8661   -2.8818 O   0  0  0  0  0  0
    3.9468    1.0611    4.3222 H   0  0  0  0  0  0
    3.7242    2.6577    4.4711 H   0  0  0  0  0  0
    5.5995    3.0901    0.4556 H   0  0  0  0  0  0
    1.2979    2.3197    3.6235 H   0  0  0  0  0  0
   -3.0738    2.0290    1.5089 H   0  0  0  0  0  0
  -12.9838    0.4148    1.2592 H   0  0  0  0  0  0
   -8.2350   -0.7242    0.6252 H   0  0  0  0  0  0
   -8.9008   13.2875    2.6010 H   0  0  0  0  0  0
   -8.5225   13.5853   -3.4669 H   0  0  0  0  0  0
  1  2  1  0  0  0
  2  3  1  0  0  0
  3  4  1  0  0  0
  4  5  1  0  0  0
  5  6  1  0  0  0
  5  7  1  0  0  0
  7  8  1  0  0  0
  7 39  1  0  0  0
  8  9  1  0  0  0
  8 27  1  0  0  0
  9 10  1  0  0  0
 10 11  1  0  0  0
 10 12  1  0  0  0
 12 13  1  0  0  0
 13 14  1  0  0  0
 13 26  1  0  0  0
 14 15  1  0  0  0
 15 16  1  0  0  0
 16 17  1  0  0  0
 17 18  1  0  0  0
 18 19  1  0  0  0
 18 25  1  0  0  0
 19 20  1  0  0  0
 20 21  1  0  0  0
 20 24  1  0  0  0
 21 22  1  0  0  0
 21 23  1  0  0  0
 23 51  1  0  0  0
 23 52  1  0  0  0
 24 53  1  0  0  0
 25 54  1  0  0  0
 26 55  1  0  0  0
 27 28  1  0  0  0
 28 29  2  0  0  0
 28 30  1  0  0  0
 30 31  1  0  0  0
 31 32  1  0  0  0
 31 36  1  0  0  0
 32 33  1  0  0  0
 33 34  2  0  0  0
 33 35  1  0  0  0
 35 56  1  0  0  0
 36 37  2  0  0  0
 36 38  1  0  0  0
 38 57  1  0  0  0
 39 40  1  0  0  0
 40 41  2  0  0  0
 40 42  1  0  0  0
 42 43  1  0  0  0
 43 44  1  0  0  0
 43 48  1  0  0  0
 44 45  1  0  0  0
 45 46  2  0  0  0
 45 47  1  0  0  0
 47 58  1  0  0  0
 48 49  2  0  0  0
 48 50  1  0  0  0
 50 59  1  0  0  0
M  END
>  <AUTHOR>
    GENERATED BY OPEN BABEL 2.4.1

>  <CHROM.1>
-167.62651259,81.61896572,-61.57803251,-49.62475809,98.33274588,64.15849049
176.51101943,77.50810210,87.44597053,161.80818648,-166.89614461,170.88114145
170.29610292,103.35947630,170.89267470,-75.76714096,-71.27077499,177.55712346
65.87078426,50.95170311,179.63356275,66.44502488,72.95004021,-147.33141043
142.90162860,132.64628342,-104.62149488,-12.37521761,40.20955660,-0.28993512
-179.94668945,10.43657178,-177.59573301,80.40362523,-170.33982833,-93.34246053
6.64255176,-0.42091475,-176.42838398,-5.79479474,5.18155647,0.19619267,2.67209510
-0.17909091,-0.07088791

>  <COMPND>
    UNNAMED

>  <MASTER>
        0    0    0    0    0    0    0    0  109    0  109    0

>  <Name>
FB1.pdb

>  <RI>
0

>  <Rbt.Current_Directory>
/home/fc/tossine/FB1_39/p3/2_clust01

>  <Rbt.Executable>
rbdock/0.1.0

>  <Rbt.Library>
librxdock.so/0.1.0

>  <Rbt.Parameter_File>
/cluster/rxdock/data/scripts/dock.prm

>  <Rbt.Receptor>
rx_3.prm

>  <SCORE>
21.6838

>  <SCORE.INTER>
8.44839

>  <SCORE.INTER.CONST>
1

>  <SCORE.INTER.POLAR>
-2.0997

>  <SCORE.INTER.REPUL>
0

>  <SCORE.INTER.ROT>
32

>  <SCORE.INTER.VDW>
-21.8126

>  <SCORE.INTER.norm>
0.168968

>  <SCORE.INTRA>
13.2209

>  <SCORE.INTRA.DIHEDRAL>
3.5749

>  <SCORE.INTRA.DIHEDRAL.0>
47.3121

>  <SCORE.INTRA.POLAR>
1.43466

>  <SCORE.INTRA.POLAR.0>
-1.47808

>  <SCORE.INTRA.REPUL>
0

>  <SCORE.INTRA.REPUL.0>
0

>  <SCORE.INTRA.VDW>
6.55561

>  <SCORE.INTRA.VDW.0>
-2.78316

>  <SCORE.INTRA.norm>
0.264418

>  <SCORE.RESTR>
0.0144749

>  <SCORE.RESTR.CAVITY>
0.0144749

>  <SCORE.RESTR.norm>
0.000289498

>  <SCORE.SYSTEM>
0

>  <SCORE.SYSTEM.CONST>
0

>  <SCORE.SYSTEM.DIHEDRAL>
0

>  <SCORE.SYSTEM.norm>
0

>  <SCORE.heavy>
50

>  <SCORE.norm>
0.433676

$$$$
