FB1.pdb
  RxDock  10072013313D
librxdock.so/0.1.0
 59 58  0  0  0  0  0  0  0  0999 V2000
  -12.7002    4.9930    2.7652 C   0  0  0  0  0  0
  -11.4205    5.6946    2.3162 C   0  0  0  0  0  0
  -11.3231    5.7754    0.7838 C   0  0  0  0  0  0
   -9.9620    6.3161    0.2791 C   0  0  0  0  0  0
   -9.8810    6.5640   -1.2676 C   0  0  0  0  0  0
  -10.8232    7.7379   -1.6212 C   0  0  0  0  0  0
   -8.4081    6.8420   -1.7881 C   0  0  0  0  0  0
   -7.6184    5.6033   -2.4272 C   0  0  0  0  0  0
   -6.9429    4.4245   -1.6012 C   0  0  0  0  0  0
   -6.3787    4.8489   -0.1103 C   0  0  0  0  0  0
   -7.4003    4.4108    0.9378 C   0  0  0  0  0  0
   -4.9370    4.2894    0.2814 C   0  0  0  0  0  0
   -3.6336    4.3927   -0.6721 C   0  0  0  0  0  0
   -2.1866    4.0880   -0.1529 C   0  0  0  0  0  0
   -1.9653    2.7955    0.7579 C   0  0  0  0  0  0
   -0.5558    2.3003    1.2704 C   0  0  0  0  0  0
   -0.4771    1.0999    2.2504 C   0  0  0  0  0  0
    0.9398    0.4304    2.4336 C   0  0  0  0  0  0
    0.9700   -0.8958    3.2035 C   0  0  0  0  0  0
    2.3267   -1.6457    3.3273 C   0  0  0  0  0  0
    3.5425   -0.9714    4.0292 C   0  0  0  0  0  0
    3.2200    0.0945    5.0671 C   0  0  0  0  0  0
    4.4589   -1.9863    4.5829 N   0  0  0  0  0  0
    2.0287   -2.8143    4.1331 O   0  0  0  0  0  0
    1.4976    0.2141    1.1330 O   0  0  0  0  0  0
   -3.8655    3.4360   -1.7198 O   0  0  0  0  0  0
   -8.5597    4.9321   -3.3080 O   0  0  0  0  0  0
   -8.0621    3.9619   -4.1182 C   0  0  0  0  0  0
   -6.8861    3.7207   -4.3134 O   0  0  0  0  0  0
   -9.2122    3.1602   -4.6624 C   0  0  0  0  0  0
   -9.1749    1.6919   -4.2094 C   0  0  0  0  0  0
   -9.3000    1.5420   -2.6878 C   0  0  0  0  0  0
   -7.9399    1.4883   -2.0317 C   0  0  0  0  0  0
   -6.8860    1.4503   -2.6575 O   0  0  0  0  0  0
   -7.9927    1.4878   -0.6916 O   0  0  0  0  0  0
  -10.3595    1.0060   -4.9040 C   0  0  0  0  0  0
  -11.5249    1.2476   -4.6288 O   0  0  0  0  0  0
  -10.0101    0.0796   -5.8071 O   0  0  0  0  0  0
   -8.3667    8.0375   -2.6649 O   0  0  0  0  0  0
   -8.2411    9.2839   -2.0743 C   0  0  0  0  0  0
   -8.1126    9.4751   -0.8721 O   0  0  0  0  0  0
   -8.2794   10.4232   -3.1015 C   0  0  0  0  0  0
   -8.7272   11.8140   -2.5540 C   0  0  0  0  0  0
   -8.7858   12.9948   -3.5402 C   0  0  0  0  0  0
   -7.4468   13.6341   -3.7701 C   0  0  0  0  0  0
   -6.5545   13.7395   -2.9399 O   0  0  0  0  0  0
   -7.3013   14.0828   -5.0263 O   0  0  0  0  0  0
  -10.0543   11.7995   -1.7854 C   0  0  0  0  0  0
  -10.6764   10.7800   -1.5612 O   0  0  0  0  0  0
  -10.4411   12.9873   -1.2747 O   0  0  0  0  0  0
    3.9933   -2.4762    5.3456 H   0  0  0  0  0  0
    5.2497   -1.5083    5.0207 H   0  0  0  0  0  0
    1.6140   -3.4457    3.5081 H   0  0  0  0  0  0
    1.7047    1.0830    0.7424 H   0  0  0  0  0  0
   -4.5647    3.7859   -2.2971 H   0  0  0  0  0  0
   -8.8884    1.5622   -0.3099 H   0  0  0  0  0  0
  -10.7525   -0.2343   -6.3807 H   0  0  0  0  0  0
   -7.9671   13.6131   -5.5716 H   0  0  0  0  0  0
  -11.3695   13.0240   -0.9541 H   0  0  0  0  0  0
  1  2  1  0  0  0
  2  3  1  0  0  0
  3  4  1  0  0  0
  4  5  1  0  0  0
  5  6  1  0  0  0
  5  7  1  0  0  0
  7  8  1  0  0  0
  7 39  1  0  0  0
  8  9  1  0  0  0
  8 27  1  0  0  0
  9 10  1  0  0  0
 10 11  1  0  0  0
 10 12  1  0  0  0
 12 13  1  0  0  0
 13 14  1  0  0  0
 13 26  1  0  0  0
 14 15  1  0  0  0
 15 16  1  0  0  0
 16 17  1  0  0  0
 17 18  1  0  0  0
 18 19  1  0  0  0
 18 25  1  0  0  0
 19 20  1  0  0  0
 20 21  1  0  0  0
 20 24  1  0  0  0
 21 22  1  0  0  0
 21 23  1  0  0  0
 23 51  1  0  0  0
 23 52  1  0  0  0
 24 53  1  0  0  0
 25 54  1  0  0  0
 26 55  1  0  0  0
 27 28  1  0  0  0
 28 29  2  0  0  0
 28 30  1  0  0  0
 30 31  1  0  0  0
 31 32  1  0  0  0
 31 36  1  0  0  0
 32 33  1  0  0  0
 33 34  2  0  0  0
 33 35  1  0  0  0
 35 56  1  0  0  0
 36 37  2  0  0  0
 36 38  1  0  0  0
 38 57  1  0  0  0
 39 40  1  0  0  0
 40 41  2  0  0  0
 40 42  1  0  0  0
 42 43  1  0  0  0
 43 44  1  0  0  0
 43 48  1  0  0  0
 44 45  1  0  0  0
 45 46  2  0  0  0
 45 47  1  0  0  0
 47 58  1  0  0  0
 48 49  2  0  0  0
 48 50  1  0  0  0
 50 59  1  0  0  0
M  END
>  <AUTHOR>
    GENERATED BY OPEN BABEL 2.4.1

>  <CHROM.1>
-172.67481522,-173.48469425,67.57820811,98.14488720,-76.79043610,85.11818014
-30.99811929,170.53114255,100.07752287,48.96999391,167.85380077,44.46426875
71.86386367,175.48121123,174.76969137,165.00095878,-169.66089194,175.86500538
68.56508704,60.47986575,25.80351551,79.35550512,-67.05058341,-10.66257996
-116.71970864,62.63812660,-93.01479302,-68.46380795,-6.00695959,-2.63311839
-168.47256554,2.73159612,155.91999361,-179.93857376,-81.96042987,3.48881048
-33.39891757,-19.55223531,167.44220093,-6.18569610,4.83501207,-0.93586598
2.44947439,-0.46307410,0.00424105

>  <COMPND>
    UNNAMED

>  <MASTER>
        0    0    0    0    0    0    0    0  109    0  109    0

>  <Name>
FB1.pdb

>  <RI>
0

>  <Rbt.Current_Directory>
/home/fc/tossine/FB1_39/p3/2_clust01

>  <Rbt.Executable>
rbdock/0.1.0

>  <Rbt.Library>
librxdock.so/0.1.0

>  <Rbt.Parameter_File>
/cluster/rxdock/data/scripts/dock.prm

>  <Rbt.Receptor>
rx_3.prm

>  <SCORE>
10.1316

>  <SCORE.INTER>
0.645634

>  <SCORE.INTER.CONST>
1

>  <SCORE.INTER.POLAR>
-3.74317

>  <SCORE.INTER.REPUL>
0.318316

>  <SCORE.INTER.ROT>
32

>  <SCORE.INTER.VDW>
-25.6192

>  <SCORE.INTER.norm>
0.0129127

>  <SCORE.INTRA>
9.2897

>  <SCORE.INTRA.DIHEDRAL>
3.69807

>  <SCORE.INTRA.DIHEDRAL.0>
47.3121

>  <SCORE.INTRA.POLAR>
1.47808

>  <SCORE.INTRA.POLAR.0>
-1.47808

>  <SCORE.INTRA.REPUL>
0

>  <SCORE.INTRA.REPUL.0>
0

>  <SCORE.INTRA.VDW>
2.4152

>  <SCORE.INTRA.VDW.0>
-2.78316

>  <SCORE.INTRA.norm>
0.185794

>  <SCORE.RESTR>
0.196257

>  <SCORE.RESTR.CAVITY>
0.196257

>  <SCORE.RESTR.norm>
0.00392515

>  <SCORE.SYSTEM>
0

>  <SCORE.SYSTEM.CONST>
0

>  <SCORE.SYSTEM.DIHEDRAL>
0

>  <SCORE.SYSTEM.norm>
0

>  <SCORE.heavy>
50

>  <SCORE.norm>
0.202632

$$$$
