FB1.pdb
  RxDock  10072010573D
librxdock.so/0.1.0
 59 58  0  0  0  0  0  0  0  0999 V2000
  -15.0642    7.4525   -1.0090 C   0  0  0  0  0  0
  -14.7134    6.2347   -1.8607 C   0  0  0  0  0  0
  -13.5932    6.5470   -2.8666 C   0  0  0  0  0  0
  -12.2291    6.8494   -2.1976 C   0  0  0  0  0  0
  -11.0784    7.2407   -3.1891 C   0  0  0  0  0  0
  -11.4369    8.5977   -3.8378 C   0  0  0  0  0  0
   -9.6470    7.2986   -2.5067 C   0  0  0  0  0  0
   -9.6085    7.4720   -0.9146 C   0  0  0  0  0  0
   -8.2961    7.4109   -0.0190 C   0  0  0  0  0  0
   -7.0331    8.3203   -0.5659 C   0  0  0  0  0  0
   -6.2916    7.5250   -1.6390 C   0  0  0  0  0  0
   -7.4004    9.7666   -1.1300 C   0  0  0  0  0  0
   -8.3769   10.0267   -2.3940 C   0  0  0  0  0  0
   -8.6086   11.4546   -2.9967 C   0  0  0  0  0  0
   -7.4555   12.0922   -3.8985 C   0  0  0  0  0  0
   -6.4723   13.2283   -3.4114 C   0  0  0  0  0  0
   -6.8859   14.7157   -3.5663 C   0  0  0  0  0  0
   -7.0723   15.2463   -5.0404 C   0  0  0  0  0  0
   -7.2684   16.7593   -5.1981 C   0  0  0  0  0  0
   -6.4119   17.5072   -6.2589 C   0  0  0  0  0  0
   -4.8581   17.4038   -6.2374 C   0  0  0  0  0  0
   -4.1273   17.9264   -7.4663 C   0  0  0  0  0  0
   -4.3089   17.9992   -5.0044 N   0  0  0  0  0  0
   -6.8092   16.9270   -7.5275 O   0  0  0  0  0  0
   -5.9231   14.8551   -5.7993 O   0  0  0  0  0  0
   -7.8082    9.2549   -3.4652 O   0  0  0  0  0  0
  -10.1746    8.7810   -0.6346 O   0  0  0  0  0  0
  -10.8875    8.9118    0.5143 C   0  0  0  0  0  0
  -11.0387    8.0590    1.3682 O   0  0  0  0  0  0
  -11.3811   10.3291    0.6093 C   0  0  0  0  0  0
  -12.2476   10.7344   -0.5938 C   0  0  0  0  0  0
  -13.6732   11.1281   -0.1865 C   0  0  0  0  0  0
  -14.4817   11.5654   -1.3858 C   0  0  0  0  0  0
  -14.2076   12.5475   -2.0671 O   0  0  0  0  0  0
  -15.5336   10.7727   -1.6390 O   0  0  0  0  0  0
  -11.5369   11.9309   -1.2414 C   0  0  0  0  0  0
  -11.3835   12.0421   -2.4483 O   0  0  0  0  0  0
  -11.0520   12.8248   -0.3687 O   0  0  0  0  0  0
   -8.7905    6.1769   -2.9630 O   0  0  0  0  0  0
   -9.1850    4.8831   -2.6651 C   0  0  0  0  0  0
  -10.1621    4.5915   -1.9879 O   0  0  0  0  0  0
   -8.2540    3.8319   -3.2836 C   0  0  0  0  0  0
   -7.5862    2.8431   -2.2782 C   0  0  0  0  0  0
   -6.5177    1.8748   -2.8177 C   0  0  0  0  0  0
   -5.2516    2.5688   -3.2297 C   0  0  0  0  0  0
   -4.2663    2.7343   -2.5237 O   0  0  0  0  0  0
   -5.2900    2.9940   -4.5018 O   0  0  0  0  0  0
   -7.0047    3.5056   -1.0232 C   0  0  0  0  0  0
   -6.7038    4.6821   -0.9768 O   0  0  0  0  0  0
   -6.9456    2.7198    0.0723 O   0  0  0  0  0  0
   -4.1276   18.9894   -5.1636 H   0  0  0  0  0  0
   -3.3898   17.5887   -4.8248 H   0  0  0  0  0  0
   -7.7367   17.2195   -7.6529 H   0  0  0  0  0  0
   -6.0680   15.1165   -6.7273 H   0  0  0  0  0  0
   -8.4275    9.2777   -4.2139 H   0  0  0  0  0  0
  -15.6484   10.0236   -1.0232 H   0  0  0  0  0  0
  -10.5529   13.5723   -0.7820 H   0  0  0  0  0  0
   -6.1025    2.6165   -4.9001 H   0  0  0  0  0  0
   -7.2990    1.8100   -0.0442 H   0  0  0  0  0  0
  1  2  1  0  0  0
  2  3  1  0  0  0
  3  4  1  0  0  0
  4  5  1  0  0  0
  5  6  1  0  0  0
  5  7  1  0  0  0
  7  8  1  0  0  0
  7 39  1  0  0  0
  8  9  1  0  0  0
  8 27  1  0  0  0
  9 10  1  0  0  0
 10 11  1  0  0  0
 10 12  1  0  0  0
 12 13  1  0  0  0
 13 14  1  0  0  0
 13 26  1  0  0  0
 14 15  1  0  0  0
 15 16  1  0  0  0
 16 17  1  0  0  0
 17 18  1  0  0  0
 18 19  1  0  0  0
 18 25  1  0  0  0
 19 20  1  0  0  0
 20 21  1  0  0  0
 20 24  1  0  0  0
 21 22  1  0  0  0
 21 23  1  0  0  0
 23 51  1  0  0  0
 23 52  1  0  0  0
 24 53  1  0  0  0
 25 54  1  0  0  0
 26 55  1  0  0  0
 27 28  1  0  0  0
 28 29  2  0  0  0
 28 30  1  0  0  0
 30 31  1  0  0  0
 31 32  1  0  0  0
 31 36  1  0  0  0
 32 33  1  0  0  0
 33 34  2  0  0  0
 33 35  1  0  0  0
 35 56  1  0  0  0
 36 37  2  0  0  0
 36 38  1  0  0  0
 38 57  1  0  0  0
 39 40  1  0  0  0
 40 41  2  0  0  0
 40 42  1  0  0  0
 42 43  1  0  0  0
 43 44  1  0  0  0
 43 48  1  0  0  0
 44 45  1  0  0  0
 45 46  2  0  0  0
 45 47  1  0  0  0
 47 58  1  0  0  0
 48 49  2  0  0  0
 48 50  1  0  0  0
 50 59  1  0  0  0
M  END
>  <AUTHOR>
    GENERATED BY OPEN BABEL 2.4.1

>  <CHROM.1>
66.33737404,-177.17224976,66.26479075,-20.76410416,173.69897983,-63.16392212
48.01613565,146.26905193,-82.66250049,-60.88081944,-174.30754565,75.60637805
172.17164722,-104.14416982,-87.56614526,-64.08583050,-170.93817946,131.59584848
175.38125768,-54.96422306,167.87086339,67.77781516,-89.61453374,4.23198775
58.13592761,119.23153811,178.05664864,135.69275607,-63.29668682,0.27701582
176.97522652,-3.93440752,122.16773871,-172.97447739,68.90732437,-21.80851828
93.35687947,-8.68912703,-1.21406870,-9.02982891,9.41091682,-2.55184361,1.74428197
-0.36143409,2.91456240

>  <COMPND>
    UNNAMED

>  <MASTER>
        0    0    0    0    0    0    0    0  109    0  109    0

>  <Name>
FB1.pdb

>  <RI>
0

>  <Rbt.Current_Directory>
/home/fc/tossine/FB1_39/p3/2_clust01

>  <Rbt.Executable>
rbdock/0.1.0

>  <Rbt.Library>
librxdock.so/0.1.0

>  <Rbt.Parameter_File>
/cluster/rxdock/data/scripts/dock.prm

>  <Rbt.Receptor>
rx_0.prm

>  <SCORE>
2.55015

>  <SCORE.INTER>
-0.77467

>  <SCORE.INTER.CONST>
1

>  <SCORE.INTER.POLAR>
-2.69419

>  <SCORE.INTER.REPUL>
0.794945

>  <SCORE.INTER.ROT>
32

>  <SCORE.INTER.VDW>
-32.9891

>  <SCORE.INTER.norm>
-0.0154934

>  <SCORE.INTRA>
2.4067

>  <SCORE.INTRA.DIHEDRAL>
0.152837

>  <SCORE.INTRA.DIHEDRAL.0>
47.3121

>  <SCORE.INTRA.POLAR>
1.04289

>  <SCORE.INTRA.POLAR.0>
-1.47808

>  <SCORE.INTRA.REPUL>
0

>  <SCORE.INTRA.REPUL.0>
0

>  <SCORE.INTRA.VDW>
-1.21555

>  <SCORE.INTRA.VDW.0>
-2.78316

>  <SCORE.INTRA.norm>
0.048134

>  <SCORE.RESTR>
0.918119

>  <SCORE.RESTR.CAVITY>
0.918119

>  <SCORE.RESTR.norm>
0.0183624

>  <SCORE.SYSTEM>
0

>  <SCORE.SYSTEM.CONST>
0

>  <SCORE.SYSTEM.DIHEDRAL>
0

>  <SCORE.SYSTEM.norm>
0

>  <SCORE.heavy>
50

>  <SCORE.norm>
0.051003

$$$$
