FB1.pdb
  RxDock  10072013293D
librxdock.so/0.1.0
 59 58  0  0  0  0  0  0  0  0999 V2000
  -10.6665   11.6542    4.7501 C   0  0  0  0  0  0
  -10.1182   11.4416    3.3411 C   0  0  0  0  0  0
  -11.2403   11.1475    2.3318 C   0  0  0  0  0  0
  -11.5582    9.6386    2.1841 C   0  0  0  0  0  0
  -10.7117    8.8873    1.0980 C   0  0  0  0  0  0
   -9.2143    9.1391    1.3896 C   0  0  0  0  0  0
  -11.0207    7.3330    1.0177 C   0  0  0  0  0  0
   -9.8000    6.3693    0.6338 C   0  0  0  0  0  0
   -9.5242    4.9415    1.2768 C   0  0  0  0  0  0
   -8.1599    4.1847    0.7408 C   0  0  0  0  0  0
   -8.4537    2.6913    0.6087 C   0  0  0  0  0  0
   -7.5432    4.7314   -0.6251 C   0  0  0  0  0  0
   -6.3986    5.8720   -0.7117 C   0  0  0  0  0  0
   -6.5575    7.2750   -0.0318 C   0  0  0  0  0  0
   -6.6897    8.5605   -0.9695 C   0  0  0  0  0  0
   -6.9502   10.0249   -0.4384 C   0  0  0  0  0  0
   -7.2310   11.1668   -1.4507 C   0  0  0  0  0  0
   -8.2141   12.3054   -0.9751 C   0  0  0  0  0  0
   -7.7419   13.7476   -1.1983 C   0  0  0  0  0  0
   -6.9406   14.0694   -2.4916 C   0  0  0  0  0  0
   -7.6311   14.0081   -3.8862 C   0  0  0  0  0  0
   -6.7236   14.1607   -5.0988 C   0  0  0  0  0  0
   -8.4706   12.8007   -4.0044 N   0  0  0  0  0  0
   -6.5310   15.4520   -2.3358 O   0  0  0  0  0  0
   -9.4610   12.1248   -1.6550 O   0  0  0  0  0  0
   -5.2427    5.2835   -0.0920 O   0  0  0  0  0  0
   -9.9233    6.1049   -0.7901 O   0  0  0  0  0  0
   -9.9020    7.1793   -1.6211 C   0  0  0  0  0  0
   -9.6377    8.3249   -1.3092 O   0  0  0  0  0  0
  -10.1618    6.7018   -3.0231 C   0  0  0  0  0  0
  -10.1705    7.8494   -4.0456 C   0  0  0  0  0  0
  -11.4027    8.7525   -3.9064 C   0  0  0  0  0  0
  -12.5436    8.0191   -3.2404 C   0  0  0  0  0  0
  -13.2470    7.1946   -3.8143 O   0  0  0  0  0  0
  -12.7158    8.3548   -1.9533 O   0  0  0  0  0  0
   -8.8934    8.6590   -3.7817 C   0  0  0  0  0  0
   -8.8577    9.8795   -3.8197 O   0  0  0  0  0  0
   -7.8033    7.9136   -3.5536 O   0  0  0  0  0  0
  -11.7355    6.8659    2.2305 O   0  0  0  0  0  0
  -13.1142    6.9903    2.2719 C   0  0  0  0  0  0
  -13.7561    7.8327    1.6581 O   0  0  0  0  0  0
  -13.7678    5.9431    3.1832 C   0  0  0  0  0  0
  -12.8095    5.2194    4.1794 C   0  0  0  0  0  0
  -12.8302    5.6621    5.6539 C   0  0  0  0  0  0
  -12.1324    4.6954    6.5664 C   0  0  0  0  0  0
  -12.3556    3.4948    6.6393 O   0  0  0  0  0  0
  -11.1882    5.2862    7.3146 O   0  0  0  0  0  0
  -12.9114    3.6892    4.1645 C   0  0  0  0  0  0
  -13.9042    3.0900    4.5278 O   0  0  0  0  0  0
  -11.8598    3.0438    3.6178 O   0  0  0  0  0  0
   -7.8950   11.9762   -3.8390 H   0  0  0  0  0  0
   -8.7830   12.7137   -4.9741 H   0  0  0  0  0  0
   -6.0992   15.4838   -1.4561 H   0  0  0  0  0  0
  -10.1113   12.7381   -1.2658 H   0  0  0  0  0  0
   -4.4809    5.8610   -0.2668 H   0  0  0  0  0  0
  -13.2924    7.7566   -1.4403 H   0  0  0  0  0  0
   -6.9624    8.4293   -3.4778 H   0  0  0  0  0  0
  -10.7852    4.5827    7.8660 H   0  0  0  0  0  0
  -11.9505    2.0667    3.5610 H   0  0  0  0  0  0
  1  2  1  0  0  0
  2  3  1  0  0  0
  3  4  1  0  0  0
  4  5  1  0  0  0
  5  6  1  0  0  0
  5  7  1  0  0  0
  7  8  1  0  0  0
  7 39  1  0  0  0
  8  9  1  0  0  0
  8 27  1  0  0  0
  9 10  1  0  0  0
 10 11  1  0  0  0
 10 12  1  0  0  0
 12 13  1  0  0  0
 13 14  1  0  0  0
 13 26  1  0  0  0
 14 15  1  0  0  0
 15 16  1  0  0  0
 16 17  1  0  0  0
 17 18  1  0  0  0
 18 19  1  0  0  0
 18 25  1  0  0  0
 19 20  1  0  0  0
 20 21  1  0  0  0
 20 24  1  0  0  0
 21 22  1  0  0  0
 21 23  1  0  0  0
 23 51  1  0  0  0
 23 52  1  0  0  0
 24 53  1  0  0  0
 25 54  1  0  0  0
 26 55  1  0  0  0
 27 28  1  0  0  0
 28 29  2  0  0  0
 28 30  1  0  0  0
 30 31  1  0  0  0
 31 32  1  0  0  0
 31 36  1  0  0  0
 32 33  1  0  0  0
 33 34  2  0  0  0
 33 35  1  0  0  0
 35 56  1  0  0  0
 36 37  2  0  0  0
 36 38  1  0  0  0
 38 57  1  0  0  0
 39 40  1  0  0  0
 40 41  2  0  0  0
 40 42  1  0  0  0
 42 43  1  0  0  0
 43 44  1  0  0  0
 43 48  1  0  0  0
 44 45  1  0  0  0
 45 46  2  0  0  0
 45 47  1  0  0  0
 47 58  1  0  0  0
 48 49  2  0  0  0
 48 50  1  0  0  0
 50 59  1  0  0  0
M  END
>  <AUTHOR>
    GENERATED BY OPEN BABEL 2.4.1

>  <CHROM.1>
-90.15541599,-88.90900381,53.85206844,-146.86064942,140.76005512,85.28290889
-177.65509279,58.72014618,-141.79548557,92.45261215,-54.62889532,-112.64189747
169.45086172,175.79992520,-172.63014525,147.03148638,131.66427668,36.75340789
171.45276414,67.99507044,-172.27414669,52.00971824,-57.00606243,9.02464732
179.50956472,-70.82253326,-23.50721123,-139.92632941,-76.82474077,-165.97165791
173.88310775,-26.95597011,16.39778461,102.66448768,166.04091570,-66.19647480
-52.94527857,-179.44513972,-176.53682738,-9.91739163,8.12235470,0.21241237
2.56566412,-1.10897407,-2.97716079

>  <COMPND>
    UNNAMED

>  <MASTER>
        0    0    0    0    0    0    0    0  109    0  109    0

>  <Name>
FB1.pdb

>  <RI>
0

>  <Rbt.Current_Directory>
/home/fc/tossine/FB1_39/p3/2_clust01

>  <Rbt.Executable>
rbdock/0.1.0

>  <Rbt.Library>
librxdock.so/0.1.0

>  <Rbt.Parameter_File>
/cluster/rxdock/data/scripts/dock.prm

>  <Rbt.Receptor>
rx_3.prm

>  <SCORE>
32.1359

>  <SCORE.INTER>
5.99288

>  <SCORE.INTER.CONST>
1

>  <SCORE.INTER.POLAR>
-2.16391

>  <SCORE.INTER.REPUL>
0.0740365

>  <SCORE.INTER.ROT>
32

>  <SCORE.INTER.VDW>
-24.42

>  <SCORE.INTER.norm>
0.119858

>  <SCORE.INTRA>
22.7572

>  <SCORE.INTRA.DIHEDRAL>
25.5515

>  <SCORE.INTRA.DIHEDRAL.0>
47.3121

>  <SCORE.INTRA.POLAR>
1.25699

>  <SCORE.INTRA.POLAR.0>
-1.47808

>  <SCORE.INTRA.REPUL>
0.337389

>  <SCORE.INTRA.REPUL.0>
0

>  <SCORE.INTRA.VDW>
4.02079

>  <SCORE.INTRA.VDW.0>
-2.78316

>  <SCORE.INTRA.norm>
0.455145

>  <SCORE.RESTR>
3.38584

>  <SCORE.RESTR.CAVITY>
3.38584

>  <SCORE.RESTR.norm>
0.0677167

>  <SCORE.SYSTEM>
0

>  <SCORE.SYSTEM.CONST>
0

>  <SCORE.SYSTEM.DIHEDRAL>
0

>  <SCORE.SYSTEM.norm>
0

>  <SCORE.heavy>
50

>  <SCORE.norm>
0.642719

$$$$
