FB1.pdb
  RxDock  10072010513D
librxdock.so/0.1.0
 59 58  0  0  0  0  0  0  0  0999 V2000
  -10.1082   11.2621    2.6771 C   0  0  0  0  0  0
  -11.3704   10.4347    2.4451 C   0  0  0  0  0  0
  -11.8870   10.5762    1.0038 C   0  0  0  0  0  0
  -13.0063    9.5664    0.6471 C   0  0  0  0  0  0
  -13.5750    9.6963   -0.8090 C   0  0  0  0  0  0
  -14.3017   11.0560   -0.9269 C   0  0  0  0  0  0
  -12.4691    9.5443   -1.9367 C   0  0  0  0  0  0
  -11.1664   10.4672   -1.8047 C   0  0  0  0  0  0
   -9.8994   10.4042   -2.7634 C   0  0  0  0  0  0
   -8.4810   10.8987   -2.0815 C   0  0  0  0  0  0
   -8.0284    9.8376   -1.0798 C   0  0  0  0  0  0
   -7.2902   11.2225   -3.0924 C   0  0  0  0  0  0
   -6.8757   12.7159   -3.5580 C   0  0  0  0  0  0
   -7.9036   13.7131   -4.1945 C   0  0  0  0  0  0
   -7.3393   14.9712   -4.9994 C   0  0  0  0  0  0
   -6.4001   14.8679   -6.2651 C   0  0  0  0  0  0
   -5.6611   16.1337   -6.7741 C   0  0  0  0  0  0
   -4.7130   16.8597   -5.7430 C   0  0  0  0  0  0
   -3.6143   17.7484   -6.3393 C   0  0  0  0  0  0
   -2.5643   17.0917   -7.2798 C   0  0  0  0  0  0
   -2.9634   16.6326   -8.7134 C   0  0  0  0  0  0
   -3.3993   17.7263   -9.6783 C   0  0  0  0  0  0
   -1.9066   15.7936   -9.3098 N   0  0  0  0  0  0
   -1.5583   18.1172   -7.4804 O   0  0  0  0  0  0
   -5.5286   17.6612   -4.8815 O   0  0  0  0  0  0
   -6.4181   13.3632   -2.3588 O   0  0  0  0  0  0
  -11.6292   11.8409   -1.9100 O   0  0  0  0  0  0
  -10.6824   12.8146   -1.8833 C   0  0  0  0  0  0
  -10.3679   13.5378   -2.8092 O   0  0  0  0  0  0
  -10.1508   12.9232   -0.4808 C   0  0  0  0  0  0
   -9.7675   14.3634   -0.1046 C   0  0  0  0  0  0
  -10.9901   15.2776    0.0465 C   0  0  0  0  0  0
  -10.5749   16.7224    0.1991 C   0  0  0  0  0  0
   -9.4449   17.0730    0.5217 O   0  0  0  0  0  0
  -11.5638   17.5923   -0.0545 O   0  0  0  0  0  0
   -9.0170   14.2650    1.2307 C   0  0  0  0  0  0
   -9.3144   14.9272    2.2133 O   0  0  0  0  0  0
   -7.9722   13.4258    1.2175 O   0  0  0  0  0  0
  -12.1193    8.1196   -2.1550 O   0  0  0  0  0  0
  -11.3087    7.4900   -1.2251 C   0  0  0  0  0  0
  -10.8162    8.0370   -0.2470 O   0  0  0  0  0  0
  -11.0872    6.0074   -1.5523 C   0  0  0  0  0  0
  -11.0537    5.0411   -0.3277 C   0  0  0  0  0  0
  -10.6121    3.5857   -0.5666 C   0  0  0  0  0  0
   -9.2183    3.4780   -1.1147 C   0  0  0  0  0  0
   -8.2071    3.2729   -0.4576 O   0  0  0  0  0  0
   -9.1797    3.6141   -2.4490 O   0  0  0  0  0  0
  -10.2589    5.5639    0.8754 C   0  0  0  0  0  0
  -10.7146    5.6025    2.0013 O   0  0  0  0  0  0
   -8.9718    5.8830    0.6251 O   0  0  0  0  0  0
   -1.0387   16.3264   -9.3476 H   0  0  0  0  0  0
   -2.1466   15.6115  -10.2869 H   0  0  0  0  0  0
   -0.8325   17.6610   -7.9563 H   0  0  0  0  0  0
   -6.0647   18.2564   -5.4373 H   0  0  0  0  0  0
   -7.1770   13.4557   -1.7587 H   0  0  0  0  0  0
  -12.4175   17.1907   -0.3062 H   0  0  0  0  0  0
   -7.5692   13.2587    2.1054 H   0  0  0  0  0  0
   -8.2376    3.5447   -2.7117 H   0  0  0  0  0  0
   -8.4739    6.2493    1.3894 H   0  0  0  0  0  0
  1  2  1  0  0  0
  2  3  1  0  0  0
  3  4  1  0  0  0
  4  5  1  0  0  0
  5  6  1  0  0  0
  5  7  1  0  0  0
  7  8  1  0  0  0
  7 39  1  0  0  0
  8  9  1  0  0  0
  8 27  1  0  0  0
  9 10  1  0  0  0
 10 11  1  0  0  0
 10 12  1  0  0  0
 12 13  1  0  0  0
 13 14  1  0  0  0
 13 26  1  0  0  0
 14 15  1  0  0  0
 15 16  1  0  0  0
 16 17  1  0  0  0
 17 18  1  0  0  0
 18 19  1  0  0  0
 18 25  1  0  0  0
 19 20  1  0  0  0
 20 21  1  0  0  0
 20 24  1  0  0  0
 21 22  1  0  0  0
 21 23  1  0  0  0
 23 51  1  0  0  0
 23 52  1  0  0  0
 24 53  1  0  0  0
 25 54  1  0  0  0
 26 55  1  0  0  0
 27 28  1  0  0  0
 28 29  2  0  0  0
 28 30  1  0  0  0
 30 31  1  0  0  0
 31 32  1  0  0  0
 31 36  1  0  0  0
 32 33  1  0  0  0
 33 34  2  0  0  0
 33 35  1  0  0  0
 35 56  1  0  0  0
 36 37  2  0  0  0
 36 38  1  0  0  0
 38 57  1  0  0  0
 39 40  1  0  0  0
 40 41  2  0  0  0
 40 42  1  0  0  0
 42 43  1  0  0  0
 43 44  1  0  0  0
 43 48  1  0  0  0
 44 45  1  0  0  0
 45 46  2  0  0  0
 45 47  1  0  0  0
 47 58  1  0  0  0
 48 49  2  0  0  0
 48 50  1  0  0  0
 50 59  1  0  0  0
M  END
>  <AUTHOR>
    GENERATED BY OPEN BABEL 2.4.1

>  <CHROM.1>
169.57516294,179.04202145,-66.11527212,-51.89838992,175.58834517,-76.06689095
-153.34775766,-177.23672844,71.93384999,100.13316958,-54.71302258,-162.42548982
-66.30106852,59.16301384,-166.43952135,57.61447214,157.96732584,-60.07166712
-55.00278074,71.75361381,63.88001169,171.54865757,-58.97206758,111.74913644
-146.30242277,69.80936817,-171.03217659,-127.81858944,-18.30465403,-0.21281427
-171.45733914,-2.54039675,-141.93361005,-170.34658851,60.05408708,128.32880696
96.48204307,179.11294067,177.80943208,-8.82086653,11.81048503,-2.07465893
2.34746029,-0.81944164,-3.08639682

>  <COMPND>
    UNNAMED

>  <MASTER>
        0    0    0    0    0    0    0    0  109    0  109    0

>  <Name>
FB1.pdb

>  <RI>
0

>  <Rbt.Current_Directory>
/home/fc/tossine/FB1_39/p3/2_clust01

>  <Rbt.Executable>
rbdock/0.1.0

>  <Rbt.Library>
librxdock.so/0.1.0

>  <Rbt.Parameter_File>
/cluster/rxdock/data/scripts/dock.prm

>  <Rbt.Receptor>
rx_0.prm

>  <SCORE>
7.37013

>  <SCORE.INTER>
1.18022

>  <SCORE.INTER.CONST>
1

>  <SCORE.INTER.POLAR>
-3.1595

>  <SCORE.INTER.REPUL>
0.762542

>  <SCORE.INTER.ROT>
32

>  <SCORE.INTER.VDW>
-29.2902

>  <SCORE.INTER.norm>
0.0236043

>  <SCORE.INTRA>
6.16555

>  <SCORE.INTRA.DIHEDRAL>
2.0735

>  <SCORE.INTRA.DIHEDRAL.0>
47.3121

>  <SCORE.INTRA.POLAR>
1.47808

>  <SCORE.INTRA.POLAR.0>
-1.47808

>  <SCORE.INTRA.REPUL>
0

>  <SCORE.INTRA.REPUL.0>
0

>  <SCORE.INTRA.VDW>
0.103343

>  <SCORE.INTRA.VDW.0>
-2.78316

>  <SCORE.INTRA.norm>
0.123311

>  <SCORE.RESTR>
0.0243593

>  <SCORE.RESTR.CAVITY>
0.0243593

>  <SCORE.RESTR.norm>
0.000487186

>  <SCORE.SYSTEM>
0

>  <SCORE.SYSTEM.CONST>
0

>  <SCORE.SYSTEM.DIHEDRAL>
0

>  <SCORE.SYSTEM.norm>
0

>  <SCORE.heavy>
50

>  <SCORE.norm>
0.147403

$$$$
