FB1.pdb
  RxDock  10072014073D
librxdock.so/0.1.0
 59 58  0  0  0  0  0  0  0  0999 V2000
    9.0589   -0.5061   -1.5480 C   0  0  0  0  0  0
   10.4041    0.0906   -1.9549 C   0  0  0  0  0  0
   10.6767    1.4227   -1.2368 C   0  0  0  0  0  0
   11.3364    1.2506    0.1542 C   0  0  0  0  0  0
   10.7326    2.1503    1.2885 C   0  0  0  0  0  0
   10.6865    3.6091    0.7782 C   0  0  0  0  0  0
    9.3003    1.6750    1.7788 C   0  0  0  0  0  0
    8.6259    2.5109    2.9674 C   0  0  0  0  0  0
    7.2772    2.1175    3.7120 C   0  0  0  0  0  0
    6.5812    3.3310    4.5861 C   0  0  0  0  0  0
    5.5493    4.0332    3.7051 C   0  0  0  0  0  0
    5.9044    2.9045    5.9663 C   0  0  0  0  0  0
    4.3221    3.0338    6.2795 C   0  0  0  0  0  0
    3.2618    2.0555    5.6673 C   0  0  0  0  0  0
    3.2378    1.8597    4.0829 C   0  0  0  0  0  0
    2.4624    0.6999    3.3425 C   0  0  0  0  0  0
    2.8175    0.3610    1.8706 C   0  0  0  0  0  0
    1.8685   -0.6611    1.1332 C   0  0  0  0  0  0
    1.9180   -2.1123    1.6274 C   0  0  0  0  0  0
    1.2061   -3.2046    0.7798 C   0  0  0  0  0  0
    1.8590   -3.7419   -0.5280 C   0  0  0  0  0  0
    0.9868   -4.6285   -1.4059 C   0  0  0  0  0  0
    2.4485   -2.6400   -1.3122 N   0  0  0  0  0  0
    1.1231   -4.3557    1.6584 O   0  0  0  0  0  0
    0.5243   -0.1841    1.2570 O   0  0  0  0  0  0
    4.2119    2.8638    7.7027 O   0  0  0  0  0  0
    9.6163    2.5792    4.0290 O   0  0  0  0  0  0
   10.2245    3.7772    4.2290 C   0  0  0  0  0  0
   10.7065    4.4915    3.3706 O   0  0  0  0  0  0
   10.1150    4.1291    5.6869 C   0  0  0  0  0  0
   10.3766    5.6196    5.9558 C   0  0  0  0  0  0
    9.2870    6.5242    5.3661 C   0  0  0  0  0  0
    9.8864    7.7609    4.7377 C   0  0  0  0  0  0
    9.5198    8.9011    5.0010 O   0  0  0  0  0  0
   10.8648    7.4937    3.8602 O   0  0  0  0  0  0
   10.4166    5.7722    7.4826 C   0  0  0  0  0  0
    9.8873    4.9790    8.2462 O   0  0  0  0  0  0
   11.0400    6.8782    7.9117 O   0  0  0  0  0  0
    8.3751    1.4945    0.6337 O   0  0  0  0  0  0
    7.2943    0.6423    0.7877 C   0  0  0  0  0  0
    7.0637   -0.0150    1.7942 O   0  0  0  0  0  0
    6.3973    0.6062   -0.4567 C   0  0  0  0  0  0
    5.0499   -0.1646   -0.2983 C   0  0  0  0  0  0
    4.0493   -0.1199   -1.4676 C   0  0  0  0  0  0
    4.6705   -0.4835   -2.7854 C   0  0  0  0  0  0
    5.6885   -1.1450   -2.9361 O   0  0  0  0  0  0
    3.9703   -0.0145   -3.8295 O   0  0  0  0  0  0
    5.2007   -1.6344    0.1128 C   0  0  0  0  0  0
    4.9983   -2.0275    1.2447 O   0  0  0  0  0  0
    5.4715   -2.4926   -0.8930 O   0  0  0  0  0  0
    2.0217   -2.6229   -2.2374 H   0  0  0  0  0  0
    3.4348   -2.8504   -1.4809 H   0  0  0  0  0  0
    0.4669   -4.0989    2.3401 H   0  0  0  0  0  0
   -0.0514   -0.7521    0.7125 H   0  0  0  0  0  0
    4.3032    1.9166    7.9003 H   0  0  0  0  0  0
   11.1243    6.5544    3.7988 H   0  0  0  0  0  0
   11.7742    7.1886    7.3257 H   0  0  0  0  0  0
    3.3132    0.6164   -3.4670 H   0  0  0  0  0  0
    5.9928   -2.1164   -1.6366 H   0  0  0  0  0  0
  1  2  1  0  0  0
  2  3  1  0  0  0
  3  4  1  0  0  0
  4  5  1  0  0  0
  5  6  1  0  0  0
  5  7  1  0  0  0
  7  8  1  0  0  0
  7 39  1  0  0  0
  8  9  1  0  0  0
  8 27  1  0  0  0
  9 10  1  0  0  0
 10 11  1  0  0  0
 10 12  1  0  0  0
 12 13  1  0  0  0
 13 14  1  0  0  0
 13 26  1  0  0  0
 14 15  1  0  0  0
 15 16  1  0  0  0
 16 17  1  0  0  0
 17 18  1  0  0  0
 18 19  1  0  0  0
 18 25  1  0  0  0
 19 20  1  0  0  0
 20 21  1  0  0  0
 20 24  1  0  0  0
 21 22  1  0  0  0
 21 23  1  0  0  0
 23 51  1  0  0  0
 23 52  1  0  0  0
 24 53  1  0  0  0
 25 54  1  0  0  0
 26 55  1  0  0  0
 27 28  1  0  0  0
 28 29  2  0  0  0
 28 30  1  0  0  0
 30 31  1  0  0  0
 31 32  1  0  0  0
 31 36  1  0  0  0
 32 33  1  0  0  0
 33 34  2  0  0  0
 33 35  1  0  0  0
 35 56  1  0  0  0
 36 37  2  0  0  0
 36 38  1  0  0  0
 38 57  1  0  0  0
 39 40  1  0  0  0
 40 41  2  0  0  0
 40 42  1  0  0  0
 42 43  1  0  0  0
 43 44  1  0  0  0
 43 48  1  0  0  0
 44 45  1  0  0  0
 45 46  2  0  0  0
 45 47  1  0  0  0
 47 58  1  0  0  0
 48 49  2  0  0  0
 48 50  1  0  0  0
 50 59  1  0  0  0
M  END
>  <AUTHOR>
    GENERATED BY OPEN BABEL 2.4.1

>  <CHROM.1>
86.28607642,-136.00383737,-50.61163962,178.22189469,-173.07753282,156.34927917
-163.62734459,107.27125875,93.63724617,-116.07946539,74.67659609,-53.56264602
-76.79149221,166.19811868,-162.87151223,-171.51029846,-68.82165910,-169.10704880
173.21025586,76.92276315,-169.98995142,69.99778948,-121.73373932,-47.38414085
-162.58540472,67.20367632,-138.99948076,-22.52311607,-128.01845915,-5.50981829
-31.10569342,-2.47734022,-171.50824202,174.22187160,51.11219965,103.03729920
22.49938916,11.52043244,30.91327780,6.54502035,1.53618159,2.19344945,-2.27639264
0.44278581,1.00018008

>  <COMPND>
    UNNAMED

>  <MASTER>
        0    0    0    0    0    0    0    0  109    0  109    0

>  <Name>
FB1.pdb

>  <RI>
0

>  <Rbt.Current_Directory>
/home/fc/tossine/FB1_39/p3/2_clust01

>  <Rbt.Executable>
rbdock/0.1.0

>  <Rbt.Library>
librxdock.so/0.1.0

>  <Rbt.Parameter_File>
/cluster/rxdock/data/scripts/dock.prm

>  <Rbt.Receptor>
rx_4.prm

>  <SCORE>
25.9773

>  <SCORE.INTER>
7.25763

>  <SCORE.INTER.CONST>
1

>  <SCORE.INTER.POLAR>
-0.833021

>  <SCORE.INTER.REPUL>
0.00564758

>  <SCORE.INTER.ROT>
32

>  <SCORE.INTER.VDW>
-27.3383

>  <SCORE.INTER.norm>
0.145153

>  <SCORE.INTRA>
14.8397

>  <SCORE.INTRA.DIHEDRAL>
29.4185

>  <SCORE.INTRA.DIHEDRAL.0>
47.3121

>  <SCORE.INTRA.POLAR>
-0.710357

>  <SCORE.INTRA.POLAR.0>
-1.47808

>  <SCORE.INTRA.REPUL>
0

>  <SCORE.INTRA.REPUL.0>
0

>  <SCORE.INTRA.VDW>
2.54572

>  <SCORE.INTRA.VDW.0>
-2.78316

>  <SCORE.INTRA.norm>
0.296795

>  <SCORE.RESTR>
3.87991

>  <SCORE.RESTR.CAVITY>
3.87991

>  <SCORE.RESTR.norm>
0.0775982

>  <SCORE.SYSTEM>
0

>  <SCORE.SYSTEM.CONST>
0

>  <SCORE.SYSTEM.DIHEDRAL>
0

>  <SCORE.SYSTEM.norm>
0

>  <SCORE.heavy>
50

>  <SCORE.norm>
0.519546

$$$$
