FB1.pdb
  RxDock  10072013323D
librxdock.so/0.1.0
 59 58  0  0  0  0  0  0  0  0999 V2000
    6.1986    2.6291    5.7035 C   0  0  0  0  0  0
    6.7089    2.9657    4.3043 C   0  0  0  0  0  0
    6.0233    2.1094    3.2269 C   0  0  0  0  0  0
    6.2062    2.6609    1.7909 C   0  0  0  0  0  0
    5.2043    2.0870    0.7292 C   0  0  0  0  0  0
    5.5953    2.6450   -0.6588 C   0  0  0  0  0  0
    5.1446    0.5015    0.7070 C   0  0  0  0  0  0
    3.7458   -0.1665    0.3030 C   0  0  0  0  0  0
    2.9945    0.0501   -1.0816 C   0  0  0  0  0  0
    1.5600    0.8583   -0.9800 C   0  0  0  0  0  0
    1.8190    2.2302   -0.3598 C   0  0  0  0  0  0
    0.7528    1.0321   -2.3450 C   0  0  0  0  0  0
   -0.7823    1.5365   -2.4337 C   0  0  0  0  0  0
   -1.5211    2.1971   -1.2196 C   0  0  0  0  0  0
   -2.7008    3.2296   -1.5217 C   0  0  0  0  0  0
   -3.5538    3.9551   -0.4078 C   0  0  0  0  0  0
   -3.5504    5.5047   -0.3303 C   0  0  0  0  0  0
   -4.4845    6.2642   -1.3500 C   0  0  0  0  0  0
   -5.8211    5.5882   -1.6802 C   0  0  0  0  0  0
   -6.8092    6.3301   -2.6244 C   0  0  0  0  0  0
   -8.0238    5.5796   -3.2464 C   0  0  0  0  0  0
   -9.2924    6.3960   -3.4506 C   0  0  0  0  0  0
   -7.6342    4.8904   -4.4913 N   0  0  0  0  0  0
   -7.3931    7.3713   -1.8005 O   0  0  0  0  0  0
   -4.7525    7.5661   -0.8182 O   0  0  0  0  0  0
   -0.7829    2.5391   -3.4639 O   0  0  0  0  0  0
    3.9435   -1.6041    0.3841 O   0  0  0  0  0  0
    2.9046   -2.3442    0.8513 C   0  0  0  0  0  0
    1.9217   -2.6833    0.2203 O   0  0  0  0  0  0
    3.2170   -2.7666    2.2604 C   0  0  0  0  0  0
    2.5694   -1.8484    3.3092 C   0  0  0  0  0  0
    3.2333   -0.4668    3.3723 C   0  0  0  0  0  0
    2.8611    0.2593    4.6441 C   0  0  0  0  0  0
    3.5529    1.1348    5.1526 O   0  0  0  0  0  0
    1.6944   -0.1446    5.1680 O   0  0  0  0  0  0
    1.0985   -1.7058    2.8944 C   0  0  0  0  0  0
    0.6680   -0.7380    2.2857 O   0  0  0  0  0  0
    0.3099   -2.7110    3.2989 O   0  0  0  0  0  0
    6.2744   -0.0661   -0.0684 O   0  0  0  0  0  0
    7.4417   -0.3851    0.6053 C   0  0  0  0  0  0
    7.5828   -1.3614    1.3301 O   0  0  0  0  0  0
    8.5623    0.6300    0.3444 C   0  0  0  0  0  0
    9.2273    1.2461    1.6144 C   0  0  0  0  0  0
   10.5908    0.6872    2.0603 C   0  0  0  0  0  0
   10.9801    1.1243    3.4430 C   0  0  0  0  0  0
   10.2137    1.5338    4.3041 O   0  0  0  0  0  0
   12.2975    1.0038    3.6674 O   0  0  0  0  0  0
    9.3497    2.7748    1.5920 C   0  0  0  0  0  0
    9.0741    3.4733    2.5474 O   0  0  0  0  0  0
    9.8892    3.2964    0.4704 O   0  0  0  0  0  0
   -7.6918    3.8832   -4.3476 H   0  0  0  0  0  0
   -6.6446    5.0748   -4.6707 H   0  0  0  0  0  0
   -6.6376    7.7385   -1.2947 H   0  0  0  0  0  0
   -3.9083    8.0501   -0.7588 H   0  0  0  0  0  0
   -1.6357    2.4932   -3.9277 H   0  0  0  0  0  0
    1.3788    0.3749    5.9322 H   0  0  0  0  0  0
   -0.6120   -2.6783    2.9414 H   0  0  0  0  0  0
   12.7008    0.7091    2.8237 H   0  0  0  0  0  0
    9.8575    4.2768    0.4061 H   0  0  0  0  0  0
  1  2  1  0  0  0
  2  3  1  0  0  0
  3  4  1  0  0  0
  4  5  1  0  0  0
  5  6  1  0  0  0
  5  7  1  0  0  0
  7  8  1  0  0  0
  7 39  1  0  0  0
  8  9  1  0  0  0
  8 27  1  0  0  0
  9 10  1  0  0  0
 10 11  1  0  0  0
 10 12  1  0  0  0
 12 13  1  0  0  0
 13 14  1  0  0  0
 13 26  1  0  0  0
 14 15  1  0  0  0
 15 16  1  0  0  0
 16 17  1  0  0  0
 17 18  1  0  0  0
 18 19  1  0  0  0
 18 25  1  0  0  0
 19 20  1  0  0  0
 20 21  1  0  0  0
 20 24  1  0  0  0
 21 22  1  0  0  0
 21 23  1  0  0  0
 23 51  1  0  0  0
 23 52  1  0  0  0
 24 53  1  0  0  0
 25 54  1  0  0  0
 26 55  1  0  0  0
 27 28  1  0  0  0
 28 29  2  0  0  0
 28 30  1  0  0  0
 30 31  1  0  0  0
 31 32  1  0  0  0
 31 36  1  0  0  0
 32 33  1  0  0  0
 33 34  2  0  0  0
 33 35  1  0  0  0
 35 56  1  0  0  0
 36 37  2  0  0  0
 36 38  1  0  0  0
 38 57  1  0  0  0
 39 40  1  0  0  0
 40 41  2  0  0  0
 40 42  1  0  0  0
 42 43  1  0  0  0
 43 44  1  0  0  0
 43 48  1  0  0  0
 44 45  1  0  0  0
 45 46  2  0  0  0
 45 47  1  0  0  0
 47 58  1  0  0  0
 48 49  2  0  0  0
 48 50  1  0  0  0
 50 59  1  0  0  0
M  END
>  <AUTHOR>
    GENERATED BY OPEN BABEL 2.4.1

>  <CHROM.1>
164.21441615,-162.88902344,-175.36871371,148.94518882,59.79279813,91.38899186
-113.51572783,142.78525718,58.71406766,168.03944121,13.69345979,152.39932976
146.27956436,178.86786657,119.80564274,79.98563375,35.73330150,176.97466335
63.06139960,166.40992336,146.16489830,42.71692976,113.16596168,79.43363016
97.20543840,-71.40394386,-163.72386908,-99.41117917,155.08319812,-173.37216331
-172.94264166,74.99485072,126.78852418,101.12943777,-166.88895825,135.47313366
20.52502699,3.97317745,172.18914591,2.45929829,1.76986327,0.76947325,-0.38367601
-0.20136956,-0.36987108

>  <COMPND>
    UNNAMED

>  <MASTER>
        0    0    0    0    0    0    0    0  109    0  109    0

>  <Name>
FB1.pdb

>  <RI>
0

>  <Rbt.Current_Directory>
/home/fc/tossine/FB1_39/p3/2_clust01

>  <Rbt.Executable>
rbdock/0.1.0

>  <Rbt.Library>
librxdock.so/0.1.0

>  <Rbt.Parameter_File>
/cluster/rxdock/data/scripts/dock.prm

>  <Rbt.Receptor>
rx_3.prm

>  <SCORE>
29.0061

>  <SCORE.INTER>
-5.47104

>  <SCORE.INTER.CONST>
1

>  <SCORE.INTER.POLAR>
-5.40411

>  <SCORE.INTER.REPUL>
0.938355

>  <SCORE.INTER.ROT>
32

>  <SCORE.INTER.VDW>
-29.1888

>  <SCORE.INTER.norm>
-0.109421

>  <SCORE.INTRA>
32.6854

>  <SCORE.INTRA.DIHEDRAL>
65.6826

>  <SCORE.INTRA.DIHEDRAL.0>
47.3121

>  <SCORE.INTRA.POLAR>
0.541629

>  <SCORE.INTRA.POLAR.0>
-1.47808

>  <SCORE.INTRA.REPUL>
0

>  <SCORE.INTRA.REPUL.0>
0

>  <SCORE.INTRA.VDW>
-1.99745

>  <SCORE.INTRA.VDW.0>
-2.78316

>  <SCORE.INTRA.norm>
0.653708

>  <SCORE.RESTR>
1.79181

>  <SCORE.RESTR.CAVITY>
1.79181

>  <SCORE.RESTR.norm>
0.0358361

>  <SCORE.SYSTEM>
0

>  <SCORE.SYSTEM.CONST>
0

>  <SCORE.SYSTEM.DIHEDRAL>
0

>  <SCORE.SYSTEM.norm>
0

>  <SCORE.heavy>
50

>  <SCORE.norm>
0.580123

$$$$
