FB1.pdb
  RxDock  10072014093D
librxdock.so/0.1.0
 59 58  0  0  0  0  0  0  0  0999 V2000
    3.7600   -3.7258    3.3959 C   0  0  0  0  0  0
    2.6575   -2.8440    3.9774 C   0  0  0  0  0  0
    3.1352   -1.3972    4.1842 C   0  0  0  0  0  0
    3.3291   -0.6157    2.8608 C   0  0  0  0  0  0
    4.7090    0.1170    2.7213 C   0  0  0  0  0  0
    5.7910   -0.9415    2.4060 C   0  0  0  0  0  0
    4.7069    1.2688    1.6299 C   0  0  0  0  0  0
    3.8121    1.0287    0.3231 C   0  0  0  0  0  0
    2.2433    0.7694    0.3233 C   0  0  0  0  0  0
    1.3728    1.7457   -0.6819 C   0  0  0  0  0  0
    0.9541    0.9323   -1.9055 C   0  0  0  0  0  0
    0.0914    2.4490   -0.0430 C   0  0  0  0  0  0
   -1.3414    2.5712   -0.7851 C   0  0  0  0  0  0
   -1.4994    2.4197   -2.3370 C   0  0  0  0  0  0
   -2.9322    2.6999   -2.9833 C   0  0  0  0  0  0
   -4.2762    2.0347   -2.4875 C   0  0  0  0  0  0
   -5.3768    2.9208   -1.8464 C   0  0  0  0  0  0
   -6.0582    3.9896   -2.7859 C   0  0  0  0  0  0
   -7.0052    4.9864   -2.1061 C   0  0  0  0  0  0
   -8.1617    4.4253   -1.2309 C   0  0  0  0  0  0
   -8.8449    5.3195   -0.1543 C   0  0  0  0  0  0
   -9.8380    4.6284    0.7696 C   0  0  0  0  0  0
   -7.8389    6.0709    0.6202 N   0  0  0  0  0  0
   -9.2146    4.1038   -2.1752 O   0  0  0  0  0  0
   -5.0207    4.7244   -3.4442 O   0  0  0  0  0  0
   -2.1403    1.5170   -0.2220 O   0  0  0  0  0  0
    3.9816    2.2089   -0.5080 O   0  0  0  0  0  0
    5.1909    2.3753   -1.1039 C   0  0  0  0  0  0
    5.7898    3.4258   -1.2352 O   0  0  0  0  0  0
    5.7218    1.0221   -1.4893 C   0  0  0  0  0  0
    6.7327    0.4724   -0.4703 C   0  0  0  0  0  0
    7.5673   -0.6846   -1.0345 C   0  0  0  0  0  0
    6.6954   -1.8717   -1.3719 C   0  0  0  0  0  0
    5.8967   -1.8839   -2.3023 O   0  0  0  0  0  0
    6.8788   -2.9190   -0.5544 O   0  0  0  0  0  0
    7.6468    1.6503   -0.1055 C   0  0  0  0  0  0
    8.6893    1.8929   -0.6944 O   0  0  0  0  0  0
    7.2321    2.3663    0.9488 O   0  0  0  0  0  0
    4.4424    2.5911    2.2475 O   0  0  0  0  0  0
    3.4394    2.6859    3.1979 C   0  0  0  0  0  0
    2.2872    3.0254    2.9627 O   0  0  0  0  0  0
    3.9299    2.3137    4.6033 C   0  0  0  0  0  0
    5.1103    3.1702    5.1578 C   0  0  0  0  0  0
    5.8268    2.6778    6.4284 C   0  0  0  0  0  0
    5.4742    3.4789    7.6484 C   0  0  0  0  0  0
    6.2718    3.9536    8.4454 O   0  0  0  0  0  0
    4.1506    3.6519    7.7838 O   0  0  0  0  0  0
    6.1953    3.5040    4.1265 C   0  0  0  0  0  0
    6.3021    4.5994    3.6114 O   0  0  0  0  0  0
    7.1005    2.5286    3.9015 O   0  0  0  0  0  0
   -8.3025    6.5581    1.3859 H   0  0  0  0  0  0
   -7.4581    6.8125    0.0283 H   0  0  0  0  0  0
   -9.4667    4.9666   -2.5668 H   0  0  0  0  0  0
   -4.5173    5.2129   -2.7670 H   0  0  0  0  0  0
   -1.7029    0.6713   -0.4168 H   0  0  0  0  0  0
    7.6858   -2.8829   -0.0058 H   0  0  0  0  0  0
    7.8404    3.1014    1.2100 H   0  0  0  0  0  0
    4.0147    4.1346    8.6264 H   0  0  0  0  0  0
    6.9009    1.6647    4.3258 H   0  0  0  0  0  0
  1  2  1  0  0  0
  2  3  1  0  0  0
  3  4  1  0  0  0
  4  5  1  0  0  0
  5  6  1  0  0  0
  5  7  1  0  0  0
  7  8  1  0  0  0
  7 39  1  0  0  0
  8  9  1  0  0  0
  8 27  1  0  0  0
  9 10  1  0  0  0
 10 11  1  0  0  0
 10 12  1  0  0  0
 12 13  1  0  0  0
 13 14  1  0  0  0
 13 26  1  0  0  0
 14 15  1  0  0  0
 15 16  1  0  0  0
 16 17  1  0  0  0
 17 18  1  0  0  0
 18 19  1  0  0  0
 18 25  1  0  0  0
 19 20  1  0  0  0
 20 21  1  0  0  0
 20 24  1  0  0  0
 21 22  1  0  0  0
 21 23  1  0  0  0
 23 51  1  0  0  0
 23 52  1  0  0  0
 24 53  1  0  0  0
 25 54  1  0  0  0
 26 55  1  0  0  0
 27 28  1  0  0  0
 28 29  2  0  0  0
 28 30  1  0  0  0
 30 31  1  0  0  0
 31 32  1  0  0  0
 31 36  1  0  0  0
 32 33  1  0  0  0
 33 34  2  0  0  0
 33 35  1  0  0  0
 35 56  1  0  0  0
 36 37  2  0  0  0
 36 38  1  0  0  0
 38 57  1  0  0  0
 39 40  1  0  0  0
 40 41  2  0  0  0
 40 42  1  0  0  0
 42 43  1  0  0  0
 43 44  1  0  0  0
 43 48  1  0  0  0
 44 45  1  0  0  0
 45 46  2  0  0  0
 45 47  1  0  0  0
 47 58  1  0  0  0
 48 49  2  0  0  0
 48 50  1  0  0  0
 50 59  1  0  0  0
M  END
>  <AUTHOR>
    GENERATED BY OPEN BABEL 2.4.1

>  <CHROM.1>
71.37901337,-129.83822784,75.46954937,-34.99447327,58.78731533,-43.68390912
128.30445449,70.55323606,105.01527431,-137.06911909,-19.48933406,-174.08093338
-60.54777888,-51.68406182,113.97515560,65.31038148,-172.01669988,-53.60342802
-64.19616099,159.32632013,-172.32484137,-63.69578067,-173.26222927,-140.19866070
-98.49634055,-163.51316921,-63.44473844,-91.46483926,69.87929746,-14.98727664
177.43836282,-95.11530831,58.79279610,-168.16114858,-105.73950014,104.00723479
-130.85282744,176.73217495,8.10112587,1.89552664,1.96776137,0.96865021,-0.19000198
0.31801599,-1.94721898

>  <COMPND>
    UNNAMED

>  <MASTER>
        0    0    0    0    0    0    0    0  109    0  109    0

>  <Name>
FB1.pdb

>  <RI>
0

>  <Rbt.Current_Directory>
/home/fc/tossine/FB1_39/p3/2_clust01

>  <Rbt.Executable>
rbdock/0.1.0

>  <Rbt.Library>
librxdock.so/0.1.0

>  <Rbt.Parameter_File>
/cluster/rxdock/data/scripts/dock.prm

>  <Rbt.Receptor>
rx_4.prm

>  <SCORE>
44.4957

>  <SCORE.INTER>
10.2003

>  <SCORE.INTER.CONST>
1

>  <SCORE.INTER.POLAR>
-2.41899

>  <SCORE.INTER.REPUL>
0.561092

>  <SCORE.INTER.ROT>
32

>  <SCORE.INTER.VDW>
-21.7806

>  <SCORE.INTER.norm>
0.204007

>  <SCORE.INTRA>
33.0459

>  <SCORE.INTRA.DIHEDRAL>
45.1865

>  <SCORE.INTRA.DIHEDRAL.0>
47.3121

>  <SCORE.INTRA.POLAR>
1.47808

>  <SCORE.INTRA.POLAR.0>
-1.47808

>  <SCORE.INTRA.REPUL>
0.0353548

>  <SCORE.INTRA.REPUL.0>
0

>  <SCORE.INTRA.VDW>
5.25037

>  <SCORE.INTRA.VDW.0>
-2.78316

>  <SCORE.INTRA.norm>
0.660917

>  <SCORE.RESTR>
1.24945

>  <SCORE.RESTR.CAVITY>
1.24945

>  <SCORE.RESTR.norm>
0.0249891

>  <SCORE.SYSTEM>
0

>  <SCORE.SYSTEM.CONST>
0

>  <SCORE.SYSTEM.DIHEDRAL>
0

>  <SCORE.SYSTEM.norm>
0

>  <SCORE.heavy>
50

>  <SCORE.norm>
0.889913

$$$$
