FB1.pdb
  RxDock  10072011523D
librxdock.so/0.1.0
 59 58  0  0  0  0  0  0  0  0999 V2000
  -13.2016   11.8066   -1.1433 C   0  0  0  0  0  0
  -14.0614   10.5588   -0.9557 C   0  0  0  0  0  0
  -13.2229    9.3524   -0.5021 C   0  0  0  0  0  0
  -12.1834    8.8922   -1.5544 C   0  0  0  0  0  0
  -11.3786    7.6021   -1.1691 C   0  0  0  0  0  0
  -10.9107    6.9144   -2.4725 C   0  0  0  0  0  0
  -10.1506    7.8862   -0.2051 C   0  0  0  0  0  0
   -8.7028    7.9843   -0.8836 C   0  0  0  0  0  0
   -7.4093    8.6009   -0.1946 C   0  0  0  0  0  0
   -7.4566   10.2318    0.0488 C   0  0  0  0  0  0
   -6.5478   10.5728    1.2286 C   0  0  0  0  0  0
   -7.0708   11.1412   -1.2039 C   0  0  0  0  0  0
   -7.8693   11.1334   -2.6113 C   0  0  0  0  0  0
   -7.3507   11.9005   -3.8757 C   0  0  0  0  0  0
   -6.4266   13.1839   -3.6568 C   0  0  0  0  0  0
   -6.9746   14.6561   -3.4933 C   0  0  0  0  0  0
   -7.1557   15.5485   -4.7496 C   0  0  0  0  0  0
   -5.8552   16.2357   -5.3203 C   0  0  0  0  0  0
   -5.4825   15.8885   -6.7670 C   0  0  0  0  0  0
   -4.4906   16.8222   -7.5172 C   0  0  0  0  0  0
   -3.0323   17.0049   -7.0022 C   0  0  0  0  0  0
   -2.0671   17.7174   -7.9393 C   0  0  0  0  0  0
   -3.0216   17.6245   -5.6634 N   0  0  0  0  0  0
   -4.3523   16.2296   -8.8339 O   0  0  0  0  0  0
   -6.0258   17.6538   -5.2224 O   0  0  0  0  0  0
   -7.9140    9.7510   -3.0032 O   0  0  0  0  0  0
   -8.3179    6.6234   -1.2185 O   0  0  0  0  0  0
   -7.3132    6.4706   -2.1199 C   0  0  0  0  0  0
   -6.7981    7.3532   -2.7795 O   0  0  0  0  0  0
   -6.8673    5.0346   -2.0967 C   0  0  0  0  0  0
   -6.8189    4.4087   -3.4997 C   0  0  0  0  0  0
   -5.8519    3.2206   -3.5812 C   0  0  0  0  0  0
   -4.4394    3.6848   -3.8511 C   0  0  0  0  0  0
   -3.7617    3.2839   -4.7912 O   0  0  0  0  0  0
   -3.9933    4.5839   -2.9615 O   0  0  0  0  0  0
   -8.2496    3.9434   -3.8036 C   0  0  0  0  0  0
   -8.5530    3.3418   -4.8227 O   0  0  0  0  0  0
   -9.1537    4.2951   -2.8791 O   0  0  0  0  0  0
  -10.4248    9.0401    0.6855 O   0  0  0  0  0  0
  -10.3121   10.3176    0.1625 C   0  0  0  0  0  0
  -10.0514   10.5710   -1.0064 O   0  0  0  0  0  0
  -10.5528   11.4042    1.2187 C   0  0  0  0  0  0
  -10.6567   12.8639    0.6774 C   0  0  0  0  0  0
  -11.0767   13.9718    1.6605 C   0  0  0  0  0  0
  -10.1931   14.0468    2.8721 C   0  0  0  0  0  0
  -10.3560   13.4262    3.9137 O   0  0  0  0  0  0
   -9.1530   14.8764    2.6981 O   0  0  0  0  0  0
   -9.4064   13.3615   -0.0585 C   0  0  0  0  0  0
   -8.3180   13.4500    0.4745 O   0  0  0  0  0  0
   -9.5660   13.5973   -1.3777 O   0  0  0  0  0  0
   -2.0586   17.7030   -5.3394 H   0  0  0  0  0  0
   -3.4701   16.9848   -5.0038 H   0  0  0  0  0  0
   -4.0930   15.3002   -8.6601 H   0  0  0  0  0  0
   -5.1579   18.0750   -5.3632 H   0  0  0  0  0  0
   -7.9004    9.7132   -3.9742 H   0  0  0  0  0  0
   -3.0817    4.9005   -3.1106 H   0  0  0  0  0  0
   -8.7835    4.8064   -2.1173 H   0  0  0  0  0  0
   -9.4302   15.5390    2.0307 H   0  0  0  0  0  0
   -8.7494   13.8568   -1.8594 H   0  0  0  0  0  0
  1  2  1  0  0  0
  2  3  1  0  0  0
  3  4  1  0  0  0
  4  5  1  0  0  0
  5  6  1  0  0  0
  5  7  1  0  0  0
  7  8  1  0  0  0
  7 39  1  0  0  0
  8  9  1  0  0  0
  8 27  1  0  0  0
  9 10  1  0  0  0
 10 11  1  0  0  0
 10 12  1  0  0  0
 12 13  1  0  0  0
 13 14  1  0  0  0
 13 26  1  0  0  0
 14 15  1  0  0  0
 15 16  1  0  0  0
 16 17  1  0  0  0
 17 18  1  0  0  0
 18 19  1  0  0  0
 18 25  1  0  0  0
 19 20  1  0  0  0
 20 21  1  0  0  0
 20 24  1  0  0  0
 21 22  1  0  0  0
 21 23  1  0  0  0
 23 51  1  0  0  0
 23 52  1  0  0  0
 24 53  1  0  0  0
 25 54  1  0  0  0
 26 55  1  0  0  0
 27 28  1  0  0  0
 28 29  2  0  0  0
 28 30  1  0  0  0
 30 31  1  0  0  0
 31 32  1  0  0  0
 31 36  1  0  0  0
 32 33  1  0  0  0
 33 34  2  0  0  0
 33 35  1  0  0  0
 35 56  1  0  0  0
 36 37  2  0  0  0
 36 38  1  0  0  0
 38 57  1  0  0  0
 39 40  1  0  0  0
 40 41  2  0  0  0
 40 42  1  0  0  0
 42 43  1  0  0  0
 43 44  1  0  0  0
 43 48  1  0  0  0
 44 45  1  0  0  0
 45 46  2  0  0  0
 45 47  1  0  0  0
 47 58  1  0  0  0
 48 49  2  0  0  0
 48 50  1  0  0  0
 50 59  1  0  0  0
M  END
>  <AUTHOR>
    GENERATED BY OPEN BABEL 2.4.1

>  <CHROM.1>
-64.54103414,-175.89505055,154.25081302,-99.04322237,164.19725950,-77.81391487
-68.46731238,162.46704352,153.78807381,60.48537816,-171.88242422,-26.84939109
-148.39798748,-89.29292643,-90.51383920,-79.80155275,120.50845859,162.23718862
166.27482545,62.35472930,168.66241250,-54.04476627,178.12950817,-8.27366726
129.17234393,155.90034098,-85.26953117,-176.52801745,-124.73925538,179.88766377
-0.23009546,3.04593970,-171.21381660,172.27031973,55.87121380,-61.04976110
-89.01176169,26.56279515,-175.98999103,-7.97470162,10.63190852,-2.24840493
1.96387960,-0.81058059,-3.13604521

>  <COMPND>
    UNNAMED

>  <MASTER>
        0    0    0    0    0    0    0    0  109    0  109    0

>  <Name>
FB1.pdb

>  <RI>
0

>  <Rbt.Current_Directory>
/home/fc/tossine/FB1_39/p3/2_clust01

>  <Rbt.Executable>
rbdock/0.1.0

>  <Rbt.Library>
librxdock.so/0.1.0

>  <Rbt.Parameter_File>
/cluster/rxdock/data/scripts/dock.prm

>  <Rbt.Receptor>
rx_1.prm

>  <SCORE>
18.3579

>  <SCORE.INTER>
-0.577484

>  <SCORE.INTER.CONST>
1

>  <SCORE.INTER.POLAR>
-2.99971

>  <SCORE.INTER.REPUL>
0.49533

>  <SCORE.INTER.ROT>
32

>  <SCORE.INTER.VDW>
-30.2551

>  <SCORE.INTER.norm>
-0.0115497

>  <SCORE.INTRA>
18.9248

>  <SCORE.INTRA.DIHEDRAL>
15.4364

>  <SCORE.INTRA.DIHEDRAL.0>
47.3121

>  <SCORE.INTRA.POLAR>
-0.364293

>  <SCORE.INTRA.POLAR.0>
-1.47808

>  <SCORE.INTRA.REPUL>
0.0476111

>  <SCORE.INTRA.REPUL.0>
0

>  <SCORE.INTRA.VDW>
12.2071

>  <SCORE.INTRA.VDW.0>
-2.78316

>  <SCORE.INTRA.norm>
0.378496

>  <SCORE.RESTR>
0.0105429

>  <SCORE.RESTR.CAVITY>
0.0105429

>  <SCORE.RESTR.norm>
0.000210858

>  <SCORE.SYSTEM>
0

>  <SCORE.SYSTEM.CONST>
0

>  <SCORE.SYSTEM.DIHEDRAL>
0

>  <SCORE.SYSTEM.norm>
0

>  <SCORE.heavy>
50

>  <SCORE.norm>
0.367157

$$$$
