FB1.pdb
  RxDock  10072011483D
librxdock.so/0.1.0
 59 58  0  0  0  0  0  0  0  0999 V2000
    9.3413    1.6006   10.4112 C   0  0  0  0  0  0
    9.6903    2.4816    9.2140 C   0  0  0  0  0  0
   10.4537    1.6979    8.1336 C   0  0  0  0  0  0
   10.5622    2.4516    6.7846 C   0  0  0  0  0  0
    9.4077    2.1534    5.7654 C   0  0  0  0  0  0
    8.0851    2.6905    6.3592 C   0  0  0  0  0  0
    9.6672    2.7560    4.3206 C   0  0  0  0  0  0
    8.9781    2.0031    3.0858 C   0  0  0  0  0  0
    7.4343    1.6364    2.9839 C   0  0  0  0  0  0
    6.4056    2.7567    3.6226 C   0  0  0  0  0  0
    6.8922    4.1477    3.2195 C   0  0  0  0  0  0
    4.8655    2.5968    3.2388 C   0  0  0  0  0  0
    3.7030    3.6222    3.7033 C   0  0  0  0  0  0
    2.1809    3.2568    3.6277 C   0  0  0  0  0  0
    1.7199    2.1465    2.5770 C   0  0  0  0  0  0
    1.8703    0.5908    2.8045 C   0  0  0  0  0  0
    1.7668    0.0147    4.2415 C   0  0  0  0  0  0
    3.1148   -0.1049    5.0524 C   0  0  0  0  0  0
    4.3205   -0.6651    4.2875 C   0  0  0  0  0  0
    4.3747   -2.1952    4.0151 C   0  0  0  0  0  0
    3.0977   -2.9646    3.5647 C   0  0  0  0  0  0
    2.4282   -2.4771    2.2874 C   0  0  0  0  0  0
    3.3524   -4.4165    3.5056 N   0  0  0  0  0  0
    5.3079   -2.3397    2.9142 O   0  0  0  0  0  0
    3.4524    1.1972    5.5427 O   0  0  0  0  0  0
    3.9614    3.8672    5.0961 O   0  0  0  0  0  0
    9.2302    2.8273    1.9155 O   0  0  0  0  0  0
    9.9570    2.2689    0.9128 C   0  0  0  0  0  0
   10.7900    2.8320    0.2284 O   0  0  0  0  0  0
    9.6350    0.8012    0.8519 C   0  0  0  0  0  0
    8.2995    0.5187    0.1454 C   0  0  0  0  0  0
    8.1854    1.2355   -1.2062 C   0  0  0  0  0  0
    7.3059    2.4598   -1.1014 C   0  0  0  0  0  0
    7.3700    3.4092   -1.8748 O   0  0  0  0  0  0
    6.4413    2.4105   -0.0772 O   0  0  0  0  0  0
    8.2442   -1.0014   -0.0599 C   0  0  0  0  0  0
    8.2916   -1.5278   -1.1613 O   0  0  0  0  0  0
    8.0892   -1.7066    1.0690 O   0  0  0  0  0  0
    9.4070    4.2160    4.2948 O   0  0  0  0  0  0
   10.2953    5.0553    4.9463 C   0  0  0  0  0  0
   10.0803    5.5957    6.0234 O   0  0  0  0  0  0
   11.6025    5.2418    4.1648 C   0  0  0  0  0  0
   11.7917    6.6325    3.4832 C   0  0  0  0  0  0
   11.6107    7.8929    4.3488 C   0  0  0  0  0  0
   10.2113    8.4357    4.3091 C   0  0  0  0  0  0
    9.7126    9.0558    3.3799 O   0  0  0  0  0  0
    9.5193    8.1526    5.4232 O   0  0  0  0  0  0
   13.1116    6.7938    2.7189 C   0  0  0  0  0  0
   13.8617    7.7348    2.8879 O   0  0  0  0  0  0
   13.4456    5.7622    1.9154 O   0  0  0  0  0  0
    3.6495   -4.6654    2.5631 H   0  0  0  0  0  0
    2.4668   -4.9092    3.6414 H   0  0  0  0  0  0
    4.9149   -1.8126    2.1868 H   0  0  0  0  0  0
    2.8572    1.4060    6.2861 H   0  0  0  0  0  0
    4.6918    4.5052    5.1587 H   0  0  0  0  0  0
    5.9254    3.2260    0.0720 H   0  0  0  0  0  0
    7.9886   -2.6814    0.9331 H   0  0  0  0  0  0
    8.5720    8.2842    5.2071 H   0  0  0  0  0  0
   12.8406    4.9884    1.9525 H   0  0  0  0  0  0
  1  2  1  0  0  0
  2  3  1  0  0  0
  3  4  1  0  0  0
  4  5  1  0  0  0
  5  6  1  0  0  0
  5  7  1  0  0  0
  7  8  1  0  0  0
  7 39  1  0  0  0
  8  9  1  0  0  0
  8 27  1  0  0  0
  9 10  1  0  0  0
 10 11  1  0  0  0
 10 12  1  0  0  0
 12 13  1  0  0  0
 13 14  1  0  0  0
 13 26  1  0  0  0
 14 15  1  0  0  0
 15 16  1  0  0  0
 16 17  1  0  0  0
 17 18  1  0  0  0
 18 19  1  0  0  0
 18 25  1  0  0  0
 19 20  1  0  0  0
 20 21  1  0  0  0
 20 24  1  0  0  0
 21 22  1  0  0  0
 21 23  1  0  0  0
 23 51  1  0  0  0
 23 52  1  0  0  0
 24 53  1  0  0  0
 25 54  1  0  0  0
 26 55  1  0  0  0
 27 28  1  0  0  0
 28 29  2  0  0  0
 28 30  1  0  0  0
 30 31  1  0  0  0
 31 32  1  0  0  0
 31 36  1  0  0  0
 32 33  1  0  0  0
 33 34  2  0  0  0
 33 35  1  0  0  0
 35 56  1  0  0  0
 36 37  2  0  0  0
 36 38  1  0  0  0
 38 57  1  0  0  0
 39 40  1  0  0  0
 40 41  2  0  0  0
 40 42  1  0  0  0
 42 43  1  0  0  0
 43 44  1  0  0  0
 43 48  1  0  0  0
 44 45  1  0  0  0
 45 46  2  0  0  0
 45 47  1  0  0  0
 47 58  1  0  0  0
 48 49  2  0  0  0
 48 50  1  0  0  0
 50 59  1  0  0  0
M  END
>  <AUTHOR>
    GENERATED BY OPEN BABEL 2.4.1

>  <CHROM.1>
167.57422984,-91.37508742,65.44316712,152.63766512,52.02478188,71.14301504
36.76229381,118.25657114,42.12835089,-177.19949321,-164.04736881,-24.46555683
78.38965903,79.17660719,32.12166317,-90.71559470,-44.00778895,-75.64497981
74.45680311,42.30654879,57.92860798,-59.39064760,-92.09427655,-141.96880970
78.69964023,49.67800384,-102.50406003,-112.62019937,156.77365139,173.85962116
175.85538416,-104.35154986,107.26870401,51.87407190,-92.62540361,-128.80177474
-75.12249683,-162.68773098,-4.15534060,7.64469061,2.47436961,3.35129418,0.36280548
0.68209131,1.18675986

>  <COMPND>
    UNNAMED

>  <MASTER>
        0    0    0    0    0    0    0    0  109    0  109    0

>  <Name>
FB1.pdb

>  <RI>
0

>  <Rbt.Current_Directory>
/home/fc/tossine/FB1_39/p3/2_clust01

>  <Rbt.Executable>
rbdock/0.1.0

>  <Rbt.Library>
librxdock.so/0.1.0

>  <Rbt.Parameter_File>
/cluster/rxdock/data/scripts/dock.prm

>  <Rbt.Receptor>
rx_1.prm

>  <SCORE>
15.0126

>  <SCORE.INTER>
-15.8143

>  <SCORE.INTER.CONST>
1

>  <SCORE.INTER.POLAR>
-5.29163

>  <SCORE.INTER.REPUL>
0.0305757

>  <SCORE.INTER.ROT>
32

>  <SCORE.INTER.VDW>
-35.3756

>  <SCORE.INTER.norm>
-0.316286

>  <SCORE.INTRA>
30.1372

>  <SCORE.INTRA.DIHEDRAL>
40.0645

>  <SCORE.INTRA.DIHEDRAL.0>
47.3121

>  <SCORE.INTRA.POLAR>
1.47808

>  <SCORE.INTRA.POLAR.0>
-1.47808

>  <SCORE.INTRA.REPUL>
0.0379384

>  <SCORE.INTRA.REPUL.0>
0

>  <SCORE.INTRA.VDW>
4.88973

>  <SCORE.INTRA.VDW.0>
-2.78316

>  <SCORE.INTRA.norm>
0.602743

>  <SCORE.RESTR>
0.689772

>  <SCORE.RESTR.CAVITY>
0.689772

>  <SCORE.RESTR.norm>
0.0137954

>  <SCORE.SYSTEM>
0

>  <SCORE.SYSTEM.CONST>
0

>  <SCORE.SYSTEM.DIHEDRAL>
0

>  <SCORE.SYSTEM.norm>
0

>  <SCORE.heavy>
50

>  <SCORE.norm>
0.300253

$$$$
