FB1.pdb
  RxDock  10072014083D
librxdock.so/0.1.0
 59 58  0  0  0  0  0  0  0  0999 V2000
  -13.0317   11.9495    4.6455 C   0  0  0  0  0  0
  -11.6897   12.6033    4.9663 C   0  0  0  0  0  0
  -10.7339   12.5617    3.7625 C   0  0  0  0  0  0
  -10.1097   11.1653    3.5176 C   0  0  0  0  0  0
   -9.1160   11.0880    2.3064 C   0  0  0  0  0  0
   -7.9974   10.0807    2.6595 C   0  0  0  0  0  0
   -9.8166   10.7008    0.9363 C   0  0  0  0  0  0
   -8.8610   10.2271   -0.2590 C   0  0  0  0  0  0
   -7.7139    9.1331   -0.1347 C   0  0  0  0  0  0
   -6.9681    8.7374   -1.5519 C   0  0  0  0  0  0
   -6.3447   10.0015   -2.1414 C   0  0  0  0  0  0
   -5.8668    7.5863   -1.4694 C   0  0  0  0  0  0
   -4.9611    7.2888   -0.1618 C   0  0  0  0  0  0
   -3.5166    6.6887   -0.2591 C   0  0  0  0  0  0
   -3.3085    5.3484   -1.1015 C   0  0  0  0  0  0
   -4.4197    4.2445   -1.3039 C   0  0  0  0  0  0
   -5.1842    4.1672   -2.6519 C   0  0  0  0  0  0
   -6.6022    3.4762   -2.6203 C   0  0  0  0  0  0
   -6.6769    2.1101   -1.9270 C   0  0  0  0  0  0
   -8.0126    1.7026   -1.2429 C   0  0  0  0  0  0
   -8.2426    1.9801    0.2722 C   0  0  0  0  0  0
   -7.9428    3.3922    0.7554 C   0  0  0  0  0  0
   -9.5946    1.5576    0.6846 N   0  0  0  0  0  0
   -9.0280    2.4814   -1.9256 O   0  0  0  0  0  0
   -7.5134    4.3675   -1.9683 O   0  0  0  0  0  0
   -4.7937    8.5688    0.4709 O   0  0  0  0  0  0
   -9.7361    9.7142   -1.2999 O   0  0  0  0  0  0
   -9.6537   10.3038   -2.5210 C   0  0  0  0  0  0
   -9.7466    9.7451   -3.5974 O   0  0  0  0  0  0
   -9.5289   11.7895   -2.3246 C   0  0  0  0  0  0
  -10.5685   12.3440   -1.3376 C   0  0  0  0  0  0
  -10.3820   13.8423   -1.0663 C   0  0  0  0  0  0
   -9.2349   14.0851   -0.1132 C   0  0  0  0  0  0
   -8.0884   14.3220   -0.4781 O   0  0  0  0  0  0
   -9.5901   14.0186    1.1784 O   0  0  0  0  0  0
  -11.9384   12.0935   -1.9830 C   0  0  0  0  0  0
  -12.5514   11.0439   -1.8608 O   0  0  0  0  0  0
  -12.3884   13.1065   -2.7363 O   0  0  0  0  0  0
  -10.9383    9.7557    1.1569 O   0  0  0  0  0  0
  -10.6952    8.3997    1.0153 C   0  0  0  0  0  0
   -9.5836    7.8871    1.0224 O   0  0  0  0  0  0
  -11.9871    7.5894    0.8460 C   0  0  0  0  0  0
  -11.8328    6.0400    0.9449 C   0  0  0  0  0  0
  -10.9786    5.3287   -0.1204 C   0  0  0  0  0  0
  -11.4973    5.5257   -1.5156 C   0  0  0  0  0  0
  -12.2565    6.4149   -1.8757 O   0  0  0  0  0  0
  -11.0196    4.6122   -2.3745 O   0  0  0  0  0  0
  -11.3645    5.5319    2.3141 C   0  0  0  0  0  0
  -10.3497    4.8806    2.4650 O   0  0  0  0  0  0
  -12.0988    5.9461    3.3679 O   0  0  0  0  0  0
  -10.2538    2.3097    0.4889 H   0  0  0  0  0  0
   -9.6082    1.4533    1.7017 H   0  0  0  0  0  0
   -8.7993    3.4138   -1.7262 H   0  0  0  0  0  0
   -7.1006    4.6715   -1.1390 H   0  0  0  0  0  0
   -4.7949    8.4311    1.4329 H   0  0  0  0  0  0
   -8.8651   14.1577    1.8176 H   0  0  0  0  0  0
  -12.0682   13.9996   -2.4561 H   0  0  0  0  0  0
  -10.5812    3.9209   -1.8348 H   0  0  0  0  0  0
  -11.7465    5.6937    4.2502 H   0  0  0  0  0  0
  1  2  1  0  0  0
  2  3  1  0  0  0
  3  4  1  0  0  0
  4  5  1  0  0  0
  5  6  1  0  0  0
  5  7  1  0  0  0
  7  8  1  0  0  0
  7 39  1  0  0  0
  8  9  1  0  0  0
  8 27  1  0  0  0
  9 10  1  0  0  0
 10 11  1  0  0  0
 10 12  1  0  0  0
 12 13  1  0  0  0
 13 14  1  0  0  0
 13 26  1  0  0  0
 14 15  1  0  0  0
 15 16  1  0  0  0
 16 17  1  0  0  0
 17 18  1  0  0  0
 18 19  1  0  0  0
 18 25  1  0  0  0
 19 20  1  0  0  0
 20 21  1  0  0  0
 20 24  1  0  0  0
 21 22  1  0  0  0
 21 23  1  0  0  0
 23 51  1  0  0  0
 23 52  1  0  0  0
 24 53  1  0  0  0
 25 54  1  0  0  0
 26 55  1  0  0  0
 27 28  1  0  0  0
 28 29  2  0  0  0
 28 30  1  0  0  0
 30 31  1  0  0  0
 31 32  1  0  0  0
 31 36  1  0  0  0
 32 33  1  0  0  0
 33 34  2  0  0  0
 33 35  1  0  0  0
 35 56  1  0  0  0
 36 37  2  0  0  0
 36 38  1  0  0  0
 38 57  1  0  0  0
 39 40  1  0  0  0
 40 41  2  0  0  0
 40 42  1  0  0  0
 42 43  1  0  0  0
 43 44  1  0  0  0
 43 48  1  0  0  0
 44 45  1  0  0  0
 45 46  2  0  0  0
 45 47  1  0  0  0
 47 58  1  0  0  0
 48 49  2  0  0  0
 48 50  1  0  0  0
 50 59  1  0  0  0
M  END
>  <AUTHOR>
    GENERATED BY OPEN BABEL 2.4.1

>  <CHROM.1>
-75.54657395,-179.35695134,145.59737076,-164.53209092,48.94950383,-95.45113517
174.80018926,121.86018252,59.20254692,-29.89112304,-150.57826788,-52.40976100
144.23969642,-28.47276940,102.74420797,-156.83069755,-49.35016361,150.28491219
-48.71413561,-93.56847813,49.70910808,-63.08136022,-85.02838826,142.94313730
-48.25291232,176.19796581,-77.32908621,85.98702597,93.70096330,179.07571614
-28.81460621,17.52069425,-169.10403643,-63.82184217,-59.95127971,-121.31093759
19.63017161,11.23755668,-174.19366099,-9.13877519,8.13733772,-0.12864061
1.96196903,0.52033189,-0.01876980

>  <COMPND>
    UNNAMED

>  <MASTER>
        0    0    0    0    0    0    0    0  109    0  109    0

>  <Name>
FB1.pdb

>  <RI>
0

>  <Rbt.Current_Directory>
/home/fc/tossine/FB1_39/p3/2_clust01

>  <Rbt.Executable>
rbdock/0.1.0

>  <Rbt.Library>
librxdock.so/0.1.0

>  <Rbt.Parameter_File>
/cluster/rxdock/data/scripts/dock.prm

>  <Rbt.Receptor>
rx_4.prm

>  <SCORE>
51.1128

>  <SCORE.INTER>
21.8376

>  <SCORE.INTER.CONST>
1

>  <SCORE.INTER.POLAR>
-1.11859

>  <SCORE.INTER.REPUL>
1.34067

>  <SCORE.INTER.ROT>
32

>  <SCORE.INTER.VDW>
-18.4625

>  <SCORE.INTER.norm>
0.436752

>  <SCORE.INTRA>
27.5216

>  <SCORE.INTRA.DIHEDRAL>
28.3083

>  <SCORE.INTRA.DIHEDRAL.0>
47.3121

>  <SCORE.INTRA.POLAR>
0.0342947

>  <SCORE.INTRA.POLAR.0>
-1.47808

>  <SCORE.INTRA.REPUL>
0

>  <SCORE.INTRA.REPUL.0>
0

>  <SCORE.INTRA.VDW>
13.2508

>  <SCORE.INTRA.VDW.0>
-2.78316

>  <SCORE.INTRA.norm>
0.550431

>  <SCORE.RESTR>
1.75363

>  <SCORE.RESTR.CAVITY>
1.75363

>  <SCORE.RESTR.norm>
0.0350726

>  <SCORE.SYSTEM>
0

>  <SCORE.SYSTEM.CONST>
0

>  <SCORE.SYSTEM.DIHEDRAL>
0

>  <SCORE.SYSTEM.norm>
0

>  <SCORE.heavy>
50

>  <SCORE.norm>
1.02226

$$$$
