FB1.pdb
  RxDock  10072013283D
librxdock.so/0.1.0
 59 58  0  0  0  0  0  0  0  0999 V2000
   -2.5831    3.6688    0.3957 C   0  0  0  0  0  0
   -1.8239    3.2099   -0.8470 C   0  0  0  0  0  0
   -2.6239    3.4746   -2.1331 C   0  0  0  0  0  0
   -3.7622    2.4517   -2.3739 C   0  0  0  0  0  0
   -5.0470    3.0399   -3.0550 C   0  0  0  0  0  0
   -4.9015    2.8796   -4.5859 C   0  0  0  0  0  0
   -6.3950    2.3794   -2.5408 C   0  0  0  0  0  0
   -6.5011    2.0739   -0.9719 C   0  0  0  0  0  0
   -6.2886    3.1437    0.1851 C   0  0  0  0  0  0
   -6.9414    4.6300   -0.1081 C   0  0  0  0  0  0
   -8.0039    4.9111    0.9532 C   0  0  0  0  0  0
   -5.9143    5.8489   -0.1726 C   0  0  0  0  0  0
   -6.3418    7.3815   -0.4673 C   0  0  0  0  0  0
   -5.7334    8.5903    0.3233 C   0  0  0  0  0  0
   -6.4124   10.0253    0.1531 C   0  0  0  0  0  0
   -7.8545   10.3942    0.6810 C   0  0  0  0  0  0
   -8.6493   11.5384   -0.0022 C   0  0  0  0  0  0
   -7.9609   12.9578   -0.0281 C   0  0  0  0  0  0
   -8.6953   14.0549   -0.8088 C   0  0  0  0  0  0
  -10.1968   14.3063   -0.4916 C   0  0  0  0  0  0
  -11.2983   13.3869   -1.0971 C   0  0  0  0  0  0
  -12.7194   13.6154   -0.6015 C   0  0  0  0  0  0
  -11.2449   13.4037   -2.5713 N   0  0  0  0  0  0
  -10.3045   14.1261    0.9436 O   0  0  0  0  0  0
   -7.7979   13.3945    1.3256 O   0  0  0  0  0  0
   -5.9782    7.6094   -1.8393 O   0  0  0  0  0  0
   -7.8430    1.5628   -0.7472 O   0  0  0  0  0  0
   -8.0254    0.7636    0.3360 C   0  0  0  0  0  0
   -7.1538    0.1938    0.9645 O   0  0  0  0  0  0
   -9.4850    0.7781    0.6978 C   0  0  0  0  0  0
  -10.1854    2.0789    0.2739 C   0  0  0  0  0  0
  -10.9940    1.9175   -1.0197 C   0  0  0  0  0  0
  -11.2610    3.2568   -1.6665 C   0  0  0  0  0  0
  -11.1316    4.3286   -1.0850 O   0  0  0  0  0  0
  -11.6538    3.1637   -2.9455 O   0  0  0  0  0  0
  -11.1187    2.4528    1.4336 C   0  0  0  0  0  0
  -11.1681    3.5745    1.9150 O   0  0  0  0  0  0
  -11.8438    1.4319    1.9111 O   0  0  0  0  0  0
   -7.5789    3.1184   -3.0429 O   0  0  0  0  0  0
   -7.5040    4.4983   -3.1352 C   0  0  0  0  0  0
   -6.5269    5.1652   -2.8210 O   0  0  0  0  0  0
   -8.7965    5.1177   -3.6832 C   0  0  0  0  0  0
   -9.6347    5.9491   -2.6631 C   0  0  0  0  0  0
   -8.8796    6.8661   -1.6836 C   0  0  0  0  0  0
   -9.7950    7.6291   -0.7702 C   0  0  0  0  0  0
   -9.9200    8.8457   -0.7388 O   0  0  0  0  0  0
  -10.5090    6.8236    0.0308 O   0  0  0  0  0  0
  -10.7577    6.7839   -3.2909 C   0  0  0  0  0  0
  -10.5977    7.4646   -4.2848 O   0  0  0  0  0  0
  -11.9754    6.6327   -2.7293 O   0  0  0  0  0  0
  -11.6595   14.2705   -2.9108 H   0  0  0  0  0  0
  -11.8529   12.6633   -2.9287 H   0  0  0  0  0  0
   -9.7994   14.8751    1.3248 H   0  0  0  0  0  0
   -8.6520   13.2895    1.7840 H   0  0  0  0  0  0
   -6.2017    6.8108   -2.3462 H   0  0  0  0  0  0
  -11.6941    2.2563   -3.3039 H   0  0  0  0  0  0
  -12.3588    1.6421    2.7293 H   0  0  0  0  0  0
  -10.3948    5.9123   -0.3126 H   0  0  0  0  0  0
  -12.0003    6.0642   -1.9278 H   0  0  0  0  0  0
  1  2  1  0  0  0
  2  3  1  0  0  0
  3  4  1  0  0  0
  4  5  1  0  0  0
  5  6  1  0  0  0
  5  7  1  0  0  0
  7  8  1  0  0  0
  7 39  1  0  0  0
  8  9  1  0  0  0
  8 27  1  0  0  0
  9 10  1  0  0  0
 10 11  1  0  0  0
 10 12  1  0  0  0
 12 13  1  0  0  0
 13 14  1  0  0  0
 13 26  1  0  0  0
 14 15  1  0  0  0
 15 16  1  0  0  0
 16 17  1  0  0  0
 17 18  1  0  0  0
 18 19  1  0  0  0
 18 25  1  0  0  0
 19 20  1  0  0  0
 20 21  1  0  0  0
 20 24  1  0  0  0
 21 22  1  0  0  0
 21 23  1  0  0  0
 23 51  1  0  0  0
 23 52  1  0  0  0
 24 53  1  0  0  0
 25 54  1  0  0  0
 26 55  1  0  0  0
 27 28  1  0  0  0
 28 29  2  0  0  0
 28 30  1  0  0  0
 30 31  1  0  0  0
 31 32  1  0  0  0
 31 36  1  0  0  0
 32 33  1  0  0  0
 33 34  2  0  0  0
 33 35  1  0  0  0
 35 56  1  0  0  0
 36 37  2  0  0  0
 36 38  1  0  0  0
 38 57  1  0  0  0
 39 40  1  0  0  0
 40 41  2  0  0  0
 40 42  1  0  0  0
 42 43  1  0  0  0
 43 44  1  0  0  0
 43 48  1  0  0  0
 44 45  1  0  0  0
 45 46  2  0  0  0
 45 47  1  0  0  0
 47 58  1  0  0  0
 48 49  2  0  0  0
 48 50  1  0  0  0
 50 59  1  0  0  0
M  END
>  <AUTHOR>
    GENERATED BY OPEN BABEL 2.4.1

>  <CHROM.1>
-77.24873895,145.56020719,91.38283671,40.31271086,54.96656547,-37.11946943
40.44408698,154.97219446,117.88429065,179.15938864,137.85430702,-168.69171622
40.19192386,68.00549356,-154.68237683,-57.85955776,174.91813237,51.70625323
-49.82347124,-80.38695457,173.21687194,67.49885396,-76.79075529,-17.38434443
-27.30322273,100.83730258,-160.18420915,131.78456683,-15.96623736,-1.63492348
172.61694810,-0.57968469,110.59633432,40.59935795,179.02737392,-45.73315224
-116.24945220,-11.89511480,5.12720912,-8.37334250,6.17966561,-0.95890408
-1.32184137,0.07056674,0.02680123

>  <COMPND>
    UNNAMED

>  <MASTER>
        0    0    0    0    0    0    0    0  109    0  109    0

>  <Name>
FB1.pdb

>  <RI>
0

>  <Rbt.Current_Directory>
/home/fc/tossine/FB1_39/p3/2_clust01

>  <Rbt.Executable>
rbdock/0.1.0

>  <Rbt.Library>
librxdock.so/0.1.0

>  <Rbt.Parameter_File>
/cluster/rxdock/data/scripts/dock.prm

>  <Rbt.Receptor>
rx_3.prm

>  <SCORE>
15.8344

>  <SCORE.INTER>
15.9638

>  <SCORE.INTER.CONST>
1

>  <SCORE.INTER.POLAR>
-0.916515

>  <SCORE.INTER.REPUL>
0.91221

>  <SCORE.INTER.ROT>
32

>  <SCORE.INTER.VDW>
-22.8811

>  <SCORE.INTER.norm>
0.319276

>  <SCORE.INTRA>
-0.926665

>  <SCORE.INTRA.DIHEDRAL>
11.2647

>  <SCORE.INTRA.DIHEDRAL.0>
47.3121

>  <SCORE.INTRA.POLAR>
-1.55955

>  <SCORE.INTRA.POLAR.0>
-1.47808

>  <SCORE.INTRA.REPUL>
0

>  <SCORE.INTRA.REPUL.0>
0

>  <SCORE.INTRA.VDW>
-1.25657

>  <SCORE.INTRA.VDW.0>
-2.78316

>  <SCORE.INTRA.norm>
-0.0185333

>  <SCORE.RESTR>
0.797225

>  <SCORE.RESTR.CAVITY>
0.797225

>  <SCORE.RESTR.norm>
0.0159445

>  <SCORE.SYSTEM>
0

>  <SCORE.SYSTEM.CONST>
0

>  <SCORE.SYSTEM.DIHEDRAL>
0

>  <SCORE.SYSTEM.norm>
0

>  <SCORE.heavy>
50

>  <SCORE.norm>
0.316688

$$$$
