FB1.pdb
  RxDock  10072013273D
librxdock.so/0.1.0
 59 58  0  0  0  0  0  0  0  0999 V2000
    9.7247    4.7519   -1.5302 C   0  0  0  0  0  0
    8.6271    3.9895   -2.2687 C   0  0  0  0  0  0
    8.0501    2.8504   -1.4123 C   0  0  0  0  0  0
    8.8974    1.5543   -1.4567 C   0  0  0  0  0  0
    9.5316    1.1312   -0.0858 C   0  0  0  0  0  0
   10.4588    2.2721    0.3929 C   0  0  0  0  0  0
    8.4569    0.7697    1.0244 C   0  0  0  0  0  0
    7.2708   -0.2165    0.5924 C   0  0  0  0  0  0
    7.4669   -1.6446   -0.0787 C   0  0  0  0  0  0
    6.3167   -2.0613   -1.1854 C   0  0  0  0  0  0
    6.6762   -3.4273   -1.7678 C   0  0  0  0  0  0
    4.8107   -2.0835   -0.6598 C   0  0  0  0  0  0
    3.6641   -1.0508   -1.1470 C   0  0  0  0  0  0
    2.4352   -0.6755   -0.2498 C   0  0  0  0  0  0
    1.2391    0.1502   -0.9106 C   0  0  0  0  0  0
    0.9610    1.6815   -0.6411 C   0  0  0  0  0  0
   -0.5021    2.1824   -0.5157 C   0  0  0  0  0  0
   -1.4244    1.9907   -1.7814 C   0  0  0  0  0  0
   -2.6828    2.8653   -1.8438 C   0  0  0  0  0  0
   -3.6273    2.7118   -3.0696 C   0  0  0  0  0  0
   -4.9736    3.4921   -3.1339 C   0  0  0  0  0  0
   -4.9331    4.9501   -2.6980 C   0  0  0  0  0  0
   -5.5966    3.3565   -4.4642 N   0  0  0  0  0  0
   -2.8539    3.2043   -4.1935 O   0  0  0  0  0  0
   -0.6337    2.2476   -2.9470 O   0  0  0  0  0  0
    4.3556    0.1890   -1.3738 O   0  0  0  0  0  0
    6.5080   -0.4879    1.7994 O   0  0  0  0  0  0
    5.5245    0.3931    2.1186 C   0  0  0  0  0  0
    4.7860    0.9612    1.3368 O   0  0  0  0  0  0
    5.4283    0.4766    3.6170 C   0  0  0  0  0  0
    3.9905    0.2908    4.1276 C   0  0  0  0  0  0
    3.6834   -1.1640    4.5053 C   0  0  0  0  0  0
    3.1896   -1.9450    3.3097 C   0  0  0  0  0  0
    2.0065   -2.1922    3.1026 O   0  0  0  0  0  0
    4.1725   -2.3441    2.4891 O   0  0  0  0  0  0
    3.8617    1.1927    5.3629 C   0  0  0  0  0  0
    4.8247    1.6001    5.9946 O   0  0  0  0  0  0
    2.5988    1.4586    5.7242 O   0  0  0  0  0  0
    9.1118    0.3320    2.2811 O   0  0  0  0  0  0
    9.4531    1.2947    3.2164 C   0  0  0  0  0  0
   10.4896    1.2962    3.8677 O   0  0  0  0  0  0
    8.3784    2.3810    3.3549 C   0  0  0  0  0  0
    8.4958    3.2931    4.6154 C   0  0  0  0  0  0
    8.6564    2.6135    5.9875 C   0  0  0  0  0  0
    8.1616    3.4615    7.1236 C   0  0  0  0  0  0
    8.8641    4.0877    7.9053 O   0  0  0  0  0  0
    6.8222    3.4884    7.1984 O   0  0  0  0  0  0
    9.5747    4.3789    4.5186 C   0  0  0  0  0  0
    9.3158    5.5657    4.4836 O   0  0  0  0  0  0
   10.8483    3.9373    4.5825 O   0  0  0  0  0  0
   -6.1344    2.4915   -4.4946 H   0  0  0  0  0  0
   -4.8576    3.2319   -5.1598 H   0  0  0  0  0  0
   -2.5872    4.1106   -3.9312 H   0  0  0  0  0  0
    0.0550    1.5601   -3.0050 H   0  0  0  0  0  0
    3.7447    0.7960   -1.8243 H   0  0  0  0  0  0
    3.8954   -2.9372    1.7646 H   0  0  0  0  0  0
    1.9117    1.0839    5.1191 H   0  0  0  0  0  0
    6.4929    2.7841    6.6010 H   0  0  0  0  0  0
   10.9516    2.9621    4.6494 H   0  0  0  0  0  0
  1  2  1  0  0  0
  2  3  1  0  0  0
  3  4  1  0  0  0
  4  5  1  0  0  0
  5  6  1  0  0  0
  5  7  1  0  0  0
  7  8  1  0  0  0
  7 39  1  0  0  0
  8  9  1  0  0  0
  8 27  1  0  0  0
  9 10  1  0  0  0
 10 11  1  0  0  0
 10 12  1  0  0  0
 12 13  1  0  0  0
 13 14  1  0  0  0
 13 26  1  0  0  0
 14 15  1  0  0  0
 15 16  1  0  0  0
 16 17  1  0  0  0
 17 18  1  0  0  0
 18 19  1  0  0  0
 18 25  1  0  0  0
 19 20  1  0  0  0
 20 21  1  0  0  0
 20 24  1  0  0  0
 21 22  1  0  0  0
 21 23  1  0  0  0
 23 51  1  0  0  0
 23 52  1  0  0  0
 24 53  1  0  0  0
 25 54  1  0  0  0
 26 55  1  0  0  0
 27 28  1  0  0  0
 28 29  2  0  0  0
 28 30  1  0  0  0
 30 31  1  0  0  0
 31 32  1  0  0  0
 31 36  1  0  0  0
 32 33  1  0  0  0
 33 34  2  0  0  0
 33 35  1  0  0  0
 35 56  1  0  0  0
 36 37  2  0  0  0
 36 38  1  0  0  0
 38 57  1  0  0  0
 39 40  1  0  0  0
 40 41  2  0  0  0
 40 42  1  0  0  0
 42 43  1  0  0  0
 43 44  1  0  0  0
 43 48  1  0  0  0
 44 45  1  0  0  0
 45 46  2  0  0  0
 45 47  1  0  0  0
 47 58  1  0  0  0
 48 49  2  0  0  0
 48 50  1  0  0  0
 50 59  1  0  0  0
M  END
>  <AUTHOR>
    GENERATED BY OPEN BABEL 2.4.1

>  <CHROM.1>
-82.63649088,116.17154117,-59.98048934,47.73788216,53.38065420,88.28506252
-145.26473875,86.41266483,177.98307006,112.76822326,-153.40190000,-169.71254587
169.63221405,-106.03216548,-141.46778701,-61.43098346,-160.61406389,-179.84720010
65.42880644,175.25540599,43.17367692,-55.44461686,84.49980334,37.37369318
-129.35452005,93.90579146,-87.80092954,-20.20559100,-100.62359438,173.24846132
-3.38354134,-139.94003953,165.14906627,-50.19678133,-154.43173550,113.60490319
-103.58173809,12.02676265,2.26454965,4.78050907,1.41065400,1.30311998,-0.50344841
0.11078410,-1.77218159

>  <COMPND>
    UNNAMED

>  <MASTER>
        0    0    0    0    0    0    0    0  109    0  109    0

>  <Name>
FB1.pdb

>  <RI>
0

>  <Rbt.Current_Directory>
/home/fc/tossine/FB1_39/p3/2_clust01

>  <Rbt.Executable>
rbdock/0.1.0

>  <Rbt.Library>
librxdock.so/0.1.0

>  <Rbt.Parameter_File>
/cluster/rxdock/data/scripts/dock.prm

>  <Rbt.Receptor>
rx_3.prm

>  <SCORE>
10.0819

>  <SCORE.INTER>
-6.70306

>  <SCORE.INTER.CONST>
1

>  <SCORE.INTER.POLAR>
-3.45823

>  <SCORE.INTER.REPUL>
0.724704

>  <SCORE.INTER.ROT>
32

>  <SCORE.INTER.VDW>
-35.9686

>  <SCORE.INTER.norm>
-0.134061

>  <SCORE.INTRA>
13.2996

>  <SCORE.INTRA.DIHEDRAL>
30.9098

>  <SCORE.INTRA.DIHEDRAL.0>
47.3121

>  <SCORE.INTRA.POLAR>
-0.201216

>  <SCORE.INTRA.POLAR.0>
-1.47808

>  <SCORE.INTRA.REPUL>
0

>  <SCORE.INTRA.REPUL.0>
0

>  <SCORE.INTRA.VDW>
-1.47121

>  <SCORE.INTRA.VDW.0>
-2.78316

>  <SCORE.INTRA.norm>
0.265991

>  <SCORE.RESTR>
3.48542

>  <SCORE.RESTR.CAVITY>
3.48542

>  <SCORE.RESTR.norm>
0.0697084

>  <SCORE.SYSTEM>
0

>  <SCORE.SYSTEM.CONST>
0

>  <SCORE.SYSTEM.DIHEDRAL>
0

>  <SCORE.SYSTEM.norm>
0

>  <SCORE.heavy>
50

>  <SCORE.norm>
0.201638

$$$$
