FB1.pdb
  RxDock  10072012373D
librxdock.so/0.1.0
 59 58  0  0  0  0  0  0  0  0999 V2000
    4.7612    2.9532    7.8997 C   0  0  0  0  0  0
    4.0335    3.2259    6.5853 C   0  0  0  0  0  0
    3.9038    1.9536    5.7317 C   0  0  0  0  0  0
    5.2635    1.4017    5.2353 C   0  0  0  0  0  0
    5.1628    0.2125    4.2174 C   0  0  0  0  0  0
    4.2352   -0.8667    4.8218 C   0  0  0  0  0  0
    4.6598    0.6518    2.7780 C   0  0  0  0  0  0
    3.0872    0.9027    2.6042 C   0  0  0  0  0  0
    2.3806    1.3893    1.2655 C   0  0  0  0  0  0
    0.7406    1.5427    1.3560 C   0  0  0  0  0  0
    0.3988    2.3768    2.5894 C   0  0  0  0  0  0
    0.0207    2.1628    0.0746 C   0  0  0  0  0  0
   -1.4250    2.8891    0.1084 C   0  0  0  0  0  0
   -2.1433    3.3915   -1.1907 C   0  0  0  0  0  0
   -3.5043    4.2116   -1.0346 C   0  0  0  0  0  0
   -4.8896    3.5666   -0.6351 C   0  0  0  0  0  0
   -6.1844    4.4163   -0.7302 C   0  0  0  0  0  0
   -6.6187    4.8812   -2.1740 C   0  0  0  0  0  0
   -7.8181    5.8343   -2.2487 C   0  0  0  0  0  0
   -9.2032    5.3155   -1.7684 C   0  0  0  0  0  0
  -10.4542    6.2420   -1.8132 C   0  0  0  0  0  0
  -10.5665    7.2828   -0.7080 C   0  0  0  0  0  0
  -10.5984    6.8663   -3.1421 N   0  0  0  0  0  0
   -9.5159    4.2187   -2.6645 O   0  0  0  0  0  0
   -5.4937    5.5167   -2.7905 O   0  0  0  0  0  0
   -2.3154    1.9137    0.6761 O   0  0  0  0  0  0
    2.4375   -0.3596    2.9157 O   0  0  0  0  0  0
    2.4300   -1.3063    1.9415 C   0  0  0  0  0  0
    1.4457   -1.8240    1.4490 O   0  0  0  0  0  0
    3.8466   -1.5405    1.4945 C   0  0  0  0  0  0
    3.9280   -2.1475    0.0847 C   0  0  0  0  0  0
    3.0239   -1.4234   -0.9211 C   0  0  0  0  0  0
    2.6300   -2.3386   -2.0572 C   0  0  0  0  0  0
    2.8639   -3.5422   -2.0709 O   0  0  0  0  0  0
    1.9945   -1.7077   -3.0557 O   0  0  0  0  0  0
    5.3965   -2.0226   -0.3441 C   0  0  0  0  0  0
    5.7380   -1.6016   -1.4389 O   0  0  0  0  0  0
    6.2775   -2.4610    0.5655 O   0  0  0  0  0  0
    5.4629    1.7825    2.2522 O   0  0  0  0  0  0
    5.2407    3.0467    2.7722 C   0  0  0  0  0  0
    4.1975    3.6757    2.6519 O   0  0  0  0  0  0
    6.4598    3.5888    3.5300 C   0  0  0  0  0  0
    7.8321    3.4360    2.8032 C   0  0  0  0  0  0
    9.1122    3.7345    3.6047 C   0  0  0  0  0  0
    9.1599    5.1396    4.1320 C   0  0  0  0  0  0
    8.2078    5.9032    4.2152 O   0  0  0  0  0  0
   10.3885    5.4936    4.5389 O   0  0  0  0  0  0
    8.0381    2.0849    2.1074 C   0  0  0  0  0  0
    8.4785    1.1077    2.6800 O   0  0  0  0  0  0
    7.5966    2.0157    0.8340 O   0  0  0  0  0  0
  -11.3291    7.5755   -3.1005 H   0  0  0  0  0  0
  -10.9500    6.1638   -3.7966 H   0  0  0  0  0  0
   -8.9311    3.4877   -2.3731 H   0  0  0  0  0  0
   -5.7446    5.7643   -3.6995 H   0  0  0  0  0  0
   -2.1086    1.8324    1.6222 H   0  0  0  0  0  0
    1.7061   -2.2794   -3.7929 H   0  0  0  0  0  0
    7.2255   -2.3323    0.3135 H   0  0  0  0  0  0
   10.3272    6.4239    4.8425 H   0  0  0  0  0  0
    7.1361    2.8195    0.5052 H   0  0  0  0  0  0
  1  2  1  0  0  0
  2  3  1  0  0  0
  3  4  1  0  0  0
  4  5  1  0  0  0
  5  6  1  0  0  0
  5  7  1  0  0  0
  7  8  1  0  0  0
  7 39  1  0  0  0
  8  9  1  0  0  0
  8 27  1  0  0  0
  9 10  1  0  0  0
 10 11  1  0  0  0
 10 12  1  0  0  0
 12 13  1  0  0  0
 13 14  1  0  0  0
 13 26  1  0  0  0
 14 15  1  0  0  0
 15 16  1  0  0  0
 16 17  1  0  0  0
 17 18  1  0  0  0
 18 19  1  0  0  0
 18 25  1  0  0  0
 19 20  1  0  0  0
 20 21  1  0  0  0
 20 24  1  0  0  0
 21 22  1  0  0  0
 21 23  1  0  0  0
 23 51  1  0  0  0
 23 52  1  0  0  0
 24 53  1  0  0  0
 25 54  1  0  0  0
 26 55  1  0  0  0
 27 28  1  0  0  0
 28 29  2  0  0  0
 28 30  1  0  0  0
 30 31  1  0  0  0
 31 32  1  0  0  0
 31 36  1  0  0  0
 32 33  1  0  0  0
 33 34  2  0  0  0
 33 35  1  0  0  0
 35 56  1  0  0  0
 36 37  2  0  0  0
 36 38  1  0  0  0
 38 57  1  0  0  0
 39 40  1  0  0  0
 40 41  2  0  0  0
 40 42  1  0  0  0
 42 43  1  0  0  0
 43 44  1  0  0  0
 43 48  1  0  0  0
 44 45  1  0  0  0
 45 46  2  0  0  0
 45 47  1  0  0  0
 47 58  1  0  0  0
 48 49  2  0  0  0
 48 50  1  0  0  0
 50 59  1  0  0  0
M  END
>  <AUTHOR>
    GENERATED BY OPEN BABEL 2.4.1

>  <CHROM.1>
-65.47172915,-172.73208158,-51.52018211,-78.27380452,178.02217026,-75.25274867
178.99217221,-79.70471774,50.35756515,-156.95396850,-175.41554105,-174.57056520
71.81178702,-73.60277460,-170.43204711,64.85526703,-174.15284719,-64.02273533
177.12986292,179.63137871,-77.70240961,74.22509499,-171.03107970,-121.56241935
-157.83428480,47.03284690,-154.36920763,-133.12000856,8.75987816,-178.39014706
-176.56649075,-65.00046763,46.77744055,-169.64848022,-59.63462228,-86.40127549
16.05265476,178.62110254,-3.84748166,1.57941172,2.07120943,1.16194819,-0.02352512
-0.39123401,0.55162550

>  <COMPND>
    UNNAMED

>  <MASTER>
        0    0    0    0    0    0    0    0  109    0  109    0

>  <Name>
FB1.pdb

>  <RI>
0

>  <Rbt.Current_Directory>
/home/fc/tossine/FB1_39/p3/2_clust01

>  <Rbt.Executable>
rbdock/0.1.0

>  <Rbt.Library>
librxdock.so/0.1.0

>  <Rbt.Parameter_File>
/cluster/rxdock/data/scripts/dock.prm

>  <Rbt.Receptor>
rx_2.prm

>  <SCORE>
25.293

>  <SCORE.INTER>
2.32677

>  <SCORE.INTER.CONST>
1

>  <SCORE.INTER.POLAR>
-3.19466

>  <SCORE.INTER.REPUL>
0.524222

>  <SCORE.INTER.ROT>
32

>  <SCORE.INTER.VDW>
-26.8325

>  <SCORE.INTER.norm>
0.0465353

>  <SCORE.INTRA>
22.2162

>  <SCORE.INTRA.DIHEDRAL>
14.5022

>  <SCORE.INTRA.DIHEDRAL.0>
47.3121

>  <SCORE.INTRA.POLAR>
1.47808

>  <SCORE.INTRA.POLAR.0>
-1.47808

>  <SCORE.INTRA.REPUL>
0

>  <SCORE.INTRA.REPUL.0>
0

>  <SCORE.INTRA.VDW>
9.93961

>  <SCORE.INTRA.VDW.0>
-2.78316

>  <SCORE.INTRA.norm>
0.444323

>  <SCORE.RESTR>
0.750032

>  <SCORE.RESTR.CAVITY>
0.750032

>  <SCORE.RESTR.norm>
0.0150006

>  <SCORE.SYSTEM>
0

>  <SCORE.SYSTEM.CONST>
0

>  <SCORE.SYSTEM.DIHEDRAL>
0

>  <SCORE.SYSTEM.norm>
0

>  <SCORE.heavy>
50

>  <SCORE.norm>
0.505859

$$$$
