FB1.pdb
  RxDock  10072010573D
librxdock.so/0.1.0
 59 58  0  0  0  0  0  0  0  0999 V2000
  -10.7597   11.2407    4.8304 C   0  0  0  0  0  0
   -9.9630   11.0290    3.5452 C   0  0  0  0  0  0
  -10.8664   11.0715    2.3017 C   0  0  0  0  0  0
  -11.4729    9.6950    1.9316 C   0  0  0  0  0  0
  -11.7307    9.4759    0.4000 C   0  0  0  0  0  0
  -12.2377   10.8067   -0.2023 C   0  0  0  0  0  0
  -10.4589    8.9451   -0.3867 C   0  0  0  0  0  0
   -9.3890   10.0396   -0.8593 C   0  0  0  0  0  0
   -9.3285   10.6948   -2.3068 C   0  0  0  0  0  0
   -7.9857   11.6047   -2.6072 C   0  0  0  0  0  0
   -6.7657   10.6851   -2.6032 C   0  0  0  0  0  0
   -8.0043   12.4628   -3.9519 C   0  0  0  0  0  0
   -7.1654   13.8296   -4.1680 C   0  0  0  0  0  0
   -6.1972   14.0380   -5.3826 C   0  0  0  0  0  0
   -5.9523   15.5251   -5.9095 C   0  0  0  0  0  0
   -6.8310   16.2322   -7.0151 C   0  0  0  0  0  0
   -6.6027   15.8861   -8.5102 C   0  0  0  0  0  0
   -5.7141   16.8920   -9.3395 C   0  0  0  0  0  0
   -4.7624   16.2688  -10.3683 C   0  0  0  0  0  0
   -5.3754   15.6219  -11.6427 C   0  0  0  0  0  0
   -6.0569   16.5056  -12.7291 C   0  0  0  0  0  0
   -5.4204   17.8624  -12.9960 C   0  0  0  0  0  0
   -6.2357   15.7509  -13.9841 N   0  0  0  0  0  0
   -4.2516   14.9994  -12.3159 O   0  0  0  0  0  0
   -6.5898   17.7974  -10.0201 O   0  0  0  0  0  0
   -8.1615   14.8575   -4.3016 O   0  0  0  0  0  0
   -9.5394   11.1703    0.0415 O   0  0  0  0  0  0
   -8.4695   11.4890    0.8155 C   0  0  0  0  0  0
   -7.7904   10.7120    1.4593 O   0  0  0  0  0  0
   -8.1955   12.9601    0.6663 C   0  0  0  0  0  0
   -9.4570   13.8177    0.8553 C   0  0  0  0  0  0
   -9.3100   14.8386    1.9909 C   0  0  0  0  0  0
   -8.0806   15.6956    1.7978 C   0  0  0  0  0  0
   -8.1226   16.8869    1.5099 O   0  0  0  0  0  0
   -6.9308   15.0279    1.9736 O   0  0  0  0  0  0
   -9.6769   14.5442   -0.4788 C   0  0  0  0  0  0
   -9.1514   14.1927   -1.5242 O   0  0  0  0  0  0
  -10.4571   15.6305   -0.3949 O   0  0  0  0  0  0
   -9.8176    7.8169    0.3314 O   0  0  0  0  0  0
   -8.5208    7.4705   -0.0097 C   0  0  0  0  0  0
   -7.5831    8.2552   -0.0686 O   0  0  0  0  0  0
   -8.3765    5.9730   -0.3114 C   0  0  0  0  0  0
   -8.5450    5.5643   -1.8078 C   0  0  0  0  0  0
   -9.6517    6.2543   -2.6259 C   0  0  0  0  0  0
  -11.0198    6.0684   -2.0359 C   0  0  0  0  0  0
  -11.3035    5.3140   -1.1155 O   0  0  0  0  0  0
  -11.9410    6.8499   -2.6197 O   0  0  0  0  0  0
   -7.2569    5.6361   -2.6373 C   0  0  0  0  0  0
   -6.1572    5.7730   -2.1386 O   0  0  0  0  0  0
   -7.4088    5.4291   -3.9622 O   0  0  0  0  0  0
   -6.9665   15.0529  -13.8529 H   0  0  0  0  0  0
   -5.3859   15.2118  -14.1650 H   0  0  0  0  0  0
   -3.9843   14.2658  -11.7227 H   0  0  0  0  0  0
   -7.2974   17.2764  -10.4425 H   0  0  0  0  0  0
   -8.5954   14.9695   -3.4392 H   0  0  0  0  0  0
   -6.1258   15.5030    1.6912 H   0  0  0  0  0  0
  -10.7881   15.9658   -1.2649 H   0  0  0  0  0  0
  -11.4590    7.6090   -3.0107 H   0  0  0  0  0  0
   -6.5831    5.4837   -4.4928 H   0  0  0  0  0  0
  1  2  1  0  0  0
  2  3  1  0  0  0
  3  4  1  0  0  0
  4  5  1  0  0  0
  5  6  1  0  0  0
  5  7  1  0  0  0
  7  8  1  0  0  0
  7 39  1  0  0  0
  8  9  1  0  0  0
  8 27  1  0  0  0
  9 10  1  0  0  0
 10 11  1  0  0  0
 10 12  1  0  0  0
 12 13  1  0  0  0
 13 14  1  0  0  0
 13 26  1  0  0  0
 14 15  1  0  0  0
 15 16  1  0  0  0
 16 17  1  0  0  0
 17 18  1  0  0  0
 18 19  1  0  0  0
 18 25  1  0  0  0
 19 20  1  0  0  0
 20 21  1  0  0  0
 20 24  1  0  0  0
 21 22  1  0  0  0
 21 23  1  0  0  0
 23 51  1  0  0  0
 23 52  1  0  0  0
 24 53  1  0  0  0
 25 54  1  0  0  0
 26 55  1  0  0  0
 27 28  1  0  0  0
 28 29  2  0  0  0
 28 30  1  0  0  0
 30 31  1  0  0  0
 31 32  1  0  0  0
 31 36  1  0  0  0
 32 33  1  0  0  0
 33 34  2  0  0  0
 33 35  1  0  0  0
 35 56  1  0  0  0
 36 37  2  0  0  0
 36 38  1  0  0  0
 38 57  1  0  0  0
 39 40  1  0  0  0
 40 41  2  0  0  0
 40 42  1  0  0  0
 42 43  1  0  0  0
 43 44  1  0  0  0
 43 48  1  0  0  0
 44 45  1  0  0  0
 45 46  2  0  0  0
 45 47  1  0  0  0
 47 58  1  0  0  0
 48 49  2  0  0  0
 48 50  1  0  0  0
 50 59  1  0  0  0
M  END
>  <AUTHOR>
    GENERATED BY OPEN BABEL 2.4.1

>  <CHROM.1>
-88.14599531,-149.20032187,-38.27219244,-83.11845288,-96.55564989,-163.01443585
-170.39905487,117.22351572,65.60469270,153.49060503,126.62574354,151.97752007
68.81355871,-89.32613462,-78.41475207,-98.84335458,141.80628902,70.27019361
-46.86360058,68.73004722,36.74558573,67.66524682,71.41485672,-46.40858574
49.65664027,121.66650300,54.06967679,17.37770251,110.31937322,168.78415177
-165.23732747,51.49196960,92.43770935,-40.52862033,-58.08795959,12.07468469
-9.55437569,-23.73581252,179.46608927,-8.32650675,11.89217557,-2.82283520
2.93401279,-1.27550775,-2.78872510

>  <COMPND>
    UNNAMED

>  <MASTER>
        0    0    0    0    0    0    0    0  109    0  109    0

>  <Name>
FB1.pdb

>  <RI>
0

>  <Rbt.Current_Directory>
/home/fc/tossine/FB1_39/p3/2_clust01

>  <Rbt.Executable>
rbdock/0.1.0

>  <Rbt.Library>
librxdock.so/0.1.0

>  <Rbt.Parameter_File>
/cluster/rxdock/data/scripts/dock.prm

>  <Rbt.Receptor>
rx_0.prm

>  <SCORE>
21.4728

>  <SCORE.INTER>
-11.0546

>  <SCORE.INTER.CONST>
1

>  <SCORE.INTER.POLAR>
-6.11187

>  <SCORE.INTER.REPUL>
0.17226

>  <SCORE.INTER.ROT>
32

>  <SCORE.INTER.VDW>
-28.5355

>  <SCORE.INTER.norm>
-0.221091

>  <SCORE.INTRA>
31.6285

>  <SCORE.INTRA.DIHEDRAL>
52.4404

>  <SCORE.INTRA.DIHEDRAL.0>
47.3121

>  <SCORE.INTRA.POLAR>
0.327425

>  <SCORE.INTRA.POLAR.0>
-1.47808

>  <SCORE.INTRA.REPUL>
0

>  <SCORE.INTRA.REPUL.0>
0

>  <SCORE.INTRA.VDW>
4.29508

>  <SCORE.INTRA.VDW.0>
-2.78316

>  <SCORE.INTRA.norm>
0.63257

>  <SCORE.RESTR>
0.898891

>  <SCORE.RESTR.CAVITY>
0.898891

>  <SCORE.RESTR.norm>
0.0179778

>  <SCORE.SYSTEM>
0

>  <SCORE.SYSTEM.CONST>
0

>  <SCORE.SYSTEM.DIHEDRAL>
0

>  <SCORE.SYSTEM.norm>
0

>  <SCORE.heavy>
50

>  <SCORE.norm>
0.429456

$$$$
