FB1.pdb
  RxDock  10072013193D
librxdock.so/0.1.0
 59 58  0  0  0  0  0  0  0  0999 V2000
   10.5751    2.3381    3.5720 C   0  0  0  0  0  0
    9.5805    3.0486    2.6569 C   0  0  0  0  0  0
    9.1526    2.1569    1.4796 C   0  0  0  0  0  0
    8.0050    1.1778    1.8317 C   0  0  0  0  0  0
    6.6388    1.8608    2.1885 C   0  0  0  0  0  0
    5.9862    2.3556    0.8770 C   0  0  0  0  0  0
    5.6498    0.9163    2.9933 C   0  0  0  0  0  0
    4.5047    1.6312    3.8559 C   0  0  0  0  0  0
    4.6100    3.0856    4.4896 C   0  0  0  0  0  0
    5.1802    3.1349    6.0368 C   0  0  0  0  0  0
    3.9980    2.9941    6.9942 C   0  0  0  0  0  0
    6.2999    2.0610    6.4080 C   0  0  0  0  0  0
    7.6598    2.4089    7.2131 C   0  0  0  0  0  0
    9.0707    2.3788    6.5316 C   0  0  0  0  0  0
   10.3575    2.6294    7.4430 C   0  0  0  0  0  0
   10.5119    3.8365    8.4497 C   0  0  0  0  0  0
   10.9643    5.2223    7.9183 C   0  0  0  0  0  0
   10.2957    5.7163    6.5774 C   0  0  0  0  0  0
   10.3321    7.2273    6.3166 C   0  0  0  0  0  0
    9.8905    7.7451    4.9183 C   0  0  0  0  0  0
    9.1354    9.0999    4.7784 C   0  0  0  0  0  0
    9.0019    9.9350    6.0441 C   0  0  0  0  0  0
    9.6953    9.9020    3.6741 N   0  0  0  0  0  0
   11.1291    7.9282    4.1861 O   0  0  0  0  0  0
   10.9452    5.0511    5.4887 O   0  0  0  0  0  0
    7.4880    3.7643    7.6603 O   0  0  0  0  0  0
    3.3318    1.6957    2.9999 O   0  0  0  0  0  0
    2.1233    1.7781    3.6147 C   0  0  0  0  0  0
    1.9141    1.6682    4.8079 O   0  0  0  0  0  0
    1.0876    2.1315    2.5833 C   0  0  0  0  0  0
    0.9968    1.0896    1.4569 C   0  0  0  0  0  0
   -0.4001    1.0248    0.8262 C   0  0  0  0  0  0
   -1.0063    2.4033    0.7014 C   0  0  0  0  0  0
   -1.9756    2.7795    1.3514 O   0  0  0  0  0  0
   -0.3799    3.1835   -0.1918 O   0  0  0  0  0  0
    2.0292    1.5155    0.4040 C   0  0  0  0  0  0
    2.2773    0.8539   -0.5926 O   0  0  0  0  0  0
    2.6759    2.6533    0.6922 O   0  0  0  0  0  0
    5.1022   -0.1520    2.1224 O   0  0  0  0  0  0
    5.0519   -1.4446    2.6172 C   0  0  0  0  0  0
    5.1614   -1.7424    3.7994 O   0  0  0  0  0  0
    4.8398   -2.4857    1.5102 C   0  0  0  0  0  0
    4.4592   -1.9159    0.1084 C   0  0  0  0  0  0
    5.1151   -2.5491   -1.1322 C   0  0  0  0  0  0
    6.5868   -2.7909   -0.9587 C   0  0  0  0  0  0
    7.2337   -3.6750   -1.5031 O   0  0  0  0  0  0
    7.1589   -1.9020   -0.1323 O   0  0  0  0  0  0
    2.9513   -1.8449   -0.1630 C   0  0  0  0  0  0
    2.4530   -2.1904   -1.2161 O   0  0  0  0  0  0
    2.1906   -1.4713    0.8872 O   0  0  0  0  0  0
    9.2414    9.6329    2.8022 H   0  0  0  0  0  0
   10.6774    9.6460    3.5497 H   0  0  0  0  0  0
   11.4859    7.0218    4.0744 H   0  0  0  0  0  0
   10.4432    5.2390    4.6744 H   0  0  0  0  0  0
    7.5101    4.3434    6.8802 H   0  0  0  0  0  0
   -0.6101    4.1316   -0.1506 H   0  0  0  0  0  0
    3.0577    2.6883    1.6042 H   0  0  0  0  0  0
    8.0804   -2.2043    0.0116 H   0  0  0  0  0  0
    2.6858   -1.2549    1.7082 H   0  0  0  0  0  0
  1  2  1  0  0  0
  2  3  1  0  0  0
  3  4  1  0  0  0
  4  5  1  0  0  0
  5  6  1  0  0  0
  5  7  1  0  0  0
  7  8  1  0  0  0
  7 39  1  0  0  0
  8  9  1  0  0  0
  8 27  1  0  0  0
  9 10  1  0  0  0
 10 11  1  0  0  0
 10 12  1  0  0  0
 12 13  1  0  0  0
 13 14  1  0  0  0
 13 26  1  0  0  0
 14 15  1  0  0  0
 15 16  1  0  0  0
 16 17  1  0  0  0
 17 18  1  0  0  0
 18 19  1  0  0  0
 18 25  1  0  0  0
 19 20  1  0  0  0
 20 21  1  0  0  0
 20 24  1  0  0  0
 21 22  1  0  0  0
 21 23  1  0  0  0
 23 51  1  0  0  0
 23 52  1  0  0  0
 24 53  1  0  0  0
 25 54  1  0  0  0
 26 55  1  0  0  0
 27 28  1  0  0  0
 28 29  2  0  0  0
 28 30  1  0  0  0
 30 31  1  0  0  0
 31 32  1  0  0  0
 31 36  1  0  0  0
 32 33  1  0  0  0
 33 34  2  0  0  0
 33 35  1  0  0  0
 35 56  1  0  0  0
 36 37  2  0  0  0
 36 38  1  0  0  0
 38 57  1  0  0  0
 39 40  1  0  0  0
 40 41  2  0  0  0
 40 42  1  0  0  0
 42 43  1  0  0  0
 43 44  1  0  0  0
 43 48  1  0  0  0
 44 45  1  0  0  0
 45 46  2  0  0  0
 45 47  1  0  0  0
 47 58  1  0  0  0
 48 49  2  0  0  0
 48 50  1  0  0  0
 50 59  1  0  0  0
M  END
>  <AUTHOR>
    GENERATED BY OPEN BABEL 2.4.1

>  <CHROM.1>
83.57027813,64.92290202,75.55030473,158.13212516,-27.91444611,135.75878020
-92.10485735,155.71946879,-88.64143517,134.01201824,-110.34669721,-175.39524218
-68.84214118,-49.69757302,-82.20560791,43.53368184,158.66543813,170.61450862
170.84914159,144.82872049,6.55136425,66.55654081,86.51857603,-7.94201126
59.70806385,151.85838051,38.65716155,175.30109317,-111.86651808,-166.56121606
49.89433780,15.89564341,-10.88533545,138.71801921,-43.92007910,-135.96154604
150.89152967,172.78845988,1.94670226,5.76056286,2.18926635,3.08440339,-0.82629588
0.21918439,-2.63179939

>  <COMPND>
    UNNAMED

>  <MASTER>
        0    0    0    0    0    0    0    0  109    0  109    0

>  <Name>
FB1.pdb

>  <RI>
0

>  <Rbt.Current_Directory>
/home/fc/tossine/FB1_39/p3/2_clust01

>  <Rbt.Executable>
rbdock/0.1.0

>  <Rbt.Library>
librxdock.so/0.1.0

>  <Rbt.Parameter_File>
/cluster/rxdock/data/scripts/dock.prm

>  <Rbt.Receptor>
rx_3.prm

>  <SCORE>
35.5432

>  <SCORE.INTER>
10.6635

>  <SCORE.INTER.CONST>
1

>  <SCORE.INTER.POLAR>
-1.01714

>  <SCORE.INTER.REPUL>
0.50672

>  <SCORE.INTER.ROT>
32

>  <SCORE.INTER.VDW>
-25.8118

>  <SCORE.INTER.norm>
0.21327

>  <SCORE.INTRA>
24.0925

>  <SCORE.INTRA.DIHEDRAL>
42

>  <SCORE.INTRA.DIHEDRAL.0>
47.3121

>  <SCORE.INTRA.POLAR>
0.35535

>  <SCORE.INTRA.POLAR.0>
-1.47808

>  <SCORE.INTRA.REPUL>
0

>  <SCORE.INTRA.REPUL.0>
0

>  <SCORE.INTRA.VDW>
1.88428

>  <SCORE.INTRA.VDW.0>
-2.78316

>  <SCORE.INTRA.norm>
0.481849

>  <SCORE.RESTR>
0.787213

>  <SCORE.RESTR.CAVITY>
0.787213

>  <SCORE.RESTR.norm>
0.0157443

>  <SCORE.SYSTEM>
0

>  <SCORE.SYSTEM.CONST>
0

>  <SCORE.SYSTEM.DIHEDRAL>
0

>  <SCORE.SYSTEM.norm>
0

>  <SCORE.heavy>
50

>  <SCORE.norm>
0.710864

$$$$
