FB1.pdb
  RxDock  09132008393D
librxdock.so/0.1.0
 59 58  0  0  0  0  0  0  0  0999 V2000
    6.2011    3.5601    8.1844 C   0  0  0  0  0  0
    4.7078    3.2501    8.1126 C   0  0  0  0  0  0
    4.3637    2.3861    6.8882 C   0  0  0  0  0  0
    4.2663    3.1940    5.5700 C   0  0  0  0  0  0
    4.3816    2.3390    4.2600 C   0  0  0  0  0  0
    3.9351    3.2156    3.0672 C   0  0  0  0  0  0
    5.8331    1.7460    4.0164 C   0  0  0  0  0  0
    5.9220    0.3150    3.3020 C   0  0  0  0  0  0
    4.7073   -0.6953    3.1229 C   0  0  0  0  0  0
    3.8567   -0.5247    1.7197 C   0  0  0  0  0  0
    3.3470   -1.8998    1.2913 C   0  0  0  0  0  0
    2.6421    0.5088    1.7551 C   0  0  0  0  0  0
    1.4324    0.4513    2.8284 C   0  0  0  0  0  0
   -0.0509    0.7766    2.4408 C   0  0  0  0  0  0
   -0.3816    2.2273    1.8618 C   0  0  0  0  0  0
   -1.6176    2.5532    0.9340 C   0  0  0  0  0  0
   -1.9503    4.0302    0.5946 C   0  0  0  0  0  0
   -3.3241    4.2942   -0.1349 C   0  0  0  0  0  0
   -3.4001    3.8825   -1.6104 C   0  0  0  0  0  0
   -3.7225    2.3987   -1.9462 C   0  0  0  0  0  0
   -4.6734    2.0432   -3.1272 C   0  0  0  0  0  0
   -4.6287    2.9685   -4.3352 C   0  0  0  0  0  0
   -4.5020    0.6357   -3.5345 N   0  0  0  0  0  0
   -2.4435    1.8168   -2.3057 O   0  0  0  0  0  0
   -4.3473    3.5979    0.5848 O   0  0  0  0  0  0
    1.4102   -0.9108    3.2876 O   0  0  0  0  0  0
    6.3845    0.5653    1.9470 O   0  0  0  0  0  0
    7.7257    0.6811    1.7646 C   0  0  0  0  0  0
    8.5724    0.6893    2.6377 O   0  0  0  0  0  0
    8.0055    0.6961    0.2871 C   0  0  0  0  0  0
    8.4623    2.0758   -0.2132 C   0  0  0  0  0  0
    9.8357    2.0296   -0.8951 C   0  0  0  0  0  0
   10.9050    1.5609    0.0641 C   0  0  0  0  0  0
   11.5340    0.5179   -0.0782 O   0  0  0  0  0  0
   11.1050    2.3986    1.0923 O   0  0  0  0  0  0
    7.3939    2.5364   -1.2145 C   0  0  0  0  0  0
    6.4334    1.8497   -1.5279 O   0  0  0  0  0  0
    7.6269    3.7392   -1.7576 O   0  0  0  0  0  0
    6.7178    2.7449    3.3687 O   0  0  0  0  0  0
    7.9850    2.9407    3.8921 C   0  0  0  0  0  0
    8.3396    2.5860    5.0087 O   0  0  0  0  0  0
    8.9176    3.6612    2.9096 C   0  0  0  0  0  0
   10.2445    4.2137    3.5165 C   0  0  0  0  0  0
   10.1508    5.1115    4.7637 C   0  0  0  0  0  0
   11.1983    6.1868    4.7925 C   0  0  0  0  0  0
   12.1843    6.2420    4.0704 O   0  0  0  0  0  0
   10.9372    7.1333    5.7071 O   0  0  0  0  0  0
   11.3066    3.1457    3.8060 C   0  0  0  0  0  0
   11.0286    1.9922    4.0682 O   0  0  0  0  0  0
   12.5864    3.5430    3.6459 O   0  0  0  0  0  0
   -4.7007    0.0311   -2.7386 H   0  0  0  0  0  0
   -3.5149    0.4751   -3.7474 H   0  0  0  0  0  0
   -2.2737    2.1379   -3.2165 H   0  0  0  0  0  0
   -4.3416    3.9164    1.5063 H   0  0  0  0  0  0
    1.0352   -1.4607    2.5794 H   0  0  0  0  0  0
   10.5830    3.2234    1.0652 H   0  0  0  0  0  0
    8.3841    4.2317   -1.3539 H   0  0  0  0  0  0
   11.5425    7.8812    5.5186 H   0  0  0  0  0  0
   12.7028    4.4677    3.3337 H   0  0  0  0  0  0
  1  2  1  0  0  0
  2  3  1  0  0  0
  3  4  1  0  0  0
  4  5  1  0  0  0
  5  6  1  0  0  0
  5  7  1  0  0  0
  7  8  1  0  0  0
  7 39  1  0  0  0
  8  9  1  0  0  0
  8 27  1  0  0  0
  9 10  1  0  0  0
 10 11  1  0  0  0
 10 12  1  0  0  0
 12 13  1  0  0  0
 13 14  1  0  0  0
 13 26  1  0  0  0
 14 15  1  0  0  0
 15 16  1  0  0  0
 16 17  1  0  0  0
 17 18  1  0  0  0
 18 19  1  0  0  0
 18 25  1  0  0  0
 19 20  1  0  0  0
 20 21  1  0  0  0
 20 24  1  0  0  0
 21 22  1  0  0  0
 21 23  1  0  0  0
 23 51  1  0  0  0
 23 52  1  0  0  0
 24 53  1  0  0  0
 25 54  1  0  0  0
 26 55  1  0  0  0
 27 28  1  0  0  0
 28 29  2  0  0  0
 28 30  1  0  0  0
 30 31  1  0  0  0
 31 32  1  0  0  0
 31 36  1  0  0  0
 32 33  1  0  0  0
 33 34  2  0  0  0
 33 35  1  0  0  0
 35 56  1  0  0  0
 36 37  2  0  0  0
 36 38  1  0  0  0
 38 57  1  0  0  0
 39 40  1  0  0  0
 40 41  2  0  0  0
 40 42  1  0  0  0
 42 43  1  0  0  0
 43 44  1  0  0  0
 43 48  1  0  0  0
 44 45  1  0  0  0
 45 46  2  0  0  0
 45 47  1  0  0  0
 47 58  1  0  0  0
 48 49  2  0  0  0
 48 50  1  0  0  0
 50 59  1  0  0  0
M  END
>  <AUTHOR>
    GENERATED BY OPEN BABEL 2.4.1

>  <CHROM.1>
-79.72127967,161.12085210,166.72836635,146.63553628,-14.83669605,132.52380923
91.11311316,84.06833765,147.42485070,-54.68576179,-141.76474320,-59.94338417
-73.93241609,155.42279209,171.48733924,-170.29158886,-73.14167093,83.50412518
57.64328263,139.90879917,33.80443935,-76.94160935,59.00727407,-5.53567944
109.47996396,122.30164915,-61.33501483,-2.55752834,115.69722519,-3.64887295
-8.18613569,-17.08098720,166.49151790,-52.33780403,-145.64594374,-28.24156902
-12.91858750,-167.34133301,-1.79746125,4.96171843,2.34986611,1.95425052,0.33179678
0.01671523,1.35105266

>  <COMPND>
    UNNAMED

>  <MASTER>
        0    0    0    0    0    0    0    0  109    0  109    0

>  <Name>
FB1.pdb

>  <RI>
0

>  <Rbt.Current_Directory>
/home/fc/tossine/FB1_39/p3/2_clust01

>  <Rbt.Executable>
rbdock/0.1.0

>  <Rbt.Library>
librxdock.so/0.1.0

>  <Rbt.Parameter_File>
/cluster/rxdock/data/scripts/dock.prm

>  <Rbt.Receptor>
rx_2.prm

>  <SCORE>
12.4129

>  <SCORE.INTER>
5.24114e-05

>  <SCORE.INTER.CONST>
1

>  <SCORE.INTER.POLAR>
-1.06825

>  <SCORE.INTER.REPUL>
0.258415

>  <SCORE.INTER.ROT>
32

>  <SCORE.INTER.VDW>
-35.06

>  <SCORE.INTER.norm>
1.04823e-06

>  <SCORE.INTRA>
11.5615

>  <SCORE.INTRA.DIHEDRAL>
20.2491

>  <SCORE.INTRA.DIHEDRAL.0>
47.3121

>  <SCORE.INTRA.POLAR>
1.05845

>  <SCORE.INTRA.POLAR.0>
-1.47808

>  <SCORE.INTRA.REPUL>
0

>  <SCORE.INTRA.REPUL.0>
0

>  <SCORE.INTRA.VDW>
-2.16181

>  <SCORE.INTRA.VDW.0>
-2.78316

>  <SCORE.INTRA.norm>
0.231229

>  <SCORE.RESTR>
0.851398

>  <SCORE.RESTR.CAVITY>
0.851398

>  <SCORE.RESTR.norm>
0.017028

>  <SCORE.SYSTEM>
0

>  <SCORE.SYSTEM.CONST>
0

>  <SCORE.SYSTEM.DIHEDRAL>
0

>  <SCORE.SYSTEM.norm>
0

>  <SCORE.heavy>
50

>  <SCORE.norm>
0.248258

$$$$
