FB1.pdb
  RxDock  10072012463D
librxdock.so/0.1.0
 59 58  0  0  0  0  0  0  0  0999 V2000
   -9.7078    0.5208   -4.4493 C   0  0  0  0  0  0
   -8.7157    1.2544   -3.5499 C   0  0  0  0  0  0
   -8.8373    2.7804   -3.6940 C   0  0  0  0  0  0
   -7.7047    3.5603   -2.9808 C   0  0  0  0  0  0
   -8.0623    5.0368   -2.5904 C   0  0  0  0  0  0
   -9.3319    5.0118   -1.7083 C   0  0  0  0  0  0
   -6.8796    5.8031   -1.8610 C   0  0  0  0  0  0
   -7.2755    6.7356   -0.6201 C   0  0  0  0  0  0
   -6.2820    7.7164    0.1410 C   0  0  0  0  0  0
   -6.8986    9.2071    0.4860 C   0  0  0  0  0  0
   -6.2972    9.6872    1.8058 C   0  0  0  0  0  0
   -6.6976   10.3271   -0.6321 C   0  0  0  0  0  0
   -7.6386   11.6345   -0.7865 C   0  0  0  0  0  0
   -8.0677   12.5104    0.4402 C   0  0  0  0  0  0
   -8.4184   14.0474    0.1877 C   0  0  0  0  0  0
   -7.3473   15.2073    0.1409 C   0  0  0  0  0  0
   -6.6473   15.5479   -1.2012 C   0  0  0  0  0  0
   -5.8171   16.8889   -1.2435 C   0  0  0  0  0  0
   -5.1622   17.2405   -2.5851 C   0  0  0  0  0  0
   -6.0749   17.3843   -3.8360 C   0  0  0  0  0  0
   -5.4608   17.3914   -5.2671 C   0  0  0  0  0  0
   -4.1233   18.1006   -5.4269 C   0  0  0  0  0  0
   -5.4028   16.0253   -5.8209 N   0  0  0  0  0  0
   -6.9329   16.2153   -3.8014 O   0  0  0  0  0  0
   -6.6895   17.9605   -0.8687 O   0  0  0  0  0  0
   -6.8995   12.5229   -1.6416 O   0  0  0  0  0  0
   -8.3470    7.5996   -1.0866 O   0  0  0  0  0  0
   -9.4000    7.7840   -0.2484 C   0  0  0  0  0  0
   -9.4802    7.3970    0.9019 O   0  0  0  0  0  0
  -10.4202    8.6401   -0.9468 C   0  0  0  0  0  0
  -11.2370    7.8558   -1.9862 C   0  0  0  0  0  0
  -12.4416    7.1358   -1.3667 C   0  0  0  0  0  0
  -13.2338    6.3947   -2.4186 C   0  0  0  0  0  0
  -13.9721    6.9477   -3.2266 O   0  0  0  0  0  0
  -13.0518    5.0663   -2.3873 O   0  0  0  0  0  0
  -11.7151    8.8900   -3.0147 C   0  0  0  0  0  0
  -11.7866    8.6565   -4.2117 O   0  0  0  0  0  0
  -12.0026   10.0924   -2.4973 O   0  0  0  0  0  0
   -5.7681    4.8793   -1.5278 O   0  0  0  0  0  0
   -5.7180    4.3414   -0.2526 C   0  0  0  0  0  0
   -6.6869    3.9144    0.3616 O   0  0  0  0  0  0
   -4.2955    4.3347    0.3227 C   0  0  0  0  0  0
   -3.2213    3.5970   -0.5354 C   0  0  0  0  0  0
   -2.8154    4.2241   -1.8817 C   0  0  0  0  0  0
   -2.4837    3.2008   -2.9291 C   0  0  0  0  0  0
   -1.5141    2.4549   -2.9162 O   0  0  0  0  0  0
   -3.3936    3.1615   -3.9145 O   0  0  0  0  0  0
   -1.9273    3.2593    0.2154 C   0  0  0  0  0  0
   -1.7574    3.5222    1.3896 O   0  0  0  0  0  0
   -1.0188    2.5494   -0.4860 O   0  0  0  0  0  0
   -4.6037   15.9532   -6.4493 H   0  0  0  0  0  0
   -6.2206   15.8794   -6.4169 H   0  0  0  0  0  0
   -7.5703   16.3554   -4.5331 H   0  0  0  0  0  0
   -7.5891   17.7413   -1.1740 H   0  0  0  0  0  0
   -6.8834   12.1375   -2.5336 H   0  0  0  0  0  0
  -12.4136    4.7178   -3.0391 H   0  0  0  0  0  0
  -12.4006   10.7307   -3.1399 H   0  0  0  0  0  0
   -3.1056    2.4596   -4.5355 H   0  0  0  0  0  0
   -0.1913    2.3324   -0.0020 H   0  0  0  0  0  0
  1  2  1  0  0  0
  2  3  1  0  0  0
  3  4  1  0  0  0
  4  5  1  0  0  0
  5  6  1  0  0  0
  5  7  1  0  0  0
  7  8  1  0  0  0
  7 39  1  0  0  0
  8  9  1  0  0  0
  8 27  1  0  0  0
  9 10  1  0  0  0
 10 11  1  0  0  0
 10 12  1  0  0  0
 12 13  1  0  0  0
 13 14  1  0  0  0
 13 26  1  0  0  0
 14 15  1  0  0  0
 15 16  1  0  0  0
 16 17  1  0  0  0
 17 18  1  0  0  0
 18 19  1  0  0  0
 18 25  1  0  0  0
 19 20  1  0  0  0
 20 21  1  0  0  0
 20 24  1  0  0  0
 21 22  1  0  0  0
 21 23  1  0  0  0
 23 51  1  0  0  0
 23 52  1  0  0  0
 24 53  1  0  0  0
 25 54  1  0  0  0
 26 55  1  0  0  0
 27 28  1  0  0  0
 28 29  2  0  0  0
 28 30  1  0  0  0
 30 31  1  0  0  0
 31 32  1  0  0  0
 31 36  1  0  0  0
 32 33  1  0  0  0
 33 34  2  0  0  0
 33 35  1  0  0  0
 35 56  1  0  0  0
 36 37  2  0  0  0
 36 38  1  0  0  0
 38 57  1  0  0  0
 39 40  1  0  0  0
 40 41  2  0  0  0
 40 42  1  0  0  0
 42 43  1  0  0  0
 43 44  1  0  0  0
 43 48  1  0  0  0
 44 45  1  0  0  0
 45 46  2  0  0  0
 45 47  1  0  0  0
 47 58  1  0  0  0
 48 49  2  0  0  0
 48 50  1  0  0  0
 50 59  1  0  0  0
M  END
>  <AUTHOR>
    GENERATED BY OPEN BABEL 2.4.1

>  <CHROM.1>
-170.62582745,-156.18879363,56.24532037,-138.93578615,-172.52314957,-96.36019159
136.40126534,136.60237986,146.80420933,156.26119214,45.32243827,153.71757506
69.49254851,-84.85077833,87.75460301,168.03745253,-178.25047313,57.96975210
-32.23352632,-164.96003628,-37.20369007,174.10668307,-149.25982799,7.21925737
77.06145404,85.33169150,179.06727868,142.74326008,-74.73999492,-98.81280933
-173.86797343,42.43296476,-56.23548680,68.67686489,-146.09880279,1.23628819
-68.29577302,-178.90151011,-179.86148318,-7.22102749,8.46017003,-1.75040016
1.51596555,0.11040237,3.08458464

>  <COMPND>
    UNNAMED

>  <MASTER>
        0    0    0    0    0    0    0    0  109    0  109    0

>  <Name>
FB1.pdb

>  <RI>
0

>  <Rbt.Current_Directory>
/home/fc/tossine/FB1_39/p3/2_clust01

>  <Rbt.Executable>
rbdock/0.1.0

>  <Rbt.Library>
librxdock.so/0.1.0

>  <Rbt.Parameter_File>
/cluster/rxdock/data/scripts/dock.prm

>  <Rbt.Receptor>
rx_2.prm

>  <SCORE>
36.7402

>  <SCORE.INTER>
3.40548

>  <SCORE.INTER.CONST>
1

>  <SCORE.INTER.POLAR>
-1.99552

>  <SCORE.INTER.REPUL>
0.101844

>  <SCORE.INTER.ROT>
32

>  <SCORE.INTER.VDW>
-27.719

>  <SCORE.INTER.norm>
0.0681095

>  <SCORE.INTRA>
33.2344

>  <SCORE.INTRA.DIHEDRAL>
47.2236

>  <SCORE.INTRA.DIHEDRAL.0>
47.3121

>  <SCORE.INTRA.POLAR>
1.47808

>  <SCORE.INTRA.POLAR.0>
-1.47808

>  <SCORE.INTRA.REPUL>
0.217526

>  <SCORE.INTRA.REPUL.0>
0

>  <SCORE.INTRA.VDW>
3.50948

>  <SCORE.INTRA.VDW.0>
-2.78316

>  <SCORE.INTRA.norm>
0.664687

>  <SCORE.RESTR>
0.10041

>  <SCORE.RESTR.CAVITY>
0.10041

>  <SCORE.RESTR.norm>
0.0020082

>  <SCORE.SYSTEM>
0

>  <SCORE.SYSTEM.CONST>
0

>  <SCORE.SYSTEM.DIHEDRAL>
0

>  <SCORE.SYSTEM.norm>
0

>  <SCORE.heavy>
50

>  <SCORE.norm>
0.734805

$$$$
