FB1.pdb
  RxDock  10072011003D
librxdock.so/0.1.0
 59 58  0  0  0  0  0  0  0  0999 V2000
  -12.2175    5.4153    3.5212 C   0  0  0  0  0  0
  -11.4688    6.0730    2.3643 C   0  0  0  0  0  0
  -12.2077    7.3158    1.8411 C   0  0  0  0  0  0
  -11.3564    8.1807    0.8784 C   0  0  0  0  0  0
  -12.1754    8.9680   -0.2032 C   0  0  0  0  0  0
  -12.5867   10.3322    0.3972 C   0  0  0  0  0  0
  -11.3952    9.1621   -1.5712 C   0  0  0  0  0  0
   -9.8843    9.6860   -1.4768 C   0  0  0  0  0  0
   -9.1074   10.4516   -2.6338 C   0  0  0  0  0  0
   -7.6003   10.9866   -2.2290 C   0  0  0  0  0  0
   -6.7354    9.7780   -1.8750 C   0  0  0  0  0  0
   -6.8534   11.8772   -3.3216 C   0  0  0  0  0  0
   -7.3186   13.3665   -3.7508 C   0  0  0  0  0  0
   -6.7502   14.0915   -5.0187 C   0  0  0  0  0  0
   -6.9835   15.6646   -5.1598 C   0  0  0  0  0  0
   -7.3770   16.3872   -6.5080 C   0  0  0  0  0  0
   -6.3435   16.4671   -7.6625 C   0  0  0  0  0  0
   -4.9569   17.1388   -7.3230 C   0  0  0  0  0  0
   -4.2106   17.7868   -8.4959 C   0  0  0  0  0  0
   -3.1927   16.9208   -9.2909 C   0  0  0  0  0  0
   -3.6341   15.5746   -9.9377 C   0  0  0  0  0  0
   -4.8401   15.6317  -10.8649 C   0  0  0  0  0  0
   -2.4939   14.9089  -10.5959 N   0  0  0  0  0  0
   -2.7888   17.7577  -10.4046 O   0  0  0  0  0  0
   -5.1828   18.1361   -6.3210 O   0  0  0  0  0  0
   -8.7333   13.2594   -3.9825 O   0  0  0  0  0  0
   -9.8411   10.6007   -0.3481 O   0  0  0  0  0  0
  -10.3121   11.8580   -0.5546 C   0  0  0  0  0  0
  -10.8916   12.2550   -1.5476 O   0  0  0  0  0  0
  -10.0886   12.6615    0.6967 C   0  0  0  0  0  0
   -9.3077   13.9590    0.4335 C   0  0  0  0  0  0
  -10.1714   15.0427   -0.2245 C   0  0  0  0  0  0
   -9.7573   16.4220    0.2329 C   0  0  0  0  0  0
  -10.5373   17.2435    0.7025 O   0  0  0  0  0  0
   -8.4475   16.6656    0.0780 O   0  0  0  0  0  0
   -8.8154   14.4406    1.8052 C   0  0  0  0  0  0
   -9.5617   14.6248    2.7547 O   0  0  0  0  0  0
   -7.5003   14.6917    1.8640 O   0  0  0  0  0  0
  -11.5118    7.9582   -2.4296 O   0  0  0  0  0  0
  -10.7245    7.8805   -3.5663 C   0  0  0  0  0  0
  -10.9844    8.4238   -4.6319 O   0  0  0  0  0  0
   -9.4678    7.0273   -3.3487 C   0  0  0  0  0  0
   -9.7193    5.5263   -3.0049 C   0  0  0  0  0  0
   -8.4987    4.6415   -2.6925 C   0  0  0  0  0  0
   -7.3110    4.9542   -3.5562 C   0  0  0  0  0  0
   -6.7132    6.0210   -3.5883 O   0  0  0  0  0  0
   -6.9349    3.9094   -4.3093 O   0  0  0  0  0  0
  -10.7465    5.2909   -1.8905 C   0  0  0  0  0  0
  -11.7273    4.5881   -2.0344 O   0  0  0  0  0  0
  -10.4368    5.8315   -0.6934 O   0  0  0  0  0  0
   -2.3827   15.2881  -11.5353 H   0  0  0  0  0  0
   -2.7273   13.9233  -10.7356 H   0  0  0  0  0  0
   -2.3728   18.5409   -9.9865 H   0  0  0  0  0  0
   -5.7463   18.8322   -6.7062 H   0  0  0  0  0  0
   -9.1613   13.0464   -3.1363 H   0  0  0  0  0  0
   -8.1440   17.5346    0.4039 H   0  0  0  0  0  0
   -7.1949   15.0800    2.7211 H   0  0  0  0  0  0
   -7.5952    3.2008   -4.1573 H   0  0  0  0  0  0
   -9.5888    6.3277   -0.6638 H   0  0  0  0  0  0
  1  2  1  0  0  0
  2  3  1  0  0  0
  3  4  1  0  0  0
  4  5  1  0  0  0
  5  6  1  0  0  0
  5  7  1  0  0  0
  7  8  1  0  0  0
  7 39  1  0  0  0
  8  9  1  0  0  0
  8 27  1  0  0  0
  9 10  1  0  0  0
 10 11  1  0  0  0
 10 12  1  0  0  0
 12 13  1  0  0  0
 13 14  1  0  0  0
 13 26  1  0  0  0
 14 15  1  0  0  0
 15 16  1  0  0  0
 16 17  1  0  0  0
 17 18  1  0  0  0
 18 19  1  0  0  0
 18 25  1  0  0  0
 19 20  1  0  0  0
 20 21  1  0  0  0
 20 24  1  0  0  0
 21 22  1  0  0  0
 21 23  1  0  0  0
 23 51  1  0  0  0
 23 52  1  0  0  0
 24 53  1  0  0  0
 25 54  1  0  0  0
 26 55  1  0  0  0
 27 28  1  0  0  0
 28 29  2  0  0  0
 28 30  1  0  0  0
 30 31  1  0  0  0
 31 32  1  0  0  0
 31 36  1  0  0  0
 32 33  1  0  0  0
 33 34  2  0  0  0
 33 35  1  0  0  0
 35 56  1  0  0  0
 36 37  2  0  0  0
 36 38  1  0  0  0
 38 57  1  0  0  0
 39 40  1  0  0  0
 40 41  2  0  0  0
 40 42  1  0  0  0
 42 43  1  0  0  0
 43 44  1  0  0  0
 43 48  1  0  0  0
 44 45  1  0  0  0
 45 46  2  0  0  0
 45 47  1  0  0  0
 47 58  1  0  0  0
 48 49  2  0  0  0
 48 50  1  0  0  0
 50 59  1  0  0  0
M  END
>  <AUTHOR>
    GENERATED BY OPEN BABEL 2.4.1

>  <CHROM.1>
167.97236262,150.41325093,88.18103626,-47.73989411,-155.94486417,-170.29869419
175.29172487,-79.20312993,61.67370241,68.16377538,-167.18669784,-165.04455262
65.19723711,-138.48646066,-68.97607531,-56.61728305,-153.35838968,-91.32055158
-64.75979064,55.77416914,53.91913758,61.35196306,-84.37591543,8.08414250
125.57924322,75.70696542,146.65916940,-54.63229334,-126.99358807,-177.27333693
174.70185908,-81.21601934,62.57682208,-176.37885060,-38.24819562,124.68338346
62.35589189,4.63851147,0.59090358,-8.54070605,11.50856438,-2.80428803,2.59830630
-1.03381198,-2.84552708

>  <COMPND>
    UNNAMED

>  <MASTER>
        0    0    0    0    0    0    0    0  109    0  109    0

>  <Name>
FB1.pdb

>  <RI>
0

>  <Rbt.Current_Directory>
/home/fc/tossine/FB1_39/p3/2_clust01

>  <Rbt.Executable>
rbdock/0.1.0

>  <Rbt.Library>
librxdock.so/0.1.0

>  <Rbt.Parameter_File>
/cluster/rxdock/data/scripts/dock.prm

>  <Rbt.Receptor>
rx_0.prm

>  <SCORE>
15.7999

>  <SCORE.INTER>
-1.45319

>  <SCORE.INTER.CONST>
1

>  <SCORE.INTER.POLAR>
-1.62332

>  <SCORE.INTER.REPUL>
0.362

>  <SCORE.INTER.ROT>
32

>  <SCORE.INTER.VDW>
-35.1439

>  <SCORE.INTER.norm>
-0.0290639

>  <SCORE.INTRA>
17.058

>  <SCORE.INTRA.DIHEDRAL>
20.798

>  <SCORE.INTRA.DIHEDRAL.0>
47.3121

>  <SCORE.INTRA.POLAR>
1.47808

>  <SCORE.INTRA.POLAR.0>
-1.47808

>  <SCORE.INTRA.REPUL>
0

>  <SCORE.INTRA.REPUL.0>
0

>  <SCORE.INTRA.VDW>
1.63359

>  <SCORE.INTRA.VDW.0>
-2.78316

>  <SCORE.INTRA.norm>
0.341161

>  <SCORE.RESTR>
0.195057

>  <SCORE.RESTR.CAVITY>
0.195057

>  <SCORE.RESTR.norm>
0.00390114

>  <SCORE.SYSTEM>
0

>  <SCORE.SYSTEM.CONST>
0

>  <SCORE.SYSTEM.DIHEDRAL>
0

>  <SCORE.SYSTEM.norm>
0

>  <SCORE.heavy>
50

>  <SCORE.norm>
0.315998

$$$$
