FB1.pdb
  RxDock  10072011503D
librxdock.so/0.1.0
 59 58  0  0  0  0  0  0  0  0999 V2000
   11.0461    1.0993    2.1464 C   0  0  0  0  0  0
    9.5523    1.2964    2.3936 C   0  0  0  0  0  0
    9.0348    2.5930    1.7493 C   0  0  0  0  0  0
    7.5942    2.9648    2.1809 C   0  0  0  0  0  0
    7.3542    2.9922    3.7307 C   0  0  0  0  0  0
    8.2880    4.0589    4.3479 C   0  0  0  0  0  0
    5.8428    3.2602    4.1328 C   0  0  0  0  0  0
    4.7374    2.3015    3.4806 C   0  0  0  0  0  0
    3.2300    2.7118    3.1850 C   0  0  0  0  0  0
    2.3600    1.6058    2.3240 C   0  0  0  0  0  0
    2.1876    0.3518    3.1796 C   0  0  0  0  0  0
    0.9363    2.0907    1.7924 C   0  0  0  0  0  0
    0.1393    1.3945    0.5682 C   0  0  0  0  0  0
   -1.3895    1.6320    0.3179 C   0  0  0  0  0  0
   -1.8197    2.7662   -0.7202 C   0  0  0  0  0  0
   -2.4252    4.1653   -0.3073 C   0  0  0  0  0  0
   -3.9437    4.4256   -0.4913 C   0  0  0  0  0  0
   -4.3684    5.9031   -0.8459 C   0  0  0  0  0  0
   -5.8699    6.2110   -0.7876 C   0  0  0  0  0  0
   -6.3474    7.6329   -1.1978 C   0  0  0  0  0  0
   -7.8371    8.0500   -1.0179 C   0  0  0  0  0  0
   -8.8824    7.0140   -1.4068 C   0  0  0  0  0  0
   -8.0796    8.5576    0.3460 N   0  0  0  0  0  0
   -5.5993    8.5333   -0.3414 O   0  0  0  0  0  0
   -3.6879    6.7860    0.0525 O   0  0  0  0  0  0
    0.7929    1.8747   -0.6188 O   0  0  0  0  0  0
    5.2614    1.8992    2.1860 O   0  0  0  0  0  0
    5.6485    0.6039    2.0527 C   0  0  0  0  0  0
    5.5359   -0.2704    2.8907 O   0  0  0  0  0  0
    6.1519    0.3995    0.6505 C   0  0  0  0  0  0
    5.8758   -1.0182    0.1249 C   0  0  0  0  0  0
    4.9602   -1.0218   -1.1060 C   0  0  0  0  0  0
    3.5672   -0.5565   -0.7505 C   0  0  0  0  0  0
    2.6289   -1.3191   -0.5463 O   0  0  0  0  0  0
    3.4521    0.7777   -0.6768 O   0  0  0  0  0  0
    7.2458   -1.6079   -0.2377 C   0  0  0  0  0  0
    8.2887   -0.9787   -0.1440 O   0  0  0  0  0  0
    7.2004   -2.8594   -0.7149 O   0  0  0  0  0  0
    5.6901    3.3612    5.6047 O   0  0  0  0  0  0
    6.1626    2.3223    6.3891 C   0  0  0  0  0  0
    5.5373    1.3009    6.6425 O   0  0  0  0  0  0
    7.5784    2.5873    6.9179 C   0  0  0  0  0  0
    7.6775    2.9649    8.4286 C   0  0  0  0  0  0
    8.7989    3.9268    8.8617 C   0  0  0  0  0  0
   10.1637    3.4647    8.4395 C   0  0  0  0  0  0
   10.9894    2.9243    9.1626 O   0  0  0  0  0  0
   10.4019    3.6894    7.1383 O   0  0  0  0  0  0
    6.3721    3.4853    9.0428 C   0  0  0  0  0  0
    5.4425    3.8898    8.3728 O   0  0  0  0  0  0
    6.2750    3.3668   10.3836 O   0  0  0  0  0  0
   -7.2745    9.1053    0.6466 H   0  0  0  0  0  0
   -8.1127    7.7633    0.9890 H   0  0  0  0  0  0
   -5.2835    9.2403   -0.9428 H   0  0  0  0  0  0
   -2.7891    6.9382   -0.2931 H   0  0  0  0  0  0
    1.6742    1.4675   -0.6625 H   0  0  0  0  0  0
    4.2518    1.2793   -0.9263 H   0  0  0  0  0  0
    8.0850   -3.2531   -0.9180 H   0  0  0  0  0  0
   11.3037    3.3510    6.9549 H   0  0  0  0  0  0
    5.5050    3.8227   10.7905 H   0  0  0  0  0  0
  1  2  1  0  0  0
  2  3  1  0  0  0
  3  4  1  0  0  0
  4  5  1  0  0  0
  5  6  1  0  0  0
  5  7  1  0  0  0
  7  8  1  0  0  0
  7 39  1  0  0  0
  8  9  1  0  0  0
  8 27  1  0  0  0
  9 10  1  0  0  0
 10 11  1  0  0  0
 10 12  1  0  0  0
 12 13  1  0  0  0
 13 14  1  0  0  0
 13 26  1  0  0  0
 14 15  1  0  0  0
 15 16  1  0  0  0
 16 17  1  0  0  0
 17 18  1  0  0  0
 18 19  1  0  0  0
 18 25  1  0  0  0
 19 20  1  0  0  0
 20 21  1  0  0  0
 20 24  1  0  0  0
 21 22  1  0  0  0
 21 23  1  0  0  0
 23 51  1  0  0  0
 23 52  1  0  0  0
 24 53  1  0  0  0
 25 54  1  0  0  0
 26 55  1  0  0  0
 27 28  1  0  0  0
 28 29  2  0  0  0
 28 30  1  0  0  0
 30 31  1  0  0  0
 31 32  1  0  0  0
 31 36  1  0  0  0
 32 33  1  0  0  0
 33 34  2  0  0  0
 33 35  1  0  0  0
 35 56  1  0  0  0
 36 37  2  0  0  0
 36 38  1  0  0  0
 38 57  1  0  0  0
 39 40  1  0  0  0
 40 41  2  0  0  0
 40 42  1  0  0  0
 42 43  1  0  0  0
 43 44  1  0  0  0
 43 48  1  0  0  0
 44 45  1  0  0  0
 45 46  2  0  0  0
 45 47  1  0  0  0
 47 58  1  0  0  0
 48 49  2  0  0  0
 48 50  1  0  0  0
 50 59  1  0  0  0
M  END
>  <AUTHOR>
    GENERATED BY OPEN BABEL 2.4.1

>  <CHROM.1>
-169.72730490,51.65196171,61.00249886,53.35366431,-151.18549821,-54.18375797
172.06683234,109.60050014,66.42419752,159.43660475,163.24561256,94.99535745
70.16165530,-105.91190516,-104.71835115,-147.12207418,-169.75130861,-176.96266788
82.46224430,-173.58498975,-42.33243196,134.69628974,38.13668378,4.05061565
-147.69705132,118.07810866,-66.94558649,-2.60807527,-99.25950621,4.51752295
-177.86695739,-84.48604969,105.55104004,-147.80296771,-54.44934829,-17.61631273
-101.88157894,-179.49145652,170.96487618,3.38227304,2.68850816,2.54497385
-0.17688184,0.45939204,-2.16785006

>  <COMPND>
    UNNAMED

>  <MASTER>
        0    0    0    0    0    0    0    0  109    0  109    0

>  <Name>
FB1.pdb

>  <RI>
0

>  <Rbt.Current_Directory>
/home/fc/tossine/FB1_39/p3/2_clust01

>  <Rbt.Executable>
rbdock/0.1.0

>  <Rbt.Library>
librxdock.so/0.1.0

>  <Rbt.Parameter_File>
/cluster/rxdock/data/scripts/dock.prm

>  <Rbt.Receptor>
rx_1.prm

>  <SCORE>
15.6888

>  <SCORE.INTER>
-6.19213

>  <SCORE.INTER.CONST>
1

>  <SCORE.INTER.POLAR>
-5.37545

>  <SCORE.INTER.REPUL>
1.21031

>  <SCORE.INTER.ROT>
32

>  <SCORE.INTER.VDW>
-31.3671

>  <SCORE.INTER.norm>
-0.123843

>  <SCORE.INTRA>
20.5323

>  <SCORE.INTRA.DIHEDRAL>
36.9812

>  <SCORE.INTRA.DIHEDRAL.0>
47.3121

>  <SCORE.INTRA.POLAR>
0.338999

>  <SCORE.INTRA.POLAR.0>
-1.47808

>  <SCORE.INTRA.REPUL>
0

>  <SCORE.INTRA.REPUL.0>
0

>  <SCORE.INTRA.VDW>
0.889064

>  <SCORE.INTRA.VDW.0>
-2.78316

>  <SCORE.INTRA.norm>
0.410645

>  <SCORE.RESTR>
1.34868

>  <SCORE.RESTR.CAVITY>
1.34868

>  <SCORE.RESTR.norm>
0.0269737

>  <SCORE.SYSTEM>
0

>  <SCORE.SYSTEM.CONST>
0

>  <SCORE.SYSTEM.DIHEDRAL>
0

>  <SCORE.SYSTEM.norm>
0

>  <SCORE.heavy>
50

>  <SCORE.norm>
0.313776

$$$$
