FB1.pdb
  RxDock  10072011493D
librxdock.so/0.1.0
 59 58  0  0  0  0  0  0  0  0999 V2000
   13.5840    8.9361    6.6775 C   0  0  0  0  0  0
   12.1307    8.5836    6.9856 C   0  0  0  0  0  0
   11.4676    7.8321    5.8194 C   0  0  0  0  0  0
    9.9803    7.4830    6.0759 C   0  0  0  0  0  0
    9.2919    6.6468    4.9413 C   0  0  0  0  0  0
    9.7731    7.1915    3.5766 C   0  0  0  0  0  0
    9.5572    5.0864    5.0549 C   0  0  0  0  0  0
    8.3979    4.1994    5.7146 C   0  0  0  0  0  0
    7.7945    2.8688    5.0871 C   0  0  0  0  0  0
    6.2936    3.0276    4.4212 C   0  0  0  0  0  0
    6.4285    3.7691    3.0922 C   0  0  0  0  0  0
    5.4764    1.6758    4.1989 C   0  0  0  0  0  0
    4.4539    1.4249    2.9700 C   0  0  0  0  0  0
    3.9551   -0.0062    2.5709 C   0  0  0  0  0  0
    5.0352   -1.1740    2.4345 C   0  0  0  0  0  0
    6.4871   -0.9771    1.8447 C   0  0  0  0  0  0
    6.6956   -0.9863    0.3072 C   0  0  0  0  0  0
    6.1333   -2.2367   -0.4736 C   0  0  0  0  0  0
    5.4297   -1.9460   -1.8051 C   0  0  0  0  0  0
    4.2041   -2.8191   -2.1973 C   0  0  0  0  0  0
    2.8314   -2.6199   -1.4891 C   0  0  0  0  0  0
    1.7724   -3.6812   -1.7533 C   0  0  0  0  0  0
    3.0134   -2.4057   -0.0409 N   0  0  0  0  0  0
    3.9572   -2.5013   -3.5908 O   0  0  0  0  0  0
    7.2243   -3.1300   -0.7213 O   0  0  0  0  0  0
    3.2651    2.1514    3.3243 O   0  0  0  0  0  0
    8.8916    3.7903    7.0190 O   0  0  0  0  0  0
    7.9767    3.3158    7.9039 C   0  0  0  0  0  0
    6.8178    3.0378    7.6609 O   0  0  0  0  0  0
    8.6624    3.0917    9.2234 C   0  0  0  0  0  0
    7.8898    3.7056   10.4019 C   0  0  0  0  0  0
    7.4378    5.1449   10.1236 C   0  0  0  0  0  0
    8.3447    6.1426   10.8058 C   0  0  0  0  0  0
    9.2898    6.6912   10.2496 O   0  0  0  0  0  0
    8.0163    6.3754   12.0852 O   0  0  0  0  0  0
    6.6670    2.8039   10.6201 C   0  0  0  0  0  0
    5.5497    3.0856   10.2143 O   0  0  0  0  0  0
    6.9150    1.7000   11.3383 O   0  0  0  0  0  0
   10.0157    4.5256    3.7607 O   0  0  0  0  0  0
   11.3362    4.7179    3.3899 C   0  0  0  0  0  0
   12.1924    5.2266    4.1017 O   0  0  0  0  0  0
   11.6221    4.2176    1.9678 C   0  0  0  0  0  0
   12.9762    4.6807    1.3462 C   0  0  0  0  0  0
   13.2049    6.1911    1.1541 C   0  0  0  0  0  0
   13.8108    6.8505    2.3593 C   0  0  0  0  0  0
   14.9977    6.8434    2.6555 O   0  0  0  0  0  0
   12.8991    7.4922    3.1059 O   0  0  0  0  0  0
   14.2223    4.1188    2.0417 C   0  0  0  0  0  0
   14.1774    3.5347    3.1063 O   0  0  0  0  0  0
   15.3716    4.2195    1.3414 O   0  0  0  0  0  0
    2.1004   -2.2925    0.3974 H   0  0  0  0  0  0
    3.4861   -1.5100    0.0999 H   0  0  0  0  0  0
    4.7439   -2.8441   -4.0651 H   0  0  0  0  0  0
    7.9422   -2.6236   -1.1440 H   0  0  0  0  0  0
    2.9476    1.8108    4.1774 H   0  0  0  0  0  0
    7.1848    5.9599   12.3842 H   0  0  0  0  0  0
    7.8506    1.6139   11.6481 H   0  0  0  0  0  0
   13.3948    7.9836    3.7945 H   0  0  0  0  0  0
   15.2869    4.6308    0.4527 H   0  0  0  0  0  0
  1  2  1  0  0  0
  2  3  1  0  0  0
  3  4  1  0  0  0
  4  5  1  0  0  0
  5  6  1  0  0  0
  5  7  1  0  0  0
  7  8  1  0  0  0
  7 39  1  0  0  0
  8  9  1  0  0  0
  8 27  1  0  0  0
  9 10  1  0  0  0
 10 11  1  0  0  0
 10 12  1  0  0  0
 12 13  1  0  0  0
 13 14  1  0  0  0
 13 26  1  0  0  0
 14 15  1  0  0  0
 15 16  1  0  0  0
 16 17  1  0  0  0
 17 18  1  0  0  0
 18 19  1  0  0  0
 18 25  1  0  0  0
 19 20  1  0  0  0
 20 21  1  0  0  0
 20 24  1  0  0  0
 21 22  1  0  0  0
 21 23  1  0  0  0
 23 51  1  0  0  0
 23 52  1  0  0  0
 24 53  1  0  0  0
 25 54  1  0  0  0
 26 55  1  0  0  0
 27 28  1  0  0  0
 28 29  2  0  0  0
 28 30  1  0  0  0
 30 31  1  0  0  0
 31 32  1  0  0  0
 31 36  1  0  0  0
 32 33  1  0  0  0
 33 34  2  0  0  0
 33 35  1  0  0  0
 35 56  1  0  0  0
 36 37  2  0  0  0
 36 38  1  0  0  0
 38 57  1  0  0  0
 39 40  1  0  0  0
 40 41  2  0  0  0
 40 42  1  0  0  0
 42 43  1  0  0  0
 43 44  1  0  0  0
 43 48  1  0  0  0
 44 45  1  0  0  0
 45 46  2  0  0  0
 45 47  1  0  0  0
 47 58  1  0  0  0
 48 49  2  0  0  0
 48 50  1  0  0  0
 50 59  1  0  0  0
M  END
>  <AUTHOR>
    GENERATED BY OPEN BABEL 2.4.1

>  <CHROM.1>
-178.65724497,-176.78490781,-40.27943433,99.44614028,130.18409634,78.17520521
-105.25879079,163.97353885,74.40049771,-146.44530440,163.96736619,-47.35151681
-58.11624201,-37.39417522,-82.22389242,-53.58596605,138.36905202,-144.25448170
-52.04799812,74.15100530,-169.06670171,66.20144967,-179.16685497,10.13095928
131.20437527,-47.07341515,-101.37061616,-100.52080905,95.56610570,-6.75152687
0.90683417,6.25302075,166.51923969,-61.41270923,88.39695561,-10.92796180
80.79235656,-172.77273026,-0.86625031,8.47899727,3.14617676,4.21535529,-0.89649070
-0.60109856,-1.98599768

>  <COMPND>
    UNNAMED

>  <MASTER>
        0    0    0    0    0    0    0    0  109    0  109    0

>  <Name>
FB1.pdb

>  <RI>
0

>  <Rbt.Current_Directory>
/home/fc/tossine/FB1_39/p3/2_clust01

>  <Rbt.Executable>
rbdock/0.1.0

>  <Rbt.Library>
librxdock.so/0.1.0

>  <Rbt.Parameter_File>
/cluster/rxdock/data/scripts/dock.prm

>  <Rbt.Receptor>
rx_1.prm

>  <SCORE>
28.198

>  <SCORE.INTER>
12.9403

>  <SCORE.INTER.CONST>
1

>  <SCORE.INTER.POLAR>
-0.142408

>  <SCORE.INTER.REPUL>
0.538975

>  <SCORE.INTER.ROT>
32

>  <SCORE.INTER.VDW>
-26.6704

>  <SCORE.INTER.norm>
0.258805

>  <SCORE.INTRA>
12.9739

>  <SCORE.INTRA.DIHEDRAL>
11.7709

>  <SCORE.INTRA.DIHEDRAL.0>
47.3121

>  <SCORE.INTRA.POLAR>
1.47808

>  <SCORE.INTRA.POLAR.0>
-1.47808

>  <SCORE.INTRA.REPUL>
0

>  <SCORE.INTRA.REPUL.0>
0

>  <SCORE.INTRA.VDW>
2.06302

>  <SCORE.INTRA.VDW.0>
-2.78316

>  <SCORE.INTRA.norm>
0.259478

>  <SCORE.RESTR>
2.28377

>  <SCORE.RESTR.CAVITY>
2.28377

>  <SCORE.RESTR.norm>
0.0456755

>  <SCORE.SYSTEM>
0

>  <SCORE.SYSTEM.CONST>
0

>  <SCORE.SYSTEM.DIHEDRAL>
0

>  <SCORE.SYSTEM.norm>
0

>  <SCORE.heavy>
50

>  <SCORE.norm>
0.563959

$$$$
