FB1.pdb
  RxDock  10072014113D
librxdock.so/0.1.0
 59 58  0  0  0  0  0  0  0  0999 V2000
   12.0779    7.3805    2.6712 C   0  0  0  0  0  0
   12.0366    5.9619    2.1079 C   0  0  0  0  0  0
   11.3085    4.9941    3.0552 C   0  0  0  0  0  0
   11.2617    3.5366    2.5326 C   0  0  0  0  0  0
   10.4953    3.3439    1.1776 C   0  0  0  0  0  0
   11.5025    2.8423    0.1172 C   0  0  0  0  0  0
    9.2517    2.3644    1.2872 C   0  0  0  0  0  0
    8.7034    2.0495    2.7591 C   0  0  0  0  0  0
    7.4937    1.0742    3.0957 C   0  0  0  0  0  0
    5.9955    1.7573    2.9948 C   0  0  0  0  0  0
    6.1305    3.1268    2.3312 C   0  0  0  0  0  0
    4.8827    0.9026    2.2358 C   0  0  0  0  0  0
    4.4216   -0.5841    2.6784 C   0  0  0  0  0  0
    2.9237   -1.0438    2.6453 C   0  0  0  0  0  0
    1.8476   -0.1772    3.4455 C   0  0  0  0  0  0
    1.8323    1.4015    3.4882 C   0  0  0  0  0  0
    1.8939    2.2030    2.1611 C   0  0  0  0  0  0
    0.8338    1.8215    1.0567 C   0  0  0  0  0  0
   -0.6381    2.0589    1.4170 C   0  0  0  0  0  0
   -1.5159    2.8791    0.4295 C   0  0  0  0  0  0
   -3.0545    2.6484    0.3594 C   0  0  0  0  0  0
   -3.7117    2.8695   -0.9958 C   0  0  0  0  0  0
   -3.4135    1.3278    0.9104 N   0  0  0  0  0  0
   -1.3619    4.2563    0.8576 O   0  0  0  0  0  0
    1.1389    2.5693   -0.1255 O   0  0  0  0  0  0
    5.1054   -1.4677    1.7739 O   0  0  0  0  0  0
    9.8256    1.5006    3.5019 O   0  0  0  0  0  0
    9.7975    1.6382    4.8531 C   0  0  0  0  0  0
   10.3360    0.9068    5.6621 O   0  0  0  0  0  0
    9.0701    2.9114    5.1868 C   0  0  0  0  0  0
    9.8686    3.8152    6.1397 C   0  0  0  0  0  0
    9.4785    5.2935    6.0138 C   0  0  0  0  0  0
   10.4445    6.1781    6.7673 C   0  0  0  0  0  0
   11.0057    7.1480    6.2693 O   0  0  0  0  0  0
   10.6309    5.8022    8.0412 O   0  0  0  0  0  0
    9.5620    3.3098    7.5562 C   0  0  0  0  0  0
    8.6835    3.7863    8.2588 O   0  0  0  0  0  0
   10.3726    2.3311    7.9817 O   0  0  0  0  0  0
    8.1638    2.7752    0.3666 O   0  0  0  0  0  0
    8.1917    2.3076   -0.9368 C   0  0  0  0  0  0
    9.2049    1.9647   -1.5320 O   0  0  0  0  0  0
    6.7951    2.2617   -1.5706 C   0  0  0  0  0  0
    6.0104    0.9259   -1.3846 C   0  0  0  0  0  0
    6.6960   -0.2137   -0.6089 C   0  0  0  0  0  0
    7.1274   -1.3482   -1.4928 C   0  0  0  0  0  0
    8.2090   -1.9178   -1.4458 O   0  0  0  0  0  0
    6.1740   -1.7109   -2.3645 O   0  0  0  0  0  0
    4.6025    1.0897   -0.7987 C   0  0  0  0  0  0
    4.0990    2.1745   -0.5835 O   0  0  0  0  0  0
    3.9069   -0.0549   -0.6337 O   0  0  0  0  0  0
   -3.1179    1.2806    1.8845 H   0  0  0  0  0  0
   -2.8603    0.6130    0.4323 H   0  0  0  0  0  0
   -1.6100    4.2491    1.8061 H   0  0  0  0  0  0
    2.0585    2.3714   -0.3817 H   0  0  0  0  0  0
    4.8470   -1.2294    0.8678 H   0  0  0  0  0  0
   11.3343    6.2827    8.5186 H   0  0  0  0  0  0
   11.1108    2.1111    7.3609 H   0  0  0  0  0  0
    6.3957   -2.6182   -2.6625 H   0  0  0  0  0  0
    2.9973    0.0544   -0.2776 H   0  0  0  0  0  0
  1  2  1  0  0  0
  2  3  1  0  0  0
  3  4  1  0  0  0
  4  5  1  0  0  0
  5  6  1  0  0  0
  5  7  1  0  0  0
  7  8  1  0  0  0
  7 39  1  0  0  0
  8  9  1  0  0  0
  8 27  1  0  0  0
  9 10  1  0  0  0
 10 11  1  0  0  0
 10 12  1  0  0  0
 12 13  1  0  0  0
 13 14  1  0  0  0
 13 26  1  0  0  0
 14 15  1  0  0  0
 15 16  1  0  0  0
 16 17  1  0  0  0
 17 18  1  0  0  0
 18 19  1  0  0  0
 18 25  1  0  0  0
 19 20  1  0  0  0
 20 21  1  0  0  0
 20 24  1  0  0  0
 21 22  1  0  0  0
 21 23  1  0  0  0
 23 51  1  0  0  0
 23 52  1  0  0  0
 24 53  1  0  0  0
 25 54  1  0  0  0
 26 55  1  0  0  0
 27 28  1  0  0  0
 28 29  2  0  0  0
 28 30  1  0  0  0
 30 31  1  0  0  0
 31 32  1  0  0  0
 31 36  1  0  0  0
 32 33  1  0  0  0
 33 34  2  0  0  0
 33 35  1  0  0  0
 35 56  1  0  0  0
 36 37  2  0  0  0
 36 38  1  0  0  0
 38 57  1  0  0  0
 39 40  1  0  0  0
 40 41  2  0  0  0
 40 42  1  0  0  0
 42 43  1  0  0  0
 43 44  1  0  0  0
 43 48  1  0  0  0
 44 45  1  0  0  0
 45 46  2  0  0  0
 45 47  1  0  0  0
 47 58  1  0  0  0
 48 49  2  0  0  0
 48 50  1  0  0  0
 50 59  1  0  0  0
M  END
>  <AUTHOR>
    GENERATED BY OPEN BABEL 2.4.1

>  <CHROM.1>
-179.12209752,-61.90025743,116.52988348,16.66403830,-178.57664307,86.91445076
-84.51753222,154.81296308,10.75885499,58.74623366,139.73183192,-55.23179242
-58.21731921,40.73900802,51.03976441,52.43570089,63.55175163,128.02779424
56.63957516,152.66213915,-148.76124645,-54.84151294,60.13895485,153.03588162
-128.39153446,155.08056245,-169.57277132,-94.43293408,128.11630244,172.44026517
4.86178139,-25.38060705,-90.10846074,-0.58082438,-107.82006193,4.95291327
135.11395427,-160.32449891,-178.63790809,6.29276477,2.25220239,2.19168994
-0.46254334,-0.01491563,-2.07872697

>  <COMPND>
    UNNAMED

>  <MASTER>
        0    0    0    0    0    0    0    0  109    0  109    0

>  <Name>
FB1.pdb

>  <RI>
0

>  <Rbt.Current_Directory>
/home/fc/tossine/FB1_39/p3/2_clust01

>  <Rbt.Executable>
rbdock/0.1.0

>  <Rbt.Library>
librxdock.so/0.1.0

>  <Rbt.Parameter_File>
/cluster/rxdock/data/scripts/dock.prm

>  <Rbt.Receptor>
rx_4.prm

>  <SCORE>
30.7415

>  <SCORE.INTER>
13.4246

>  <SCORE.INTER.CONST>
1

>  <SCORE.INTER.POLAR>
-1.56678

>  <SCORE.INTER.REPUL>
0.436049

>  <SCORE.INTER.ROT>
32

>  <SCORE.INTER.VDW>
-20.8285

>  <SCORE.INTER.norm>
0.268493

>  <SCORE.INTRA>
15.8058

>  <SCORE.INTRA.DIHEDRAL>
30.4969

>  <SCORE.INTRA.DIHEDRAL.0>
47.3121

>  <SCORE.INTRA.POLAR>
-0.583039

>  <SCORE.INTRA.POLAR.0>
-1.47808

>  <SCORE.INTRA.REPUL>
0.0493198

>  <SCORE.INTRA.REPUL.0>
0

>  <SCORE.INTRA.VDW>
2.29313

>  <SCORE.INTRA.VDW.0>
-2.78316

>  <SCORE.INTRA.norm>
0.316117

>  <SCORE.RESTR>
1.51101

>  <SCORE.RESTR.CAVITY>
1.51101

>  <SCORE.RESTR.norm>
0.0302203

>  <SCORE.SYSTEM>
0

>  <SCORE.SYSTEM.CONST>
0

>  <SCORE.SYSTEM.DIHEDRAL>
0

>  <SCORE.SYSTEM.norm>
0

>  <SCORE.heavy>
50

>  <SCORE.norm>
0.61483

$$$$
