FB1.pdb
  RxDock  10072011463D
librxdock.so/0.1.0
 59 58  0  0  0  0  0  0  0  0999 V2000
    0.9090   -0.3989   -2.9920 C   0  0  0  0  0  0
    1.3610    0.4729   -4.1612 C   0  0  0  0  0  0
    2.4378   -0.2247   -5.0086 C   0  0  0  0  0  0
    3.8619   -0.1167   -4.4086 C   0  0  0  0  0  0
    4.0039   -0.6525   -2.9413 C   0  0  0  0  0  0
    4.5587   -2.0945   -3.0025 C   0  0  0  0  0  0
    4.9100    0.2653   -2.0169 C   0  0  0  0  0  0
    4.7805    0.0539   -0.4343 C   0  0  0  0  0  0
    5.5060    0.9390    0.6695 C   0  0  0  0  0  0
    5.5264    0.2885    2.1854 C   0  0  0  0  0  0
    5.9879   -1.1644    2.0836 C   0  0  0  0  0  0
    6.4112    1.0562    3.2681 C   0  0  0  0  0  0
    5.8948    2.3274    4.1260 C   0  0  0  0  0  0
    6.6978    2.9018    5.3431 C   0  0  0  0  0  0
    8.2118    3.3507    5.1075 C   0  0  0  0  0  0
    8.6401    4.6766    4.3638 C   0  0  0  0  0  0
   10.1395    5.0718    4.3079 C   0  0  0  0  0  0
   10.5187    6.4864    4.8946 C   0  0  0  0  0  0
    9.6360    7.6621    4.4572 C   0  0  0  0  0  0
    9.5857    8.9238    5.3648 C   0  0  0  0  0  0
    8.7596   10.1732    4.9381 C   0  0  0  0  0  0
    8.5973   11.2675    5.9837 C   0  0  0  0  0  0
    9.2645   10.7282    3.6679 N   0  0  0  0  0  0
    8.9676    8.4673    6.5950 O   0  0  0  0  0  0
   10.4816    6.3966    6.3230 O   0  0  0  0  0  0
    5.8239    3.4075    3.1800 O   0  0  0  0  0  0
    3.3663    0.1775   -0.1222 O   0  0  0  0  0  0
    2.7758   -0.8795    0.4936 C   0  0  0  0  0  0
    2.4447   -1.9252   -0.0320 O   0  0  0  0  0  0
    2.6883   -0.5847    1.9656 C   0  0  0  0  0  0
    1.5262    0.3604    2.3104 C   0  0  0  0  0  0
    0.4358   -0.3266    3.1425 C   0  0  0  0  0  0
    0.4928   -1.8281    2.9825 C   0  0  0  0  0  0
    0.4444   -2.3969    1.8972 O   0  0  0  0  0  0
    0.6037   -2.4856    4.1462 O   0  0  0  0  0  0
    2.1452    1.5167    3.1078 C   0  0  0  0  0  0
    3.0413    1.3599    3.9233 O   0  0  0  0  0  0
    1.5870    2.7120    2.8724 O   0  0  0  0  0  0
    6.3239    0.2462   -2.4648 O   0  0  0  0  0  0
    7.2344    1.0569   -1.8076 C   0  0  0  0  0  0
    7.3486    2.2626   -1.9856 O   0  0  0  0  0  0
    8.1020    0.2739   -0.8134 C   0  0  0  0  0  0
    9.2362    1.0879   -0.1167 C   0  0  0  0  0  0
    9.0767    2.6164   -0.0229 C   0  0  0  0  0  0
   10.3872    3.3354    0.1183 C   0  0  0  0  0  0
   10.5614    4.3916    0.7103 O   0  0  0  0  0  0
   11.3984    2.6798   -0.4716 O   0  0  0  0  0  0
    9.6148    0.5854    1.2821 C   0  0  0  0  0  0
    9.0767   -0.3682    1.8091 O   0  0  0  0  0  0
   10.6664    1.2069    1.8560 O   0  0  0  0  0  0
    8.8752   10.1945    2.8919 H   0  0  0  0  0  0
   10.2730   10.5669    3.6188 H   0  0  0  0  0  0
    9.5422    7.7349    6.9028 H   0  0  0  0  0  0
   11.3915    6.4985    6.6579 H   0  0  0  0  0  0
    6.7279    3.6097    2.8862 H   0  0  0  0  0  0
    0.5822   -3.4595    4.0781 H   0  0  0  0  0  0
    1.9891    3.4596    3.3805 H   0  0  0  0  0  0
   11.0331    2.2731   -1.2856 H   0  0  0  0  0  0
   10.9374    0.8513    2.7313 H   0  0  0  0  0  0
  1  2  1  0  0  0
  2  3  1  0  0  0
  3  4  1  0  0  0
  4  5  1  0  0  0
  5  6  1  0  0  0
  5  7  1  0  0  0
  7  8  1  0  0  0
  7 39  1  0  0  0
  8  9  1  0  0  0
  8 27  1  0  0  0
  9 10  1  0  0  0
 10 11  1  0  0  0
 10 12  1  0  0  0
 12 13  1  0  0  0
 13 14  1  0  0  0
 13 26  1  0  0  0
 14 15  1  0  0  0
 15 16  1  0  0  0
 16 17  1  0  0  0
 17 18  1  0  0  0
 18 19  1  0  0  0
 18 25  1  0  0  0
 19 20  1  0  0  0
 20 21  1  0  0  0
 20 24  1  0  0  0
 21 22  1  0  0  0
 21 23  1  0  0  0
 23 51  1  0  0  0
 23 52  1  0  0  0
 24 53  1  0  0  0
 25 54  1  0  0  0
 26 55  1  0  0  0
 27 28  1  0  0  0
 28 29  2  0  0  0
 28 30  1  0  0  0
 30 31  1  0  0  0
 31 32  1  0  0  0
 31 36  1  0  0  0
 32 33  1  0  0  0
 33 34  2  0  0  0
 33 35  1  0  0  0
 35 56  1  0  0  0
 36 37  2  0  0  0
 36 38  1  0  0  0
 38 57  1  0  0  0
 39 40  1  0  0  0
 40 41  2  0  0  0
 40 42  1  0  0  0
 42 43  1  0  0  0
 43 44  1  0  0  0
 43 48  1  0  0  0
 44 45  1  0  0  0
 45 46  2  0  0  0
 45 47  1  0  0  0
 47 58  1  0  0  0
 48 49  2  0  0  0
 48 50  1  0  0  0
 50 59  1  0  0  0
M  END
>  <AUTHOR>
    GENERATED BY OPEN BABEL 2.4.1

>  <CHROM.1>
-81.07072569,55.97612912,97.81090865,162.86714139,-174.94245814,176.43828262
-164.82699172,122.43211550,48.20368936,84.30261520,169.44227359,56.12285791
-66.03780165,75.19492708,174.47046392,-122.87324642,-46.82245192,157.02071157
112.75148852,177.13067121,170.86309745,57.30916611,81.81654648,-76.33854449
78.82951778,113.29209401,-21.44147811,-38.12241587,-55.16343302,176.06057070
-179.57179887,-77.98894341,175.05078675,23.42304375,-156.07292253,-0.06863232
-149.46575565,36.49067100,-176.86201386,6.06705845,2.13546764,1.57157765
-2.29960034,0.48671460,0.96780036

>  <COMPND>
    UNNAMED

>  <MASTER>
        0    0    0    0    0    0    0    0  109    0  109    0

>  <Name>
FB1.pdb

>  <RI>
0

>  <Rbt.Current_Directory>
/home/fc/tossine/FB1_39/p3/2_clust01

>  <Rbt.Executable>
rbdock/0.1.0

>  <Rbt.Library>
librxdock.so/0.1.0

>  <Rbt.Parameter_File>
/cluster/rxdock/data/scripts/dock.prm

>  <Rbt.Receptor>
rx_1.prm

>  <SCORE>
45.9262

>  <SCORE.INTER>
6.40435

>  <SCORE.INTER.CONST>
1

>  <SCORE.INTER.POLAR>
-1.86352

>  <SCORE.INTER.REPUL>
0.379649

>  <SCORE.INTER.ROT>
32

>  <SCORE.INTER.VDW>
-26.5579

>  <SCORE.INTER.norm>
0.128087

>  <SCORE.INTRA>
37.1243

>  <SCORE.INTRA.DIHEDRAL>
67.4863

>  <SCORE.INTRA.DIHEDRAL.0>
47.3121

>  <SCORE.INTRA.POLAR>
0.636795

>  <SCORE.INTRA.POLAR.0>
-1.47808

>  <SCORE.INTRA.REPUL>
0

>  <SCORE.INTRA.REPUL.0>
0

>  <SCORE.INTRA.VDW>
1.21608

>  <SCORE.INTRA.VDW.0>
-2.78316

>  <SCORE.INTRA.norm>
0.742487

>  <SCORE.RESTR>
2.39756

>  <SCORE.RESTR.CAVITY>
2.39756

>  <SCORE.RESTR.norm>
0.0479511

>  <SCORE.SYSTEM>
0

>  <SCORE.SYSTEM.CONST>
0

>  <SCORE.SYSTEM.DIHEDRAL>
0

>  <SCORE.SYSTEM.norm>
0

>  <SCORE.heavy>
50

>  <SCORE.norm>
0.918525

$$$$
