FB1.pdb
  RxDock  10072014083D
librxdock.so/0.1.0
 59 58  0  0  0  0  0  0  0  0999 V2000
   -0.3763   -2.8927    2.8861 C   0  0  0  0  0  0
    0.6374   -2.2740    3.8458 C   0  0  0  0  0  0
    2.0427   -2.2087    3.2253 C   0  0  0  0  0  0
    2.3079   -0.9042    2.4330 C   0  0  0  0  0  0
    3.2622   -1.0625    1.1982 C   0  0  0  0  0  0
    2.5607   -1.9623    0.1547 C   0  0  0  0  0  0
    3.6983    0.3202    0.5536 C   0  0  0  0  0  0
    3.4708    1.6368    1.4374 C   0  0  0  0  0  0
    4.5696    2.7511    1.7188 C   0  0  0  0  0  0
    4.7779    3.1426    3.3077 C   0  0  0  0  0  0
    3.4945    3.7953    3.8187 C   0  0  0  0  0  0
    5.1926    1.9463    4.2780 C   0  0  0  0  0  0
    5.7680    2.1510    5.7766 C   0  0  0  0  0  0
    7.0741    2.9655    6.0711 C   0  0  0  0  0  0
    8.0264    3.3389    4.8452 C   0  0  0  0  0  0
    9.4500    2.7007    4.5993 C   0  0  0  0  0  0
    9.6655    1.7560    3.3875 C   0  0  0  0  0  0
   11.1577    1.5219    2.9319 C   0  0  0  0  0  0
   12.0776    2.7489    2.9619 C   0  0  0  0  0  0
   11.5215    4.1005    2.4306 C   0  0  0  0  0  0
   12.4901    5.2545    2.0364 C   0  0  0  0  0  0
   11.9610    6.6716    2.2082 C   0  0  0  0  0  0
   13.7965    5.0950    2.7030 N   0  0  0  0  0  0
   10.8288    3.7561    1.2036 O   0  0  0  0  0  0
   11.7225    0.5096    3.7721 O   0  0  0  0  0  0
    4.7253    2.8462    6.4810 O   0  0  0  0  0  0
    2.3757    2.3607    0.8136 O   0  0  0  0  0  0
    1.1749    1.7288    0.7512 C   0  0  0  0  0  0
    0.6082    1.1683    1.6700 O   0  0  0  0  0  0
    0.6058    1.9232   -0.6272 C   0  0  0  0  0  0
   -0.8171    2.5039   -0.6019 C   0  0  0  0  0  0
   -1.5069    2.4312   -1.9703 C   0  0  0  0  0  0
   -2.9159    2.9725   -1.8998 C   0  0  0  0  0  0
   -3.7545    2.7972   -2.7772 O   0  0  0  0  0  0
   -3.1665    3.6660   -0.7795 O   0  0  0  0  0  0
   -1.5955    1.6684    0.4237 C   0  0  0  0  0  0
   -1.5855    0.4468    0.4343 O   0  0  0  0  0  0
   -2.3306    2.3898    1.2811 O   0  0  0  0  0  0
    5.0773    0.2474    0.0124 O   0  0  0  0  0  0
    5.2461   -0.1047   -1.3164 C   0  0  0  0  0  0
    4.3464   -0.1469   -2.1453 O   0  0  0  0  0  0
    6.7052   -0.4426   -1.6500 C   0  0  0  0  0  0
    7.7727    0.5600   -1.1119 C   0  0  0  0  0  0
    7.5467    1.1796    0.2793 C   0  0  0  0  0  0
    8.0374    2.5952    0.3777 C   0  0  0  0  0  0
    8.4357    3.2788   -0.5553 O   0  0  0  0  0  0
    7.9807    3.0721    1.6306 O   0  0  0  0  0  0
    9.2138    0.0361   -1.1457 C   0  0  0  0  0  0
    9.5051   -1.0687   -1.5596 O   0  0  0  0  0  0
   10.1622    0.9252   -0.7833 O   0  0  0  0  0  0
   14.3572    4.4219    2.1823 H   0  0  0  0  0  0
   13.6461    4.6617    3.6168 H   0  0  0  0  0  0
    9.9397    3.4640    1.4960 H   0  0  0  0  0  0
   12.5575    0.2097    3.3679 H   0  0  0  0  0  0
    3.9029    2.3387    6.3782 H   0  0  0  0  0  0
   -4.0473    4.0855   -0.7375 H   0  0  0  0  0  0
   -2.7317    1.8663    2.0186 H   0  0  0  0  0  0
    7.3914    2.4714    2.1338 H   0  0  0  0  0  0
    9.8696    1.8632   -0.7559 H   0  0  0  0  0  0
  1  2  1  0  0  0
  2  3  1  0  0  0
  3  4  1  0  0  0
  4  5  1  0  0  0
  5  6  1  0  0  0
  5  7  1  0  0  0
  7  8  1  0  0  0
  7 39  1  0  0  0
  8  9  1  0  0  0
  8 27  1  0  0  0
  9 10  1  0  0  0
 10 11  1  0  0  0
 10 12  1  0  0  0
 12 13  1  0  0  0
 13 14  1  0  0  0
 13 26  1  0  0  0
 14 15  1  0  0  0
 15 16  1  0  0  0
 16 17  1  0  0  0
 17 18  1  0  0  0
 18 19  1  0  0  0
 18 25  1  0  0  0
 19 20  1  0  0  0
 20 21  1  0  0  0
 20 24  1  0  0  0
 21 22  1  0  0  0
 21 23  1  0  0  0
 23 51  1  0  0  0
 23 52  1  0  0  0
 24 53  1  0  0  0
 25 54  1  0  0  0
 26 55  1  0  0  0
 27 28  1  0  0  0
 28 29  2  0  0  0
 28 30  1  0  0  0
 30 31  1  0  0  0
 31 32  1  0  0  0
 31 36  1  0  0  0
 32 33  1  0  0  0
 33 34  2  0  0  0
 33 35  1  0  0  0
 35 56  1  0  0  0
 36 37  2  0  0  0
 36 38  1  0  0  0
 38 57  1  0  0  0
 39 40  1  0  0  0
 40 41  2  0  0  0
 40 42  1  0  0  0
 42 43  1  0  0  0
 43 44  1  0  0  0
 43 48  1  0  0  0
 44 45  1  0  0  0
 45 46  2  0  0  0
 45 47  1  0  0  0
 47 58  1  0  0  0
 48 49  2  0  0  0
 48 50  1  0  0  0
 50 59  1  0  0  0
M  END
>  <AUTHOR>
    GENERATED BY OPEN BABEL 2.4.1

>  <CHROM.1>
89.04127000,-147.49994736,65.64863238,16.33441854,129.93964532,92.09152952
-128.83964166,61.43010923,-65.47240941,165.56261830,-59.04735454,-13.14110450
53.67552490,-109.67792421,111.42979377,161.27092660,-39.68211586,-42.87079373
166.60514753,-161.69208442,-150.09630518,83.84803345,81.22238306,48.99950063
-126.44603741,-168.06493405,178.33205568,-48.35990902,-165.68921572,175.51149035
-171.89843882,12.81062564,-46.25059116,37.76986736,-145.34857521,0.12759340
8.25305018,-16.17154699,-14.80403123,5.06745860,1.69212678,1.38775769,2.93111827
-0.09200311,-1.84439957

>  <COMPND>
    UNNAMED

>  <MASTER>
        0    0    0    0    0    0    0    0  109    0  109    0

>  <Name>
FB1.pdb

>  <RI>
0

>  <Rbt.Current_Directory>
/home/fc/tossine/FB1_39/p3/2_clust01

>  <Rbt.Executable>
rbdock/0.1.0

>  <Rbt.Library>
librxdock.so/0.1.0

>  <Rbt.Parameter_File>
/cluster/rxdock/data/scripts/dock.prm

>  <Rbt.Receptor>
rx_4.prm

>  <SCORE>
37.9636

>  <SCORE.INTER>
8.00759

>  <SCORE.INTER.CONST>
1

>  <SCORE.INTER.POLAR>
-1.28347

>  <SCORE.INTER.REPUL>
0.474055

>  <SCORE.INTER.ROT>
32

>  <SCORE.INTER.VDW>
-27.3989

>  <SCORE.INTER.norm>
0.160152

>  <SCORE.INTRA>
25.979

>  <SCORE.INTRA.DIHEDRAL>
44.8436

>  <SCORE.INTRA.DIHEDRAL.0>
47.3121

>  <SCORE.INTRA.POLAR>
0.509059

>  <SCORE.INTRA.POLAR.0>
-1.47808

>  <SCORE.INTRA.REPUL>
0

>  <SCORE.INTRA.REPUL.0>
0

>  <SCORE.INTRA.VDW>
1.82647

>  <SCORE.INTRA.VDW.0>
-2.78316

>  <SCORE.INTRA.norm>
0.519581

>  <SCORE.RESTR>
3.97698

>  <SCORE.RESTR.CAVITY>
3.97698

>  <SCORE.RESTR.norm>
0.0795397

>  <SCORE.SYSTEM>
0

>  <SCORE.SYSTEM.CONST>
0

>  <SCORE.SYSTEM.DIHEDRAL>
0

>  <SCORE.SYSTEM.norm>
0

>  <SCORE.heavy>
50

>  <SCORE.norm>
0.759272

$$$$
