FB1.pdb
  RxDock  10072012423D
librxdock.so/0.1.0
 59 58  0  0  0  0  0  0  0  0999 V2000
   -8.2049   12.7461   -2.5132 C   0  0  0  0  0  0
   -7.6678   11.8276   -3.6083 C   0  0  0  0  0  0
   -6.8541   10.6609   -3.0245 C   0  0  0  0  0  0
   -7.7046    9.6722   -2.1885 C   0  0  0  0  0  0
   -6.9503    8.3764   -1.7277 C   0  0  0  0  0  0
   -5.7983    8.7945   -0.7849 C   0  0  0  0  0  0
   -7.8943    7.3081   -1.0310 C   0  0  0  0  0  0
   -7.2356    5.8997   -0.6451 C   0  0  0  0  0  0
   -5.7243    5.6881   -0.1988 C   0  0  0  0  0  0
   -4.7779    4.8906   -1.2896 C   0  0  0  0  0  0
   -4.4464    5.8465   -2.4344 C   0  0  0  0  0  0
   -3.4318    4.2527   -0.7187 C   0  0  0  0  0  0
   -2.3571    3.4449   -1.6192 C   0  0  0  0  0  0
   -1.7153    2.0939   -1.1512 C   0  0  0  0  0  0
   -0.7385    2.1169    0.1116 C   0  0  0  0  0  0
    0.8323    2.2520    0.0176 C   0  0  0  0  0  0
    1.7322    1.1230    0.5860 C   0  0  0  0  0  0
    1.6558    0.8759    2.1424 C   0  0  0  0  0  0
    1.7024    2.1247    3.0316 C   0  0  0  0  0  0
    3.0931    2.6744    3.4585 C   0  0  0  0  0  0
    4.0920    1.7750    4.2450 C   0  0  0  0  0  0
    3.4841    0.7995    5.2432 C   0  0  0  0  0  0
    5.0123    1.0816    3.3238 N   0  0  0  0  0  0
    3.7661    2.9809    2.2107 O   0  0  0  0  0  0
    0.4432    0.1664    2.4180 O   0  0  0  0  0  0
   -3.0575    3.1267   -2.8336 O   0  0  0  0  0  0
   -8.0151    5.3770    0.4647 O   0  0  0  0  0  0
   -7.6576    4.1598    0.9503 C   0  0  0  0  0  0
   -7.3347    3.9088    2.0958 O   0  0  0  0  0  0
   -7.8246    3.1427   -0.1447 C   0  0  0  0  0  0
   -8.6901    3.6606   -1.3045 C   0  0  0  0  0  0
   -9.0940    2.5478   -2.2802 C   0  0  0  0  0  0
   -9.4553    3.1142   -3.6337 C   0  0  0  0  0  0
   -9.4505    4.3132   -3.8905 O   0  0  0  0  0  0
   -9.7826    2.1766   -4.5352 O   0  0  0  0  0  0
   -9.9409    4.2712   -0.6574 C   0  0  0  0  0  0
  -10.3310    3.9654    0.4591 O   0  0  0  0  0  0
  -10.6023    5.1354   -1.4395 O   0  0  0  0  0  0
   -8.6304    7.9067    0.1091 O   0  0  0  0  0  0
   -9.7990    8.6020   -0.1531 C   0  0  0  0  0  0
  -10.4268    8.5384   -1.2020 O   0  0  0  0  0  0
  -10.2355    9.4770    1.0294 C   0  0  0  0  0  0
   -9.0959    9.9290    1.9945 C   0  0  0  0  0  0
   -7.8237   10.5373    1.3768 C   0  0  0  0  0  0
   -6.6891   10.6421    2.3547 C   0  0  0  0  0  0
   -6.0650   11.6610    2.6170 O   0  0  0  0  0  0
   -6.4201    9.4730    2.9558 O   0  0  0  0  0  0
   -9.5479   10.8695    3.1186 C   0  0  0  0  0  0
   -9.1468   10.7730    4.2616 O   0  0  0  0  0  0
  -10.3455   11.8886    2.7357 O   0  0  0  0  0  0
    5.7140    1.7423    2.9925 H   0  0  0  0  0  0
    4.4923    0.8081    2.4870 H   0  0  0  0  0  0
    4.5490    3.5081    2.4758 H   0  0  0  0  0  0
   -0.3040    0.7789    2.2874 H   0  0  0  0  0  0
   -3.7249    2.4510   -2.6276 H   0  0  0  0  0  0
   -9.9796    2.5109   -5.4312 H   0  0  0  0  0  0
  -10.2119    5.2544   -2.3407 H   0  0  0  0  0  0
   -7.0416    8.8142    2.5804 H   0  0  0  0  0  0
  -10.5476   12.5490    3.4352 H   0  0  0  0  0  0
  1  2  1  0  0  0
  2  3  1  0  0  0
  3  4  1  0  0  0
  4  5  1  0  0  0
  5  6  1  0  0  0
  5  7  1  0  0  0
  7  8  1  0  0  0
  7 39  1  0  0  0
  8  9  1  0  0  0
  8 27  1  0  0  0
  9 10  1  0  0  0
 10 11  1  0  0  0
 10 12  1  0  0  0
 12 13  1  0  0  0
 13 14  1  0  0  0
 13 26  1  0  0  0
 14 15  1  0  0  0
 15 16  1  0  0  0
 16 17  1  0  0  0
 17 18  1  0  0  0
 18 19  1  0  0  0
 18 25  1  0  0  0
 19 20  1  0  0  0
 20 21  1  0  0  0
 20 24  1  0  0  0
 21 22  1  0  0  0
 21 23  1  0  0  0
 23 51  1  0  0  0
 23 52  1  0  0  0
 24 53  1  0  0  0
 25 54  1  0  0  0
 26 55  1  0  0  0
 27 28  1  0  0  0
 28 29  2  0  0  0
 28 30  1  0  0  0
 30 31  1  0  0  0
 31 32  1  0  0  0
 31 36  1  0  0  0
 32 33  1  0  0  0
 33 34  2  0  0  0
 33 35  1  0  0  0
 35 56  1  0  0  0
 36 37  2  0  0  0
 36 38  1  0  0  0
 38 57  1  0  0  0
 39 40  1  0  0  0
 40 41  2  0  0  0
 40 42  1  0  0  0
 42 43  1  0  0  0
 43 44  1  0  0  0
 43 48  1  0  0  0
 44 45  1  0  0  0
 45 46  2  0  0  0
 45 47  1  0  0  0
 47 58  1  0  0  0
 48 49  2  0  0  0
 48 50  1  0  0  0
 50 59  1  0  0  0
M  END
>  <AUTHOR>
    GENERATED BY OPEN BABEL 2.4.1

>  <CHROM.1>
66.19398887,172.66711900,63.42959918,174.72843195,32.72754959,83.63729280
-110.35341319,178.53915283,75.01820057,-179.31652414,-135.26886910,-66.58750288
-70.50810804,-93.85377028,-119.73295872,-64.04791804,-45.64988645,-87.25252856
-71.30995825,-58.26492623,-35.27086538,167.67535948,75.99362843,122.15855372
-16.10898875,-168.52801104,-157.97427499,-22.50934686,-1.57292273,-177.20660147
1.29231007,15.83163092,25.30546716,48.88457791,-166.88764803,138.74934711
-125.74507479,1.13948469,-173.10558384,-5.41429759,5.76763827,0.17486604
-2.74767138,0.46159383,-2.64505718

>  <COMPND>
    UNNAMED

>  <MASTER>
        0    0    0    0    0    0    0    0  109    0  109    0

>  <Name>
FB1.pdb

>  <RI>
0

>  <Rbt.Current_Directory>
/home/fc/tossine/FB1_39/p3/2_clust01

>  <Rbt.Executable>
rbdock/0.1.0

>  <Rbt.Library>
librxdock.so/0.1.0

>  <Rbt.Parameter_File>
/cluster/rxdock/data/scripts/dock.prm

>  <Rbt.Receptor>
rx_2.prm

>  <SCORE>
37.277

>  <SCORE.INTER>
10.6014

>  <SCORE.INTER.CONST>
1

>  <SCORE.INTER.POLAR>
-0.738717

>  <SCORE.INTER.REPUL>
1.19168

>  <SCORE.INTER.ROT>
32

>  <SCORE.INTER.VDW>
-30.2453

>  <SCORE.INTER.norm>
0.212028

>  <SCORE.INTRA>
22.8626

>  <SCORE.INTRA.DIHEDRAL>
21.4499

>  <SCORE.INTRA.DIHEDRAL.0>
47.3121

>  <SCORE.INTRA.POLAR>
1.23459

>  <SCORE.INTRA.POLAR.0>
-1.47808

>  <SCORE.INTRA.REPUL>
0

>  <SCORE.INTRA.REPUL.0>
0

>  <SCORE.INTRA.VDW>
7.94001

>  <SCORE.INTRA.VDW.0>
-2.78316

>  <SCORE.INTRA.norm>
0.457251

>  <SCORE.RESTR>
3.81306

>  <SCORE.RESTR.CAVITY>
3.81306

>  <SCORE.RESTR.norm>
0.0762612

>  <SCORE.SYSTEM>
0

>  <SCORE.SYSTEM.CONST>
0

>  <SCORE.SYSTEM.DIHEDRAL>
0

>  <SCORE.SYSTEM.norm>
0

>  <SCORE.heavy>
50

>  <SCORE.norm>
0.74554

$$$$
