FB1.pdb
  RxDock  10072014143D
librxdock.so/0.1.0
 59 58  0  0  0  0  0  0  0  0999 V2000
    4.7636   -2.2711    2.7905 C   0  0  0  0  0  0
    3.2526   -2.2140    3.0030 C   0  0  0  0  0  0
    2.8320   -0.9451    3.7628 C   0  0  0  0  0  0
    1.3015   -0.8291    3.9715 C   0  0  0  0  0  0
    0.4687   -0.6203    2.6588 C   0  0  0  0  0  0
   -0.9778   -1.1001    2.9200 C   0  0  0  0  0  0
    0.4836    0.8759    2.1306 C   0  0  0  0  0  0
    1.8562    1.4091    1.4997 C   0  0  0  0  0  0
    3.2003    1.6587    2.3115 C   0  0  0  0  0  0
    4.3523    2.5242    1.5081 C   0  0  0  0  0  0
    4.9386    3.5588    2.4673 C   0  0  0  0  0  0
    5.5324    1.6791    0.8463 C   0  0  0  0  0  0
    6.6929    2.3156   -0.0847 C   0  0  0  0  0  0
    8.1423    1.7226   -0.1436 C   0  0  0  0  0  0
    9.1398    2.0394    1.0621 C   0  0  0  0  0  0
    8.7706    1.8708    2.5885 C   0  0  0  0  0  0
    9.7214    2.4431    3.6729 C   0  0  0  0  0  0
    9.3007    2.2084    5.1752 C   0  0  0  0  0  0
   10.0321    3.0536    6.2256 C   0  0  0  0  0  0
    9.7730    2.7485    7.7282 C   0  0  0  0  0  0
   10.1418    3.7931    8.8229 C   0  0  0  0  0  0
   10.5282    3.2377   10.1866 C   0  0  0  0  0  0
   11.1642    4.7344    8.3278 N   0  0  0  0  0  0
    8.3346    2.5913    7.8287 O   0  0  0  0  0  0
    7.8959    2.4621    5.2853 O   0  0  0  0  0  0
    6.1893    2.2098   -1.4271 O   0  0  0  0  0  0
    2.2294    0.4522    0.4713 O   0  0  0  0  0  0
    2.8071    0.9491   -0.6533 C   0  0  0  0  0  0
    3.0449    2.1197   -0.8829 O   0  0  0  0  0  0
    3.2015   -0.2035   -1.5350 C   0  0  0  0  0  0
    4.0266   -1.2632   -0.7875 C   0  0  0  0  0  0
    3.6634   -2.6940   -1.2048 C   0  0  0  0  0  0
    2.1773   -2.9376   -1.0803 C   0  0  0  0  0  0
    1.4966   -3.4447   -1.9653 O   0  0  0  0  0  0
    1.6685   -2.5462    0.0973 O   0  0  0  0  0  0
    5.4946   -0.9730   -1.1291 C   0  0  0  0  0  0
    5.8336   -0.2257   -2.0341 O   0  0  0  0  0  0
    6.3799   -1.6472   -0.3824 O   0  0  0  0  0  0
   -0.6746    1.1420    1.2431 O   0  0  0  0  0  0
   -1.3702    2.3286    1.4053 C   0  0  0  0  0  0
   -0.9166    3.3350    1.9341 O   0  0  0  0  0  0
   -2.7956    2.2513    0.8425 C   0  0  0  0  0  0
   -2.9059    2.1430   -0.7101 C   0  0  0  0  0  0
   -4.3029    2.2627   -1.3461 C   0  0  0  0  0  0
   -4.2569    2.4072   -2.8399 C   0  0  0  0  0  0
   -4.5966    3.3981   -3.4717 O   0  0  0  0  0  0
   -3.7719    1.3131   -3.4466 O   0  0  0  0  0  0
   -1.9743    3.0850   -1.4828 C   0  0  0  0  0  0
   -1.6963    4.2028   -1.0954 O   0  0  0  0  0  0
   -1.3907    2.5534   -2.5773 O   0  0  0  0  0  0
   12.0187    4.2199    8.1189 H   0  0  0  0  0  0
   11.4183    5.3698    9.0875 H   0  0  0  0  0  0
    8.1748    2.3803    8.7728 H   0  0  0  0  0  0
    7.6493    2.4047    6.2267 H   0  0  0  0  0  0
    5.3915    2.7607   -1.4933 H   0  0  0  0  0  0
    2.2992   -2.1040    0.6974 H   0  0  0  0  0  0
    7.3256   -1.4174   -0.5601 H   0  0  0  0  0  0
   -3.7997    1.4903   -4.4105 H   0  0  0  0  0  0
   -1.8114    1.7343   -2.9212 H   0  0  0  0  0  0
  1  2  1  0  0  0
  2  3  1  0  0  0
  3  4  1  0  0  0
  4  5  1  0  0  0
  5  6  1  0  0  0
  5  7  1  0  0  0
  7  8  1  0  0  0
  7 39  1  0  0  0
  8  9  1  0  0  0
  8 27  1  0  0  0
  9 10  1  0  0  0
 10 11  1  0  0  0
 10 12  1  0  0  0
 12 13  1  0  0  0
 13 14  1  0  0  0
 13 26  1  0  0  0
 14 15  1  0  0  0
 15 16  1  0  0  0
 16 17  1  0  0  0
 17 18  1  0  0  0
 18 19  1  0  0  0
 18 25  1  0  0  0
 19 20  1  0  0  0
 20 21  1  0  0  0
 20 24  1  0  0  0
 21 22  1  0  0  0
 21 23  1  0  0  0
 23 51  1  0  0  0
 23 52  1  0  0  0
 24 53  1  0  0  0
 25 54  1  0  0  0
 26 55  1  0  0  0
 27 28  1  0  0  0
 28 29  2  0  0  0
 28 30  1  0  0  0
 30 31  1  0  0  0
 31 32  1  0  0  0
 31 36  1  0  0  0
 32 33  1  0  0  0
 33 34  2  0  0  0
 33 35  1  0  0  0
 35 56  1  0  0  0
 36 37  2  0  0  0
 36 38  1  0  0  0
 38 57  1  0  0  0
 39 40  1  0  0  0
 40 41  2  0  0  0
 40 42  1  0  0  0
 42 43  1  0  0  0
 43 44  1  0  0  0
 43 48  1  0  0  0
 44 45  1  0  0  0
 45 46  2  0  0  0
 45 47  1  0  0  0
 47 58  1  0  0  0
 48 49  2  0  0  0
 48 50  1  0  0  0
 50 59  1  0  0  0
M  END
>  <AUTHOR>
    GENERATED BY OPEN BABEL 2.4.1

>  <CHROM.1>
178.63254128,-66.87200508,156.83126336,71.32349888,-67.87166857,136.23659568
-166.66634148,143.22849019,135.89517076,174.80957756,149.07881439,-77.35290452
63.77195293,48.84007024,-169.17475321,-178.73398294,-165.39255123,-173.16131376
-174.46511579,-162.42789932,-150.11876662,178.84555000,-62.98742113,0.12592121
-51.26019383,141.24735180,-53.26217730,-13.57477041,131.40862812,3.87652934
-176.16766828,21.91019583,-68.47615109,-171.51449936,168.97239273,-35.30900011
-113.68639868,178.67276439,17.51478427,3.39477546,1.19071448,1.44279999,-0.52762101
0.25831187,-2.15255865

>  <COMPND>
    UNNAMED

>  <MASTER>
        0    0    0    0    0    0    0    0  109    0  109    0

>  <Name>
FB1.pdb

>  <RI>
0

>  <Rbt.Current_Directory>
/home/fc/tossine/FB1_39/p3/2_clust01

>  <Rbt.Executable>
rbdock/0.1.0

>  <Rbt.Library>
librxdock.so/0.1.0

>  <Rbt.Parameter_File>
/cluster/rxdock/data/scripts/dock.prm

>  <Rbt.Receptor>
rx_4.prm

>  <SCORE>
12.5847

>  <SCORE.INTER>
12.1177

>  <SCORE.INTER.CONST>
1

>  <SCORE.INTER.POLAR>
-1.95785

>  <SCORE.INTER.REPUL>
0.932185

>  <SCORE.INTER.ROT>
32

>  <SCORE.INTER.VDW>
-23.2866

>  <SCORE.INTER.norm>
0.242353

>  <SCORE.INTRA>
-2.42822

>  <SCORE.INTRA.DIHEDRAL>
0.931008

>  <SCORE.INTRA.DIHEDRAL.0>
47.3121

>  <SCORE.INTRA.POLAR>
0.295852

>  <SCORE.INTRA.POLAR.0>
-1.47808

>  <SCORE.INTRA.REPUL>
0

>  <SCORE.INTRA.REPUL.0>
0

>  <SCORE.INTRA.VDW>
-3.89962

>  <SCORE.INTRA.VDW.0>
-2.78316

>  <SCORE.INTRA.norm>
-0.0485644

>  <SCORE.RESTR>
2.89527

>  <SCORE.RESTR.CAVITY>
2.89527

>  <SCORE.RESTR.norm>
0.0579054

>  <SCORE.SYSTEM>
0

>  <SCORE.SYSTEM.CONST>
0

>  <SCORE.SYSTEM.DIHEDRAL>
0

>  <SCORE.SYSTEM.norm>
0

>  <SCORE.heavy>
50

>  <SCORE.norm>
0.251694

$$$$
