FB1.pdb
  RxDock  10072011463D
librxdock.so/0.1.0
 59 58  0  0  0  0  0  0  0  0999 V2000
    2.3952    0.7116   -0.1557 C   0  0  0  0  0  0
    2.2414    2.0085    0.6354 C   0  0  0  0  0  0
    3.2701    2.1062    1.7741 C   0  0  0  0  0  0
    4.7380    2.1307    1.2798 C   0  0  0  0  0  0
    5.8180    2.1840    2.4161 C   0  0  0  0  0  0
    5.6725    0.9128    3.2842 C   0  0  0  0  0  0
    7.3015    2.3338    1.8733 C   0  0  0  0  0  0
    8.4289    2.7263    2.9416 C   0  0  0  0  0  0
    9.1525    1.7072    3.9245 C   0  0  0  0  0  0
    9.2157    2.1829    5.5028 C   0  0  0  0  0  0
   10.5029    2.9770    5.7189 C   0  0  0  0  0  0
    7.9706    3.0278    6.0328 C   0  0  0  0  0  0
    7.2483    2.7817    7.4598 C   0  0  0  0  0  0
    7.9871    3.0010    8.8244 C   0  0  0  0  0  0
    9.3271    2.1782    9.1009 C   0  0  0  0  0  0
   10.7777    2.8014    9.0568 C   0  0  0  0  0  0
   10.9924    4.1934    8.4058 C   0  0  0  0  0  0
   10.1477    5.3871    8.9980 C   0  0  0  0  0  0
   10.2992    5.6460   10.5022 C   0  0  0  0  0  0
    9.4570    6.7856   11.1427 C   0  0  0  0  0  0
    7.9083    6.6608   11.2497 C   0  0  0  0  0  0
    7.1249    7.9653   11.2932 C   0  0  0  0  0  0
    7.3801    5.7630   10.2050 N   0  0  0  0  0  0
    9.9232    6.8609   12.5142 O   0  0  0  0  0  0
   10.5119    6.5785    8.2926 O   0  0  0  0  0  0
    6.1442    3.7021    7.4787 O   0  0  0  0  0  0
    9.5140    3.3281    2.1847 O   0  0  0  0  0  0
   10.1798    4.3561    2.7721 C   0  0  0  0  0  0
    9.8344    4.9606    3.7694 O   0  0  0  0  0  0
   11.4777    4.5621    2.0410 C   0  0  0  0  0  0
   12.5387    5.2600    2.9069 C   0  0  0  0  0  0
   13.7752    5.6774    2.1005 C   0  0  0  0  0  0
   14.8808    4.6555    2.2299 C   0  0  0  0  0  0
   14.6995    3.5049    2.6133 O   0  0  0  0  0  0
   16.0874    5.1268    1.8823 O   0  0  0  0  0  0
   11.8528    6.5003    3.4963 C   0  0  0  0  0  0
   11.8351    6.7474    4.6926 O   0  0  0  0  0  0
   11.2291    7.2691    2.5931 O   0  0  0  0  0  0
    7.6948    1.1584    1.0588 O   0  0  0  0  0  0
    6.9425    0.8524   -0.0630 C   0  0  0  0  0  0
    6.4844    1.6790   -0.8409 O   0  0  0  0  0  0
    6.7385   -0.6586   -0.2348 C   0  0  0  0  0  0
    5.5851   -1.0814   -1.1967 C   0  0  0  0  0  0
    5.6593   -0.6174   -2.6629 C   0  0  0  0  0  0
    4.3087   -0.4870   -3.3059 C   0  0  0  0  0  0
    4.0895   -0.0285   -4.4187 O   0  0  0  0  0  0
    3.3219   -0.9550   -2.5265 O   0  0  0  0  0  0
    5.2869   -2.5858   -1.2123 C   0  0  0  0  0  0
    4.1738   -3.0364   -1.3985 O   0  0  0  0  0  0
    6.3650   -3.3912   -1.1114 O   0  0  0  0  0  0
    7.4262    6.2360    9.3035 H   0  0  0  0  0  0
    6.3825    5.6159   10.3746 H   0  0  0  0  0  0
   10.8578    7.1482   12.4416 H   0  0  0  0  0  0
   11.4559    6.7549    8.4604 H   0  0  0  0  0  0
    5.7809    3.7544    6.5788 H   0  0  0  0  0  0
   16.1096    6.0702    1.6312 H   0  0  0  0  0  0
   10.6836    7.9974    2.9813 H   0  0  0  0  0  0
    2.4844   -0.8092   -3.0150 H   0  0  0  0  0  0
    7.2273   -2.9657   -1.3155 H   0  0  0  0  0  0
  1  2  1  0  0  0
  2  3  1  0  0  0
  3  4  1  0  0  0
  4  5  1  0  0  0
  5  6  1  0  0  0
  5  7  1  0  0  0
  7  8  1  0  0  0
  7 39  1  0  0  0
  8  9  1  0  0  0
  8 27  1  0  0  0
  9 10  1  0  0  0
 10 11  1  0  0  0
 10 12  1  0  0  0
 12 13  1  0  0  0
 13 14  1  0  0  0
 13 26  1  0  0  0
 14 15  1  0  0  0
 15 16  1  0  0  0
 16 17  1  0  0  0
 17 18  1  0  0  0
 18 19  1  0  0  0
 18 25  1  0  0  0
 19 20  1  0  0  0
 20 21  1  0  0  0
 20 24  1  0  0  0
 21 22  1  0  0  0
 21 23  1  0  0  0
 23 51  1  0  0  0
 23 52  1  0  0  0
 24 53  1  0  0  0
 25 54  1  0  0  0
 26 55  1  0  0  0
 27 28  1  0  0  0
 28 29  2  0  0  0
 28 30  1  0  0  0
 30 31  1  0  0  0
 31 32  1  0  0  0
 31 36  1  0  0  0
 32 33  1  0  0  0
 33 34  2  0  0  0
 33 35  1  0  0  0
 35 56  1  0  0  0
 36 37  2  0  0  0
 36 38  1  0  0  0
 38 57  1  0  0  0
 39 40  1  0  0  0
 40 41  2  0  0  0
 40 42  1  0  0  0
 42 43  1  0  0  0
 43 44  1  0  0  0
 43 48  1  0  0  0
 44 45  1  0  0  0
 45 46  2  0  0  0
 45 47  1  0  0  0
 47 58  1  0  0  0
 48 49  2  0  0  0
 48 50  1  0  0  0
 50 59  1  0  0  0
M  END
>  <AUTHOR>
    GENERATED BY OPEN BABEL 2.4.1

>  <CHROM.1>
62.38459723,-178.14823011,61.27136765,166.59850614,81.54570605,58.91624301
-131.58395906,143.96945819,-90.20917665,136.10348372,64.11258393,-57.63398438
36.64461838,105.70482726,-14.59425049,56.98934247,56.33913152,-178.28356995
-62.79612772,67.89529287,-153.84620007,64.99556189,-72.89278640,-12.31648911
-156.63937520,-170.56682113,-97.19109747,126.87953209,18.16001619,2.65197109
171.99450790,39.75266320,162.75451437,59.75650651,-152.66822901,147.81702328
173.34117756,178.64710313,-18.09145532,8.33284342,2.98364993,3.70652494,2.04023179
-0.39767791,-1.93225937

>  <COMPND>
    UNNAMED

>  <MASTER>
        0    0    0    0    0    0    0    0  109    0  109    0

>  <Name>
FB1.pdb

>  <RI>
0

>  <Rbt.Current_Directory>
/home/fc/tossine/FB1_39/p3/2_clust01

>  <Rbt.Executable>
rbdock/0.1.0

>  <Rbt.Library>
librxdock.so/0.1.0

>  <Rbt.Parameter_File>
/cluster/rxdock/data/scripts/dock.prm

>  <Rbt.Receptor>
rx_1.prm

>  <SCORE>
22.7119

>  <SCORE.INTER>
2.05936

>  <SCORE.INTER.CONST>
1

>  <SCORE.INTER.POLAR>
-2.22402

>  <SCORE.INTER.REPUL>
0.110272

>  <SCORE.INTER.ROT>
32

>  <SCORE.INTER.VDW>
-28.3303

>  <SCORE.INTER.norm>
0.0411873

>  <SCORE.INTRA>
19.1904

>  <SCORE.INTRA.DIHEDRAL>
21.4257

>  <SCORE.INTRA.DIHEDRAL.0>
47.3121

>  <SCORE.INTRA.POLAR>
1.47808

>  <SCORE.INTRA.POLAR.0>
-1.47808

>  <SCORE.INTRA.REPUL>
0.0609565

>  <SCORE.INTRA.REPUL.0>
0

>  <SCORE.INTRA.VDW>
3.14725

>  <SCORE.INTRA.VDW.0>
-2.78316

>  <SCORE.INTRA.norm>
0.383807

>  <SCORE.RESTR>
1.46215

>  <SCORE.RESTR.CAVITY>
1.46215

>  <SCORE.RESTR.norm>
0.029243

>  <SCORE.SYSTEM>
0

>  <SCORE.SYSTEM.CONST>
0

>  <SCORE.SYSTEM.DIHEDRAL>
0

>  <SCORE.SYSTEM.norm>
0

>  <SCORE.heavy>
50

>  <SCORE.norm>
0.454238

$$$$
