FB1.pdb
  RxDock  10072010573D
librxdock.so/0.1.0
 59 58  0  0  0  0  0  0  0  0999 V2000
   -6.4256    6.9641   -0.8964 C   0  0  0  0  0  0
   -7.7735    6.4612   -1.4078 C   0  0  0  0  0  0
   -8.7926    7.6043   -1.5459 C   0  0  0  0  0  0
   -8.4761    8.5765   -2.7097 C   0  0  0  0  0  0
   -9.4749    9.7767   -2.8593 C   0  0  0  0  0  0
  -10.8914    9.2032   -3.0945 C   0  0  0  0  0  0
   -9.4627   10.7687   -1.6209 C   0  0  0  0  0  0
   -9.4233   12.3365   -1.9473 C   0  0  0  0  0  0
   -9.0060   12.9700   -3.3447 C   0  0  0  0  0  0
   -7.6414   13.8964   -3.3130 C   0  0  0  0  0  0
   -6.4617   13.0090   -2.9195 C   0  0  0  0  0  0
   -7.2942   14.6829   -4.6568 C   0  0  0  0  0  0
   -6.4210   16.0442   -4.7120 C   0  0  0  0  0  0
   -6.8341   17.2722   -5.5937 C   0  0  0  0  0  0
   -7.0355   17.0455   -7.1612 C   0  0  0  0  0  0
   -5.8777   16.6412   -8.1566 C   0  0  0  0  0  0
   -4.5502   17.4443   -8.1519 C   0  0  0  0  0  0
   -3.5259   17.1078   -7.0001 C   0  0  0  0  0  0
   -2.0392   17.1811   -7.3700 C   0  0  0  0  0  0
   -1.5546   18.3734   -8.2428 C   0  0  0  0  0  0
   -2.0450   18.5289   -9.7128 C   0  0  0  0  0  0
   -1.5247   19.7388  -10.4762 C   0  0  0  0  0  0
   -1.8194   17.2868  -10.4762 N   0  0  0  0  0  0
   -2.0440   19.5540   -7.5569 O   0  0  0  0  0  0
   -3.7695   18.0094   -5.9150 O   0  0  0  0  0  0
   -6.4179   16.5362   -3.3612 O   0  0  0  0  0  0
  -10.7689   12.8340   -1.7141 O   0  0  0  0  0  0
  -10.9073   13.8379   -0.8094 C   0  0  0  0  0  0
  -11.6046   14.8268   -0.9332 O   0  0  0  0  0  0
  -10.1296   13.4760    0.4257 C   0  0  0  0  0  0
   -9.1284   14.5684    0.8340 C   0  0  0  0  0  0
   -8.0290   14.7811   -0.2146 C   0  0  0  0  0  0
   -7.0769   15.8757    0.2081 C   0  0  0  0  0  0
   -6.8027   16.8440   -0.4924 O   0  0  0  0  0  0
   -6.5571   15.6892    1.4304 O   0  0  0  0  0  0
   -9.9510   15.8536    1.0007 C   0  0  0  0  0  0
  -10.0082   16.7244    0.1458 O   0  0  0  0  0  0
  -10.5655   15.9670    2.1862 O   0  0  0  0  0  0
  -10.5351   10.4306   -0.6535 O   0  0  0  0  0  0
  -10.2058    9.6709    0.4566 C   0  0  0  0  0  0
   -9.0662    9.4974    0.8685 O   0  0  0  0  0  0
  -11.4398    9.0574    1.1312 C   0  0  0  0  0  0
  -12.2110    7.9918    0.2920 C   0  0  0  0  0  0
  -12.5617    6.6539    0.9684 C   0  0  0  0  0  0
  -11.4248    6.0846    1.7670 C   0  0  0  0  0  0
  -11.4882    5.7048    2.9282 O   0  0  0  0  0  0
  -10.2878    6.0083    1.0587 O   0  0  0  0  0  0
  -13.4902    8.5103   -0.3765 C   0  0  0  0  0  0
  -14.0604    9.5211   -0.0162 O   0  0  0  0  0  0
  -13.8904    7.8275   -1.4696 O   0  0  0  0  0  0
   -2.4063   17.2955  -11.3092 H   0  0  0  0  0  0
   -2.1592   16.4970   -9.9228 H   0  0  0  0  0  0
   -1.6491   20.3056   -8.0472 H   0  0  0  0  0  0
   -3.4353   18.8892   -6.1696 H   0  0  0  0  0  0
   -6.0375   15.8471   -2.7911 H   0  0  0  0  0  0
   -6.8261   14.8629    1.8758 H   0  0  0  0  0  0
  -11.2211   16.7060    2.2392 H   0  0  0  0  0  0
   -9.5837    5.7378    1.6852 H   0  0  0  0  0  0
  -14.7225    8.1479   -1.8833 H   0  0  0  0  0  0
  1  2  1  0  0  0
  2  3  1  0  0  0
  3  4  1  0  0  0
  4  5  1  0  0  0
  5  6  1  0  0  0
  5  7  1  0  0  0
  7  8  1  0  0  0
  7 39  1  0  0  0
  8  9  1  0  0  0
  8 27  1  0  0  0
  9 10  1  0  0  0
 10 11  1  0  0  0
 10 12  1  0  0  0
 12 13  1  0  0  0
 13 14  1  0  0  0
 13 26  1  0  0  0
 14 15  1  0  0  0
 15 16  1  0  0  0
 16 17  1  0  0  0
 17 18  1  0  0  0
 18 19  1  0  0  0
 18 25  1  0  0  0
 19 20  1  0  0  0
 20 21  1  0  0  0
 20 24  1  0  0  0
 21 22  1  0  0  0
 21 23  1  0  0  0
 23 51  1  0  0  0
 23 52  1  0  0  0
 24 53  1  0  0  0
 25 54  1  0  0  0
 26 55  1  0  0  0
 27 28  1  0  0  0
 28 29  2  0  0  0
 28 30  1  0  0  0
 30 31  1  0  0  0
 31 32  1  0  0  0
 31 36  1  0  0  0
 32 33  1  0  0  0
 33 34  2  0  0  0
 33 35  1  0  0  0
 35 56  1  0  0  0
 36 37  2  0  0  0
 36 38  1  0  0  0
 38 57  1  0  0  0
 39 40  1  0  0  0
 40 41  2  0  0  0
 40 42  1  0  0  0
 42 43  1  0  0  0
 43 44  1  0  0  0
 43 48  1  0  0  0
 44 45  1  0  0  0
 45 46  2  0  0  0
 45 47  1  0  0  0
 47 58  1  0  0  0
 48 49  2  0  0  0
 48 50  1  0  0  0
 50 59  1  0  0  0
M  END
>  <AUTHOR>
    GENERATED BY OPEN BABEL 2.4.1

>  <CHROM.1>
70.59538855,-178.54093199,-59.41168220,134.39399906,-17.45671481,97.89748645
-115.77302616,122.37716231,63.00782128,154.53076336,-135.93370255,-56.67329535
58.16451973,-65.12005433,-50.08777468,78.88997273,144.79932083,42.60371316
-73.48738631,-65.56239341,179.29879229,173.50117211,161.47028261,136.84905532
125.95159400,-64.16646763,179.07721551,-100.02166946,-126.36597723,2.31932391
-169.59810011,16.92109258,65.97824318,130.81932352,-43.96912004,-19.08082114
129.01544028,172.95113714,178.54948274,-8.16130672,13.05635529,-2.49410973
-2.63565126,0.92162315,0.26890285

>  <COMPND>
    UNNAMED

>  <MASTER>
        0    0    0    0    0    0    0    0  109    0  109    0

>  <Name>
FB1.pdb

>  <RI>
0

>  <Rbt.Current_Directory>
/home/fc/tossine/FB1_39/p3/2_clust01

>  <Rbt.Executable>
rbdock/0.1.0

>  <Rbt.Library>
librxdock.so/0.1.0

>  <Rbt.Parameter_File>
/cluster/rxdock/data/scripts/dock.prm

>  <Rbt.Receptor>
rx_0.prm

>  <SCORE>
15.4062

>  <SCORE.INTER>
0.691716

>  <SCORE.INTER.CONST>
1

>  <SCORE.INTER.POLAR>
-1.5156

>  <SCORE.INTER.REPUL>
0.26923

>  <SCORE.INTER.ROT>
32

>  <SCORE.INTER.VDW>
-32.9014

>  <SCORE.INTER.norm>
0.0138343

>  <SCORE.INTRA>
14.7093

>  <SCORE.INTRA.DIHEDRAL>
26.0294

>  <SCORE.INTRA.DIHEDRAL.0>
47.3121

>  <SCORE.INTRA.POLAR>
0.799328

>  <SCORE.INTRA.POLAR.0>
-1.47808

>  <SCORE.INTRA.REPUL>
0.00677715

>  <SCORE.INTRA.REPUL.0>
0

>  <SCORE.INTRA.VDW>
-1.05701

>  <SCORE.INTRA.VDW.0>
-2.78316

>  <SCORE.INTRA.norm>
0.294186

>  <SCORE.RESTR>
0.00521615

>  <SCORE.RESTR.CAVITY>
0.00521615

>  <SCORE.RESTR.norm>
0.000104323

>  <SCORE.SYSTEM>
0

>  <SCORE.SYSTEM.CONST>
0

>  <SCORE.SYSTEM.DIHEDRAL>
0

>  <SCORE.SYSTEM.norm>
0

>  <SCORE.heavy>
50

>  <SCORE.norm>
0.308124

$$$$
