FB1.pdb
  RxDock  10072013293D
librxdock.so/0.1.0
 59 58  0  0  0  0  0  0  0  0999 V2000
  -11.5480    2.5293   -1.8953 C   0  0  0  0  0  0
  -11.1124    2.8898   -0.4769 C   0  0  0  0  0  0
   -9.6243    3.2722   -0.4182 C   0  0  0  0  0  0
   -9.3019    4.6099   -1.1298 C   0  0  0  0  0  0
   -8.3774    4.4825   -2.3906 C   0  0  0  0  0  0
   -9.2665    4.5520   -3.6536 C   0  0  0  0  0  0
   -7.2273    5.5743   -2.4454 C   0  0  0  0  0  0
   -7.6282    7.0716   -2.0410 C   0  0  0  0  0  0
   -6.6834    8.3424   -2.1848 C   0  0  0  0  0  0
   -6.8828    9.4972   -1.0237 C   0  0  0  0  0  0
   -8.3396    9.9571   -1.0420 C   0  0  0  0  0  0
   -6.4721    9.0803    0.4603 C   0  0  0  0  0  0
   -6.7326    9.9997    1.7663 C   0  0  0  0  0  0
   -7.5424   11.3399    1.7023 C   0  0  0  0  0  0
   -9.1371   11.2616    1.6962 C   0  0  0  0  0  0
  -10.0849   12.4723    1.3350 C   0  0  0  0  0  0
  -10.0158   13.1012   -0.0817 C   0  0  0  0  0  0
  -10.3883   14.6302   -0.1939 C   0  0  0  0  0  0
   -9.3630   15.6224    0.3691 C   0  0  0  0  0  0
   -7.8583   15.3847    0.0564 C   0  0  0  0  0  0
   -6.8259   16.5404    0.2104 C   0  0  0  0  0  0
   -5.6471   16.5287   -0.7528 C   0  0  0  0  0  0
   -7.5005   17.8523    0.2022 N   0  0  0  0  0  0
   -7.4391   14.3769    1.0116 O   0  0  0  0  0  0
  -10.6018   14.9326   -1.5769 O   0  0  0  0  0  0
   -7.4699    9.1585    2.6693 O   0  0  0  0  0  0
   -8.8024    7.4050   -2.8301 O   0  0  0  0  0  0
   -9.9274    7.7446   -2.1487 C   0  0  0  0  0  0
  -10.1481    7.5302   -0.9720 O   0  0  0  0  0  0
  -10.8236    8.5264   -3.0691 C   0  0  0  0  0  0
  -12.0912    9.0370   -2.3657 C   0  0  0  0  0  0
  -12.8277    7.9288   -1.6022 C   0  0  0  0  0  0
  -12.7802    6.6215   -2.3586 C   0  0  0  0  0  0
  -12.0856    5.6684   -2.0227 O   0  0  0  0  0  0
  -13.5754    6.5997   -3.4384 O   0  0  0  0  0  0
  -11.6229   10.1252   -1.3898 C   0  0  0  0  0  0
  -11.6534   11.3172   -1.6554 O   0  0  0  0  0  0
  -11.1289    9.6573   -0.2353 O   0  0  0  0  0  0
   -6.0151    5.1117   -1.7266 O   0  0  0  0  0  0
   -4.7925    5.6613   -2.0747 C   0  0  0  0  0  0
   -4.6501    6.6601   -2.7679 O   0  0  0  0  0  0
   -3.6114    4.8751   -1.4905 C   0  0  0  0  0  0
   -3.9739    3.8168   -0.4028 C   0  0  0  0  0  0
   -4.3284    2.3928   -0.8689 C   0  0  0  0  0  0
   -5.6972    1.9565   -0.4323 C   0  0  0  0  0  0
   -5.9529    0.9496    0.2138 O   0  0  0  0  0  0
   -6.6554    2.8148   -0.8137 O   0  0  0  0  0  0
   -2.9420    3.6809    0.7236 C   0  0  0  0  0  0
   -3.1538    4.0516    1.8613 O   0  0  0  0  0  0
   -1.8111    3.0208    0.3969 O   0  0  0  0  0  0
   -7.8115   18.0621   -0.7453 H   0  0  0  0  0  0
   -6.8111   18.5755    0.4194 H   0  0  0  0  0  0
   -7.7401   13.5285    0.6233 H   0  0  0  0  0  0
  -11.5341   14.7425   -1.7894 H   0  0  0  0  0  0
   -6.8710    8.4634    2.9896 H   0  0  0  0  0  0
  -13.5076    5.7966   -3.9896 H   0  0  0  0  0  0
  -11.1121    8.6705   -0.1664 H   0  0  0  0  0  0
   -6.2223    3.4849   -1.3835 H   0  0  0  0  0  0
   -1.1371    2.9646    1.1101 H   0  0  0  0  0  0
  1  2  1  0  0  0
  2  3  1  0  0  0
  3  4  1  0  0  0
  4  5  1  0  0  0
  5  6  1  0  0  0
  5  7  1  0  0  0
  7  8  1  0  0  0
  7 39  1  0  0  0
  8  9  1  0  0  0
  8 27  1  0  0  0
  9 10  1  0  0  0
 10 11  1  0  0  0
 10 12  1  0  0  0
 12 13  1  0  0  0
 13 14  1  0  0  0
 13 26  1  0  0  0
 14 15  1  0  0  0
 15 16  1  0  0  0
 16 17  1  0  0  0
 17 18  1  0  0  0
 18 19  1  0  0  0
 18 25  1  0  0  0
 19 20  1  0  0  0
 20 21  1  0  0  0
 20 24  1  0  0  0
 21 22  1  0  0  0
 21 23  1  0  0  0
 23 51  1  0  0  0
 23 52  1  0  0  0
 24 53  1  0  0  0
 25 54  1  0  0  0
 26 55  1  0  0  0
 27 28  1  0  0  0
 28 29  2  0  0  0
 28 30  1  0  0  0
 30 31  1  0  0  0
 31 32  1  0  0  0
 31 36  1  0  0  0
 32 33  1  0  0  0
 33 34  2  0  0  0
 33 35  1  0  0  0
 35 56  1  0  0  0
 36 37  2  0  0  0
 36 38  1  0  0  0
 38 57  1  0  0  0
 39 40  1  0  0  0
 40 41  2  0  0  0
 40 42  1  0  0  0
 42 43  1  0  0  0
 43 44  1  0  0  0
 43 48  1  0  0  0
 44 45  1  0  0  0
 45 46  2  0  0  0
 45 47  1  0  0  0
 47 58  1  0  0  0
 48 49  2  0  0  0
 48 50  1  0  0  0
 50 59  1  0  0  0
M  END
>  <AUTHOR>
    GENERATED BY OPEN BABEL 2.4.1

>  <CHROM.1>
68.57969356,-114.99688023,100.84551052,-42.03889500,-172.60950105,156.08815297
-146.57844399,121.00346420,-57.65227743,-173.23059057,5.92068631,80.36011934
69.68079811,-166.63843856,61.96455688,-150.96193972,72.49115521,43.52779723
87.21626788,161.36849296,-147.63635851,80.84583912,-72.99059248,-16.80905535
-176.37978504,-50.57607132,-37.77001253,96.78970654,106.93843164,174.96977245
1.17707353,13.09586018,-12.07179128,88.37788037,-121.78696990,109.93794698
-124.31892247,6.15132650,177.78461461,-8.20824099,8.17497634,-0.81554670
1.33145002,0.28656073,-2.99680494

>  <COMPND>
    UNNAMED

>  <MASTER>
        0    0    0    0    0    0    0    0  109    0  109    0

>  <Name>
FB1.pdb

>  <RI>
0

>  <Rbt.Current_Directory>
/home/fc/tossine/FB1_39/p3/2_clust01

>  <Rbt.Executable>
rbdock/0.1.0

>  <Rbt.Library>
librxdock.so/0.1.0

>  <Rbt.Parameter_File>
/cluster/rxdock/data/scripts/dock.prm

>  <Rbt.Receptor>
rx_3.prm

>  <SCORE>
26.4756

>  <SCORE.INTER>
9.54563

>  <SCORE.INTER.CONST>
1

>  <SCORE.INTER.POLAR>
-1.41842

>  <SCORE.INTER.REPUL>
0.0627625

>  <SCORE.INTER.ROT>
32

>  <SCORE.INTER.VDW>
-23.3456

>  <SCORE.INTER.norm>
0.190913

>  <SCORE.INTRA>
15.7141

>  <SCORE.INTRA.DIHEDRAL>
22.6364

>  <SCORE.INTRA.DIHEDRAL.0>
47.3121

>  <SCORE.INTRA.POLAR>
0.0585445

>  <SCORE.INTRA.POLAR.0>
-1.47808

>  <SCORE.INTRA.REPUL>
0

>  <SCORE.INTRA.REPUL.0>
0

>  <SCORE.INTRA.VDW>
4.1969

>  <SCORE.INTRA.VDW.0>
-2.78316

>  <SCORE.INTRA.norm>
0.314283

>  <SCORE.RESTR>
1.21586

>  <SCORE.RESTR.CAVITY>
1.21586

>  <SCORE.RESTR.norm>
0.0243172

>  <SCORE.SYSTEM>
0

>  <SCORE.SYSTEM.CONST>
0

>  <SCORE.SYSTEM.DIHEDRAL>
0

>  <SCORE.SYSTEM.norm>
0

>  <SCORE.heavy>
50

>  <SCORE.norm>
0.529512

$$$$
