FB1.pdb
  RxDock  10072014113D
librxdock.so/0.1.0
 59 58  0  0  0  0  0  0  0  0999 V2000
   -9.8624    0.1475   -4.5958 C   0  0  0  0  0  0
   -9.7466    1.6216   -4.9765 C   0  0  0  0  0  0
   -9.4985    2.5097   -3.7461 C   0  0  0  0  0  0
   -9.1241    3.9697   -4.1037 C   0  0  0  0  0  0
   -9.1907    4.9818   -2.9071 C   0  0  0  0  0  0
  -10.4436    4.6535   -2.0627 C   0  0  0  0  0  0
   -7.8842    4.9844   -2.0066 C   0  0  0  0  0  0
   -6.5092    4.5789   -2.7216 C   0  0  0  0  0  0
   -5.2603    5.5434   -2.9169 C   0  0  0  0  0  0
   -4.4099    5.8737   -1.5424 C   0  0  0  0  0  0
   -5.1609    6.9447   -0.7530 C   0  0  0  0  0  0
   -4.0971    4.6303   -0.5933 C   0  0  0  0  0  0
   -2.6488    4.3321    0.0642 C   0  0  0  0  0  0
   -2.3677    3.0603    0.9358 C   0  0  0  0  0  0
   -1.0560    3.0408    1.8459 C   0  0  0  0  0  0
    0.0626    1.9284    1.7687 C   0  0  0  0  0  0
    0.9750    1.8472    0.5164 C   0  0  0  0  0  0
    2.5298    1.7930    0.7785 C   0  0  0  0  0  0
    3.0333    2.5204    2.0315 C   0  0  0  0  0  0
    4.5547    2.4733    2.3500 C   0  0  0  0  0  0
    5.1584    3.3788    3.4640 C   0  0  0  0  0  0
    6.6509    3.2295    3.7238 C   0  0  0  0  0  0
    4.8005    4.7929    3.2431 N   0  0  0  0  0  0
    4.7943    1.1151    2.7994 O   0  0  0  0  0  0
    2.9154    0.4170    0.8656 O   0  0  0  0  0  0
   -1.7503    4.2273   -1.0531 O   0  0  0  0  0  0
   -5.9793    3.4511   -1.9734 O   0  0  0  0  0  0
   -6.7255    2.3162   -1.9573 C   0  0  0  0  0  0
   -7.9091    2.2371   -1.6882 O   0  0  0  0  0  0
   -5.8670    1.1753   -2.4292 C   0  0  0  0  0  0
   -5.1981    1.4606   -3.7833 C   0  0  0  0  0  0
   -4.0914    2.5181   -3.6821 C   0  0  0  0  0  0
   -3.2015    2.2631   -2.4878 C   0  0  0  0  0  0
   -3.6271    2.0587   -1.3560 O   0  0  0  0  0  0
   -1.8933    2.2795   -2.7830 O   0  0  0  0  0  0
   -4.6062    0.1239   -4.2514 C   0  0  0  0  0  0
   -5.0861   -0.5361   -5.1605 O   0  0  0  0  0  0
   -3.5435   -0.2875   -3.5461 O   0  0  0  0  0  0
   -7.7607    6.2517   -1.2459 O   0  0  0  0  0  0
   -8.8027    6.6249   -0.4135 C   0  0  0  0  0  0
   -9.2006    5.9695    0.5408 O   0  0  0  0  0  0
   -9.4192    7.9707   -0.8172 C   0  0  0  0  0  0
  -10.1185    8.7663    0.3285 C   0  0  0  0  0  0
  -10.9172    7.9718    1.3779 C   0  0  0  0  0  0
  -12.0196    7.1488    0.7763 C   0  0  0  0  0  0
  -11.9835    6.5957   -0.3143 O   0  0  0  0  0  0
  -13.0877    7.0537    1.5829 O   0  0  0  0  0  0
   -9.1980    9.7267    1.0918 C   0  0  0  0  0  0
   -9.4582   10.9028    1.2524 O   0  0  0  0  0  0
   -8.1207    9.1580    1.6724 O   0  0  0  0  0  0
    5.4339    5.1939    2.5529 H   0  0  0  0  0  0
    4.9838    5.3144    4.1033 H   0  0  0  0  0  0
    4.4634    0.5515    2.0685 H   0  0  0  0  0  0
    2.7357   -0.0043    0.0050 H   0  0  0  0  0  0
   -1.8638    5.0189   -1.6054 H   0  0  0  0  0  0
   -1.6809    2.2567   -3.7358 H   0  0  0  0  0  0
   -2.6914    0.1483   -3.7967 H   0  0  0  0  0  0
  -12.9423    7.6860    2.3179 H   0  0  0  0  0  0
   -7.5963    9.7507    2.2555 H   0  0  0  0  0  0
  1  2  1  0  0  0
  2  3  1  0  0  0
  3  4  1  0  0  0
  4  5  1  0  0  0
  5  6  1  0  0  0
  5  7  1  0  0  0
  7  8  1  0  0  0
  7 39  1  0  0  0
  8  9  1  0  0  0
  8 27  1  0  0  0
  9 10  1  0  0  0
 10 11  1  0  0  0
 10 12  1  0  0  0
 12 13  1  0  0  0
 13 14  1  0  0  0
 13 26  1  0  0  0
 14 15  1  0  0  0
 15 16  1  0  0  0
 16 17  1  0  0  0
 17 18  1  0  0  0
 18 19  1  0  0  0
 18 25  1  0  0  0
 19 20  1  0  0  0
 20 21  1  0  0  0
 20 24  1  0  0  0
 21 22  1  0  0  0
 21 23  1  0  0  0
 23 51  1  0  0  0
 23 52  1  0  0  0
 24 53  1  0  0  0
 25 54  1  0  0  0
 26 55  1  0  0  0
 27 28  1  0  0  0
 28 29  2  0  0  0
 28 30  1  0  0  0
 30 31  1  0  0  0
 31 32  1  0  0  0
 31 36  1  0  0  0
 32 33  1  0  0  0
 33 34  2  0  0  0
 33 35  1  0  0  0
 35 56  1  0  0  0
 36 37  2  0  0  0
 36 38  1  0  0  0
 38 57  1  0  0  0
 39 40  1  0  0  0
 40 41  2  0  0  0
 40 42  1  0  0  0
 42 43  1  0  0  0
 43 44  1  0  0  0
 43 48  1  0  0  0
 44 45  1  0  0  0
 45 46  2  0  0  0
 45 47  1  0  0  0
 47 58  1  0  0  0
 48 49  2  0  0  0
 48 50  1  0  0  0
 50 59  1  0  0  0
M  END
>  <AUTHOR>
    GENERATED BY OPEN BABEL 2.4.1

>  <CHROM.1>
169.70821932,166.36881906,-40.51925973,28.11873250,115.79872585,56.75013768
72.38885823,62.70494793,-79.33315801,133.94530668,-176.98575385,-164.12295233
52.06195664,-123.76585356,69.35393294,129.36881436,-30.73221384,178.81837629
63.03652011,169.82779730,178.37178427,55.57560865,-81.43435449,-50.28857147
-53.08069837,70.88688575,44.92613053,106.91695950,-49.57084153,-12.71837090
-79.90910037,60.57255129,-154.31440046,-37.89970130,-58.20821393,127.10685002
34.33346933,9.70911250,-172.46912689,-4.78086211,4.02036651,-0.75438798,3.05215783
-0.33048647,0.70220036

>  <COMPND>
    UNNAMED

>  <MASTER>
        0    0    0    0    0    0    0    0  109    0  109    0

>  <Name>
FB1.pdb

>  <RI>
0

>  <Rbt.Current_Directory>
/home/fc/tossine/FB1_39/p3/2_clust01

>  <Rbt.Executable>
rbdock/0.1.0

>  <Rbt.Library>
librxdock.so/0.1.0

>  <Rbt.Parameter_File>
/cluster/rxdock/data/scripts/dock.prm

>  <Rbt.Receptor>
rx_4.prm

>  <SCORE>
41.8273

>  <SCORE.INTER>
-1.04535

>  <SCORE.INTER.CONST>
1

>  <SCORE.INTER.POLAR>
-3.07013

>  <SCORE.INTER.REPUL>
0

>  <SCORE.INTER.ROT>
32

>  <SCORE.INTER.VDW>
-28.0069

>  <SCORE.INTER.norm>
-0.0209069

>  <SCORE.INTRA>
41.4559

>  <SCORE.INTRA.DIHEDRAL>
59.8449

>  <SCORE.INTRA.DIHEDRAL.0>
47.3121

>  <SCORE.INTRA.POLAR>
0.686051

>  <SCORE.INTRA.POLAR.0>
-1.47808

>  <SCORE.INTRA.REPUL>
0

>  <SCORE.INTRA.REPUL.0>
0

>  <SCORE.INTRA.VDW>
9.20083

>  <SCORE.INTRA.VDW.0>
-2.78316

>  <SCORE.INTRA.norm>
0.829117

>  <SCORE.RESTR>
1.41677

>  <SCORE.RESTR.CAVITY>
1.41677

>  <SCORE.RESTR.norm>
0.0283354

>  <SCORE.SYSTEM>
0

>  <SCORE.SYSTEM.CONST>
0

>  <SCORE.SYSTEM.DIHEDRAL>
0

>  <SCORE.SYSTEM.norm>
0

>  <SCORE.heavy>
50

>  <SCORE.norm>
0.836546

$$$$
