@<TRIPOS>MOLECULE
dna.pdb
 1946 2187 0 0 0
SMALL
GASTEIGER

@<TRIPOS>ATOM
      1  O5'       20.5580    7.2530    5.7870 O.3     1  DA1        -0.2176
      2  C5'       21.4610    6.1600    5.7770 C.3     1  DA1         0.2140
      3  C4'       20.7810    4.8650    6.1720 C.3     1  DA1         0.1776
      4  O4'       20.1350    4.9830    7.4640 O.3     1  DA1        -0.3326
      5  C3'       19.6430    4.4350    5.2690 C.3     1  DA1         0.1559
      6  O3'       20.1410    3.9370    4.0330 O.3     1  DA1        -0.3138
      7  C2'       19.0330    3.3550    6.1530 C.3     1  DA1         0.0865
      8  C1'       19.0520    4.0700    7.5030 C.3     1  DA1         0.2094
      9  N9        17.7690    4.8160    7.7240 N.ar    1  DA1        -0.2714
     10  C8        17.5970    6.1760    7.7320 C.ar    1  DA1         0.1815
     11  N7        16.3860    6.5540    8.0660 N.ar    1  DA1        -0.2193
     12  C5        15.7170    5.3610    8.2930 C.ar    1  DA1         0.1518
     13  C6        14.3950    5.0770    8.6800 C.ar    1  DA1         0.1919
     14  N6        13.4760    6.0160    8.9160 N.pl3   1  DA1        -0.1054
     15  N1        14.0480    3.7790    8.8170 N.ar    1  DA1        -0.2040
     16  C2        14.9710    2.8400    8.5810 C.ar    1  DA1         0.2016
     17  N3        16.2420    2.9830    8.2140 N.ar    1  DA1        -0.2048
     18  C4        16.5550    4.2830    8.0850 C.ar    1  DA1         0.1691
     19  P         19.1860    3.9270    2.7370 P.3     2  DT2         0.2141
     20  OP1       20.0680    3.4680    1.6700 O.2     2  DT2        -0.5172
     21  OP2       18.6400    5.3110    2.8010 O.3     2  DT2        -0.4373
     22  O5'       17.9450    2.9630    2.9880 O.3     2  DT2        -0.3114
     23  C5'       18.0700    1.6700    2.5010 C.3     2  DT2         0.1811
     24  C4'       17.1760    0.8040    3.3450 C.3     2  DT2         0.1746
     25  O4'       17.1370    1.4570    4.5950 O.3     2  DT2        -0.3327
     26  C3'       15.7160    0.7710    3.0060 C.3     2  DT2         0.1558
     27  O3'       15.3880   -0.1580    1.9590 O.3     2  DT2        -0.3138
     28  C2'       15.2430    0.2950    4.3450 C.3     2  DT2         0.0866
     29  C1'       15.8950    1.2520    5.2270 C.3     2  DT2         0.2106
     30  N1        15.0430    2.4810    5.4250 N.ar    2  DT2        -0.2559
     31  C2        13.7800    2.4630    5.9860 C.ar    2  DT2         0.3545
     32  O2        13.1550    1.4350    6.1820 O.2     2  DT2        -0.2443
     33  N3        13.2710    3.6960    6.3120 N.ar    2  DT2        -0.1533
     34  C4        13.8830    4.9200    6.1360 C.ar    2  DT2         0.2804
     35  O4        13.2980    5.9440    6.4790 O.2     2  DT2        -0.2654
     36  C5        15.1910    4.8560    5.5470 C.ar    2  DT2         0.0534
     37  C6        15.7100    3.6690    5.2210 C.ar    2  DT2         0.0824
     38  C7        15.9390    6.1350    5.3140 C.3     2  DT2         0.0377
     39  P         14.6650    0.4170    0.7970 P.3     3  DA3         0.2141
     40  OP1       14.8630   -0.2120   -0.5300 O.2     3  DA3        -0.5172
     41  OP2       14.1030    1.7810    0.9120 O.3     3  DA3        -0.4373
     42  O5'       13.6890   -0.4860    1.6780 O.3     3  DA3        -0.3114
     43  C5'       14.2950   -1.6410    2.2390 C.3     3  DA3         0.1811
     44  C4'       13.2890   -2.7150    2.5440 C.3     3  DA3         0.1746
     45  O4'       13.2770   -2.9860    3.9710 O.3     3  DA3        -0.3327
     46  C3'       11.8530   -2.4010    2.1270 C.3     3  DA3         0.1558
     47  O3'       11.3390   -3.4800    1.3550 O.3     3  DA3        -0.3138
     48  C2'       11.0940   -2.2850    3.4520 C.3     3  DA3         0.0865
     49  C1'       11.9410   -3.1260    4.3960 C.3     3  DA3         0.2094
     50  N9        11.8740   -2.8850    5.5400 N.ar    3  DA3        -0.2714
     51  C8        11.9890   -1.5720    5.9160 C.ar    3  DA3         0.1815
     52  N7        11.0950   -1.1940    6.7990 N.ar    3  DA3        -0.2193
     53  C5        10.3400   -2.3360    7.0160 C.ar    3  DA3         0.1518
     54  C6         9.2350   -2.5960    7.8460 C.ar    3  DA3         0.1919
     55  N6         8.6780   -1.6810    8.6420 N.pl3   3  DA3        -0.1054
     56  N1         8.7170   -3.8420    7.8270 N.ar    3  DA3        -0.2040
     57  C2         9.2770   -4.7590    7.0290 C.ar    3  DA3         0.2016
     58  N3        10.3160   -4.6350    6.2070 N.ar    3  DA3        -0.2048
     59  C4        10.8070   -3.3850    6.2480 C.ar    3  DA3         0.1691
     60  P         10.8600   -3.0310   -0.0650 P.3     4  DC4         0.2141
     61  OP1       11.0880   -3.2190   -1.5200 O.2     4  DC4        -0.5172
     62  OP2       10.7920   -1.6480    0.5020 O.3     4  DC4        -0.4373
     63  O5'        9.5050   -3.7680    0.3470 O.3     4  DC4        -0.3114
     64  C5'        9.4140   -5.1950    0.3680 C.3     4  DC4         0.1811
     65  C4'        8.3570   -5.6530    1.3510 C.3     4  DC4         0.1746
     66  O4'        8.7670   -5.3330    2.7060 O.3     4  DC4        -0.3327
     67  C3'        6.9620   -5.0560    1.2030 C.3     4  DC4         0.1558
     68  O3'        6.2370   -5.7770    0.2020 O.3     4  DC4        -0.3138
     69  C2'        6.3810   -5.2080    2.6090 C.3     4  DC4         0.0866
     70  C1'        7.6250   -5.0340    3.4930 C.3     4  DC4         0.2106
     71  N1         7.7080   -3.7470    4.0510 N.ar    4  DC4        -0.2556
     72  C2         6.8950   -3.4300    5.1460 C.ar    4  DC4         0.3531
     73  O2         6.1930   -4.3240    5.6480 O.2     4  DC4        -0.2443
     74  N3         6.8980   -2.1620    5.6230 N.ar    4  DC4        -0.1739
     75  C4         7.6670   -1.2350    5.0520 C.ar    4  DC4         0.1759
     76  N4         7.6360    0.0000    5.5570 N.pl3   4  DC4        -0.1070
     77  C5         8.4970   -1.5360    3.9420 C.ar    4  DC4         0.0566
     78  C6         8.4920   -2.7890    3.4730 C.ar    4  DC4         0.0849
     79  P          4.5750   -5.6310    0.1240 P.3     5  DC5         0.2141
     80  OP1        4.3510   -5.8170   -1.3500 O.2     5  DC5        -0.5172
     81  OP2        3.5510   -4.8840    0.9250 O.3     5  DC5        -0.4373
     82  O5'        4.7950   -7.0700    0.7940 O.3     5  DC5        -0.3114
     83  C5'        4.2880   -8.2480    0.1670 C.3     5  DC5         0.1811
     84  C4'        3.4900   -9.0850    1.1390 C.3     5  DC5         0.1746
     85  O4'        4.2770   -9.2570    2.3490 O.3     5  DC5        -0.3327
     86  C3'        2.1410   -8.5680    1.6480 C.3     5  DC5         0.1558
     87  O3'        1.0490   -8.8580    0.7600 O.3     5  DC5        -0.3138
     88  C2'        1.9790   -9.3590    2.9430 C.3     5  DC5         0.0866
     89  C1'        3.4150   -9.3970    3.4710 C.3     5  DC5         0.2106
     90  N1         3.8380   -8.3830    4.4380 N.ar    5  DC5        -0.2556
     91  C2         3.4500   -8.5870    5.7670 C.ar    5  DC5         0.3531
     92  O2         2.8980   -9.6580    6.0710 O.2     5  DC5        -0.2443
     93  N3         3.6860   -7.6140    6.6790 N.ar    5  DC5        -0.1739
     94  C4         4.2810   -6.4800    6.3060 C.ar    5  DC5         0.1759
     95  N4         4.4930   -5.5490    7.2400 N.pl3   5  DC5        -0.1070
     96  C5         4.6820   -6.2540    4.9640 C.ar    5  DC5         0.0566
     97  C6         4.4470   -7.2180    4.0670 C.ar    5  DC5         0.0849
     98  P         -0.1870   -7.9620    0.7430 P.3     6  DA6         0.2141
     99  OP1       -1.0070   -8.6850   -0.2750 O.2     6  DA6        -0.5172
    100  OP2       -0.2880   -6.4860    0.8800 O.3     6  DA6        -0.4373
    101  O5'       -0.4860   -8.5720    2.1730 O.3     6  DA6        -0.3114
    102  C5'       -1.7050   -9.2030    2.4440 C.3     6  DA6         0.1811
    103  C4'       -2.0860   -8.9530    3.8650 C.3     6  DA6         0.1746
    104  O4'       -0.9030   -8.5800    4.6050 O.3     6  DA6        -0.3327
    105  C3'       -2.9490   -7.7520    4.1090 C.3     6  DA6         0.1558
    106  O3'       -4.2480   -8.0190    3.7280 O.3     6  DA6        -0.3138
    107  C2'       -2.7480   -7.5090    5.5850 C.3     6  DA6         0.0865
    108  C1'       -1.2540   -7.7220    5.6780 C.3     6  DA6         0.2092
    109  N9        -0.4480   -6.5240    5.5870 N.ar    6  DA6        -0.2746
    110  C8         0.2510   -6.0930    4.4900 C.ar    6  DA6         0.1815
    111  N7         1.0110   -5.0490    4.7230 N.ar    6  DA6        -0.2148
    112  C5         0.7960   -4.7750    6.0640 C.ar    6  DA6         0.2030
    113  C6         1.3090   -3.7870    6.9220 C.2     6  DA6         0.4325
    114  N6         2.1830   -2.8550    6.5370 N.pl3   6  DA6         0.2178
    115  N1         0.8890   -3.7910    8.2050 N.2     6  DA6        -0.0349
    116  C2         0.0130   -4.7270    8.5910 C.3     6  DA6         0.3384
    117  N3        -0.5390   -5.7060    7.8790 N.pl3   6  DA6        -0.2258
    118  C4        -0.1020   -5.6740    6.6090 C.ar    6  DA6         0.1457
    119  P         -4.7750   -7.0700    2.4050 P.3     7  DG7         0.2141
    120  OP1       -6.0480   -7.6220    1.8680 O.3     7  DG7        -0.4373
    121  OP2       -3.8980   -6.2580    1.5180 O.2     7  DG7        -0.5172
    122  O5'       -5.0780   -6.1860    3.6920 O.3     7  DG7        -0.3114
    123  C5'       -5.9200   -6.7120    4.6850 C.3     7  DG7         0.1811
    124  C4'       -6.0020   -5.7970    5.8650 C.3     7  DG7         0.1746
    125  O4'       -4.7260   -5.7360    6.5600 O.3     7  DG7        -0.3327
    126  C3'       -6.3690   -4.3450    5.6500 C.3     7  DG7         0.1558
    127  O3'       -7.7520   -4.1420    5.3530 O.3     7  DG7        -0.3138
    128  C2'       -5.9550   -3.7740    7.0020 C.3     7  DG7         0.0865
    129  C1'       -4.6340   -4.5130    7.2580 C.3     7  DG7         0.2094
    130  N9        -3.5210   -3.8600    6.7220 N.ar    7  DG7        -0.2713
    131  C8        -3.0680   -3.9150    5.4260 C.ar    7  DG7         0.1816
    132  N7        -2.2370   -2.9540    5.1290 N.ar    7  DG7        -0.2173
    133  C5        -2.1310   -2.2190    6.2950 C.ar    7  DG7         0.1748
    134  C6        -1.3750   -1.0540    6.5870 C.ar    7  DG7         0.3023
    135  O6        -0.6210   -0.4230    5.8370 O.2     7  DG7        -0.2633
    136  N1        -1.5580   -0.6310    7.9000 N.ar    7  DG7        -0.1709
    137  C2        -2.3700   -1.2520    8.8190 C.ar    7  DG7         0.2606
    138  N2        -2.4170   -0.6970   10.0380 N.pl3   7  DG7        -0.0859
    139  N3        -3.0780   -2.3340    8.5620 N.ar    7  DG7        -0.1918
    140  C4        -2.9170   -2.7630    7.2930 C.ar    7  DG7         0.1722
    141  P         -8.0910   -3.3600    4.1710 P.3     8  DC8         0.2141
    142  OP1       -9.3750   -3.6780    3.5060 O.3     8  DC8        -0.4373
    143  OP2       -6.8750   -3.1190    3.3600 O.2     8  DC8        -0.5172
    144  O5'       -8.2450   -2.0230    5.0350 O.3     8  DC8        -0.3114
    145  C5'       -9.1100   -1.9980    6.1580 C.3     8  DC8         0.1811
    146  C4'       -8.8460   -0.7800    6.9990 C.3     8  DC8         0.1746
    147  O4'       -7.6030   -0.9630    7.7220 O.3     8  DC8        -0.3327
    148  C3'       -8.6100    0.5160    6.2380 C.3     8  DC8         0.1558
    149  O3'       -9.7810    1.1350    5.7380 O.3     8  DC8        -0.3138
    150  C2'       -7.8810    1.3540    7.2760 C.3     8  DC8         0.0866
    151  C1'       -6.9670    0.2920    7.8840 C.3     8  DC8         0.2106
    152  N1        -5.6850    0.2930    7.1710 N.ar    8  DC8        -0.2556
    153  C2        -4.8000    1.3400    7.4520 C.ar    8  DC8         0.3531
    154  O2        -5.0760    2.1240    8.3770 O.2     8  DC8        -0.2443
    155  N3        -3.6740    1.4700    6.7100 N.ar    8  DC8        -0.1739
    156  C4        -3.4200    0.6060    5.7260 C.ar    8  DC8         0.1759
    157  N4        -2.2980    0.7740    5.0220 N.pl3   8  DC8        -0.1070
    158  C5        -4.3040   -0.4620    5.4260 C.ar    8  DC8         0.0566
    159  C6        -5.4140   -0.5860    6.1600 C.ar    8  DC8         0.0849
    160  P         -9.5890    1.4010    4.6840 P.3     9  DT9         0.2141
    161  OP1      -10.8540    0.6250    4.7380 O.3     9  DT9        -0.4373
    162  OP2       -9.0330    1.8180    3.3720 O.2     9  DT9        -0.5172
    163  O5'       -9.8370    2.6810    5.6340 O.3     9  DT9        -0.3114
    164  C5'       -9.6780    4.0150    5.1730 C.3     9  DT9         0.1811
    165  C4'       -8.7540    4.7860    6.0950 C.3     9  DT9         0.1746
    166  O4'       -7.5370    4.0500    6.4010 O.3     9  DT9        -0.3327
    167  C3'       -8.1850    6.0650    5.5030 C.3     9  DT9         0.1558
    168  O3'       -9.1640    7.0850    5.3510 O.3     9  DT9        -0.3138
    169  C2'       -7.1070    6.3650    6.5380 C.3     9  DT9         0.0866
    170  C1'       -6.4650    4.9730    6.5870 C.3     9  DT9         0.2106
    171  N1        -5.4870    4.4880    5.4350 N.ar    9  DT9        -0.2559
    172  C2        -4.1490    4.7040    5.7050 C.ar    9  DT9         0.3545
    173  O2        -3.7580    5.5540    6.4860 O.2     9  DT9        -0.2443
    174  N3        -3.2790    3.8870    5.0240 N.ar    9  DT9        -0.1533
    175  C4        -3.6060    2.8970    4.1210 C.ar    9  DT9         0.2804
    176  O4        -2.7110    2.2440    3.5890 O.2     9  DT9        -0.2654
    177  C5        -5.0140    2.7340    3.8930 C.ar    9  DT9         0.0534
    178  C6        -5.8820    3.5160    4.5420 C.ar    9  DT9         0.0824
    179  C7        -5.4710    1.6820    2.9260 C.3     9  DT9         0.0377
    180  P         -9.1660    7.4250    4.1980 P.3    10  DT10        0.2141
    181  OP1      -10.3130    8.3620    4.1570 O.3    10  DT10       -0.4373
    182  OP2       -8.4610    7.0120    2.9640 O.2    10  DT10       -0.5172
    183  O5'       -8.0320    8.0830    5.1200 O.3    10  DT10       -0.3114
    184  C5'       -8.3460    9.0530    6.1140 C.3    10  DT10        0.1811
    185  C4'       -7.1260    9.8020    6.6120 C.3    10  DT10        0.1746
    186  O4'       -6.0230    8.8840    6.8310 O.3    10  DT10       -0.3327
    187  C3'       -6.5620   10.8970    5.7110 C.3    10  DT10        0.1558
    188  O3'       -7.2210   12.1340    5.9330 O.3    10  DT10       -0.3138
    189  C2'       -5.0830   10.9300    6.0780 C.3    10  DT10        0.0866
    190  C1'       -4.7970    9.4790    6.4610 C.3    10  DT10        0.2106
    191  N1        -4.2200    8.6090    5.4200 N.ar   10  DT10       -0.2559
    192  C2        -2.8650    8.7690    5.1990 C.ar   10  DT10        0.3545
    193  O2        -2.1690    9.5210    5.8570 O.2    10  DT10       -0.2443
    194  N3        -2.3510    8.0140    4.1720 N.ar   10  DT10       -0.1533
    195  C4        -3.0400    7.1350    3.3630 C.ar   10  DT10        0.2804
    196  O4        -2.4390    6.5270    2.4810 O.2    10  DT10       -0.2654
    197  C5        -4.4420    7.0250    3.6550 C.ar   10  DT10        0.0534
    198  C6        -4.9680    7.7480    4.6470 C.ar   10  DT10        0.0824
    199  C7        -5.2790    6.0940    2.8290 C.3    10  DT10        0.0377
    200  P         -7.1830   13.4670    5.0680 P.3    11  DA11        0.2141
    201  OP1       -7.6920   14.8000    5.4920 O.3    11  DA11       -0.4373
    202  OP2       -7.7220   12.8040    3.8410 O.2    11  DA11       -0.5172
    203  O5'       -5.6340   13.6550    4.9650 O.3    11  DA11       -0.3114
    204  C5'       -5.1590   14.5240    5.8750 C.3    11  DA11        0.1811
    205  C4'       -3.6850   14.4850    5.6680 C.3    11  DA11        0.1746
    206  O4'       -3.2280   13.1140    5.8280 O.3    11  DA11       -0.3327
    207  C3'       -3.2340   14.8490    4.2630 C.3    11  DA11        0.1558
    208  O3'       -3.1860   16.2240    4.0370 O.3    11  DA11       -0.3138
    209  C2'       -1.8360   14.2480    4.2930 C.3    11  DA11        0.0865
    210  C1'       -2.1290   12.9150    4.9530 C.3    11  DA11        0.2094
    211  N9        -2.4520   11.9250    3.9950 N.ar   11  DA11       -0.2714
    212  C8        -3.6970   11.4540    3.6700 C.ar   11  DA11        0.1815
    213  N7        -3.6970   10.6050    2.6700 N.ar   11  DA11       -0.2193
    214  C5        -2.3610   10.5130    2.3130 C.ar   11  DA11        0.1518
    215  C6        -1.6960    9.7730    1.3190 C.ar   11  DA11        0.1919
    216  N6        -2.3180    8.9520    0.4690 N.pl3  11  DA11       -0.1054
    217  N1        -0.3560    9.9090    1.2280 N.ar   11  DA11       -0.2040
    218  C2         0.2650   10.7310    2.0810 C.ar   11  DA11        0.2016
    219  N3        -0.2490   11.4770    3.0560 N.ar   11  DA11       -0.2048
    220  C4        -1.5820   11.3210    3.1190 C.ar   11  DA11        0.1691
    221  P         -3.6470   16.8230    2.8310 P.3    12  DT12        0.2141
    222  OP1       -4.5960   17.8870    3.2280 O.3    12  DT12       -0.4373
    223  OP2       -4.0210   15.8190    1.8060 O.2    12  DT12       -0.5172
    224  O5'       -2.3130   17.4970    2.2540 O.3    12  DT12       -0.3114
    225  C5'       -2.1890   17.8270    0.8750 C.3    12  DT12        0.1811
    226  C4'       -0.9170   17.2610    0.2890 C.3    12  DT12        0.1746
    227  O4'       -0.7540   15.8970    0.7580 O.3    12  DT12       -0.3327
    228  C3'       -0.8490   17.1550   -1.2300 C.3    12  DT12        0.1558
    229  O3'       -0.4560   18.3640   -1.8690 O.3    12  DT12       -0.3138
    230  C2'        0.1300   16.0040   -1.4430 C.3    12  DT12        0.0866
    231  C1'       -0.2050   15.0920   -0.2620 C.3    12  DT12        0.2106
    232  N1        -1.3760   13.9890   -0.7290 N.ar   12  DT12       -0.2559
    233  C2        -0.9390   12.8790   -1.4260 C.ar   12  DT12        0.3545
    234  O2         0.1680   12.8040   -1.9280 O.2    12  DT12       -0.2443
    235  N3        -1.8500   11.8550   -1.5170 N.ar   12  DT12       -0.1533
    236  C4        -3.1250   11.8300   -0.9920 C.ar   12  DT12        0.2804
    237  O4        -3.8270   10.8350   -1.1560 O.2    12  DT12       -0.2654
    238  C5        -3.5050   13.0190   -0.2830 C.ar   12  DT12        0.0534
    239  C6        -2.6390   14.0300   -0.1800 C.ar   12  DT12        0.0824
    240  C7        -4.8740   13.0890    0.3250 C.3    12  DT12        0.0377
    241  P         -0.7150   18.5710   -3.2430 P.3    13  DT13        0.2141
    242  OP1       -0.1430   19.9320   -3.3420 O.2    13  DT13       -0.5172
    243  OP2       -2.1800   18.3760   -3.3400 O.3    13  DT13       -0.4373
    244  O5'       -0.1050   17.6280   -4.3880 O.3    13  DT13       -0.3114
    245  C5'        1.3060   17.5340   -4.5380 C.3    13  DT13        0.1811
    246  C4'        1.7870   16.1290   -4.8250 C.3    13  DT13        0.1746
    247  O4'        1.1810   15.1840   -3.9000 O.3    13  DT13       -0.3327
    248  C3'        1.4570   15.5490   -6.1970 C.3    13  DT13        0.1558
    249  O3'        2.2850   16.0240   -7.2460 O.3    13  DT13       -0.3138
    250  C2'        1.6120   14.0540   -5.9520 C.3    13  DT13        0.0866
    251  C1'        1.0480   13.9240   -4.5340 C.3    13  DT13        0.2106
    252  N1        -0.3160   13.4330   -4.6790 N.ar   13  DT13       -0.2559
    253  C2        -0.5950   12.1130   -4.9790 C.ar   13  DT13        0.3545
    254  O2         0.2480   11.3310   -5.3810 O.2    13  DT13       -0.2443
    255  N3        -1.9040   11.7390   -4.7920 N.ar   13  DT13       -0.1533
    256  C4        -2.9380   12.5340   -4.3450 C.ar   13  DT13        0.2804
    257  O4        -4.0630   12.0540   -4.2270 O.2    13  DT13       -0.2654
    258  C5        -2.5690   13.8910   -4.0560 C.ar   13  DT13        0.0534
    259  C6        -1.3030   14.2820   -4.2290 C.ar   13  DT13        0.0824
    260  C7        -3.6250   14.8360   -3.5640 C.3    13  DT13        0.0377
    261  P          1.7870   15.9230   -8.5240 P.3    14  DC14        0.2141
    262  OP1        2.9510   16.3530   -9.3510 O.2    14  DC14       -0.5172
    263  OP2        0.4900   16.6600   -8.6370 O.3    14  DC14       -0.4373
    264  O5'        1.5040   14.3740   -8.8240 O.3    14  DC14       -0.3114
    265  C5'        2.1370   13.7150   -9.9220 C.3    14  DC14        0.1811
    266  C4'        1.6790   12.2720  -10.0370 C.3    14  DC14        0.1746
    267  O4'        1.0800   11.8230   -8.7930 O.3    14  DC14       -0.3327
    268  C3'        0.5840   11.9920  -11.0470 C.3    14  DC14        0.1558
    269  O3'        1.0430   11.9300  -12.3610 O.3    14  DC14       -0.3138
    270  C2'        0.0210   10.6710  -10.5780 C.3    14  DC14        0.0866
    271  C1'        0.0550   10.8660   -9.0690 C.3    14  DC14        0.2106
    272  N1        -1.3000   11.4730   -8.8140 N.ar   14  DC14       -0.2556
    273  C2        -2.4530   10.6810   -8.7810 C.ar   14  DC14        0.3531
    274  O2        -2.3760    9.4950   -9.1460 O.2    14  DC14       -0.2443
    275  N3        -3.6170   11.2280   -8.3540 N.ar   14  DC14       -0.1739
    276  C4        -3.6530   12.5050   -7.9730 C.ar   14  DC14        0.1759
    277  N4        -4.8220   13.0010   -7.5600 N.pl3  14  DC14       -0.1070
    278  C5        -2.4950   13.3240   -7.9990 C.ar   14  DC14        0.0566
    279  C6        -1.3490   12.7800   -8.4210 C.ar   14  DC14        0.0849
    280  P          0.4680   12.8780  -13.2330 P.3    15  DA15        0.2141
    281  OP1        1.6080   12.3430  -14.0120 O.2    15  DA15       -0.5172
    282  OP2       -0.0140   14.2490  -13.5070 O.3    15  DA15       -0.4373
    283  O5'       -0.8060   11.9670  -13.5410 O.3    15  DA15       -0.3114
    284  C5'       -0.8190   11.3560  -14.8240 C.3    15  DA15        0.1811
    285  C4'       -1.8620   10.2770  -14.9550 C.3    15  DA15        0.1746
    286  O4'       -2.2080    9.8100  -13.6220 O.3    15  DA15       -0.3327
    287  C3'       -3.1620   10.7330  -15.6090 C.3    15  DA15        0.1558
    288  O3'       -3.3450   10.2120  -16.9200 O.3    15  DA15       -0.3138
    289  C2'       -4.2840   10.2320  -14.7050 C.3    15  DA15        0.0865
    290  C1'       -3.6100    9.7520  -13.4310 C.3    15  DA15        0.2094
    291  N9        -4.0850   10.7480  -12.3990 N.ar   15  DA15       -0.2714
    292  C8        -3.5060   11.8670  -11.8600 C.ar   15  DA15        0.1815
    293  N7        -4.2220   12.4310  -10.9160 N.ar   15  DA15       -0.2193
    294  C5        -5.3480   11.6280  -10.8300 C.ar   15  DA15        0.1518
    295  C6        -6.4920   11.6880  -10.0150 C.ar   15  DA15        0.1919
    296  N6        -6.6960   12.6340   -9.0950 N.pl3  15  DA15       -0.1054
    297  N1        -7.4310   10.7320  -10.1820 N.ar   15  DA15       -0.2040
    298  C2        -7.2260    9.7840  -11.1040 C.ar   15  DA15        0.2016
    299  N3        -6.1920    9.6220  -11.9270 N.ar   15  DA15       -0.2048
    300  C4        -5.2780   10.5880  -11.7370 C.ar   15  DA15        0.1691
    301  P         -4.1220   11.2390  -17.8450 P.3    16  DA16        0.2141
    302  OP1       -4.0970   10.9920  -19.3120 O.2    16  DA16       -0.5172
    303  OP2       -3.6570   12.5540  -17.3140 O.3    16  DA16       -0.4373
    304  O5'       -5.6150   10.9410  -17.3620 O.3    16  DA16       -0.3114
    305  C5'       -6.3820    9.9290  -18.0070 C.3    16  DA16        0.1811
    306  C4'       -7.6930    9.6840  -17.2940 C.3    16  DA16        0.1746
    307  O4'       -7.4850    9.6820  -15.8550 O.3    16  DA16       -0.3327
    308  C3'       -8.8230   10.6820  -17.5000 C.3    16  DA16        0.1558
    309  O3'       -9.5460   10.4480  -18.7040 O.3    16  DA16       -0.3138
    310  C2'       -9.7060   10.4140  -16.2860 C.3    16  DA16        0.0865
    311  C1'       -8.6720   10.1150  -15.2020 C.3    16  DA16        0.2094
    312  N9        -8.3090   11.2830  -14.3610 N.ar   16  DA16       -0.2714
    313  C8        -7.3420   12.2290  -14.5800 C.ar   16  DA16        0.1815
    314  N7        -7.2480   13.1210  -13.6220 N.ar   16  DA16       -0.2193
    315  C5        -8.2200   12.7350  -12.7130 C.ar   16  DA16        0.1518
    316  C6        -8.6270   13.2710  -11.4780 C.ar   16  DA16        0.1919
    317  N6        -8.0780   14.3570  -10.9270 N.pl3  16  DA16       -0.1054
    318  N1        -9.6280   12.6460  -10.8230 N.ar   16  DA16       -0.2040
    319  C2       -10.1760   11.5580  -11.3760 C.ar   16  DA16        0.2016
    320  N3        -9.8800   10.9600  -12.5270 N.ar   16  DA16       -0.2048
    321  C4        -8.8830   11.6060  -13.1550 C.ar   16  DA16        0.1691
    322  P        -10.4240   11.6380  -19.3300 P.3    17  DT17        0.2141
    323  OP1      -10.9400   10.8540  -20.4730 O.2    17  DT17       -0.5172
    324  OP2      -10.7120   13.0880  -19.2150 O.3    17  DT17       -0.4373
    325  O5'      -10.9980   11.0180  -17.9720 O.3    17  DT17       -0.3114
    326  C5'      -12.2290   10.3080  -18.0000 C.3    17  DT17        0.1811
    327  C4'      -13.2120   10.8590  -17.0000 C.3    17  DT17        0.1746
    328  O4'      -12.5970   10.8950  -15.6860 O.3    17  DT17       -0.3327
    329  C3'      -13.6570   12.2930  -17.2430 C.3    17  DT17        0.1558
    330  O3'      -14.7050   12.4030  -18.1870 O.3    17  DT17       -0.3138
    331  C2'      -14.0510   12.7660  -15.8550 C.3    17  DT17        0.0866
    332  C1'      -13.0260   12.0410  -14.9840 C.3    17  DT17        0.2106
    333  N1       -11.8080   12.8890  -14.6100 N.ar   17  DT17       -0.2559
    334  C2       -11.9320   13.5790  -13.4190 C.ar   17  DT17        0.3545
    335  O2       -12.8610   13.4120  -12.6480 O.2    17  DT17       -0.2443
    336  N3       -10.9250   14.4780  -13.1610 N.ar   17  DT17       -0.1533
    337  C4        -9.8320   14.7490  -13.9560 C.ar   17  DT17        0.2804
    338  O4        -9.0090   15.5840  -13.5890 O.2    17  DT17       -0.2654
    339  C5        -9.7750   13.9930  -15.1760 C.ar   17  DT17        0.0534
    340  C6       -10.7410   13.1130  -15.4520 C.ar   17  DT17        0.0824
    341  C7        -8.6230   14.2170  -16.1100 C.3    17  DT17        0.0377
    342  P        -14.7010   13.4780  -18.7710 P.3    18  DT18        0.2141
    343  OP1      -15.4780   13.6920  -20.0100 O.2    18  DT18       -0.5172
    344  OP2      -13.3770   14.1380  -18.6090 O.3    18  DT18       -0.4373
    345  O5'      -15.5940   13.9070  -17.5240 O.3    18  DT18       -0.3114
    346  C5'      -16.8750   13.2970  -17.2900 C.3    18  DT18        0.1811
    347  C4'      -17.4530   13.7870  -15.9870 C.3    18  DT18        0.1746
    348  O4'      -16.6310   13.3190  -14.8810 O.3    18  DT18       -0.3327
    349  C3'      -17.4830   15.2960  -15.8170 C.3    18  DT18        0.1558
    350  O3'      -18.5950   15.8930  -16.4710 O.3    18  DT18       -0.3138
    351  C2'      -17.5310   15.4380  -14.3040 C.3    18  DT18        0.0866
    352  C1'      -16.5880   14.3120  -13.8690 C.3    18  DT18        0.2106
    353  N1       -15.2190   14.8050  -13.7620 N.ar   18  DT18       -0.2559
    354  C2       -14.7310   15.3320  -12.5810 C.ar   18  DT18        0.3545
    355  O2       -15.3760   15.3560  -11.5480 O.2    18  DT18       -0.2443
    356  N3       -13.4540   15.8340  -12.6530 N.ar   18  DT18       -0.1533
    357  C4       -12.6340   15.8620  -13.7620 C.ar   18  DT18        0.2804
    358  O4       -11.5090   16.3470  -13.6710 O.2    18  DT18       -0.2654
    359  C5       -13.2130   15.2980  -14.9490 C.ar   18  DT18        0.0534
    360  C6       -14.4520   14.8020  -14.9070 C.ar   18  DT18        0.0824
    361  C7       -12.4000   15.2820  -16.2090 C.3    18  DT18        0.0377
    362  P        -18.6510   17.6360  -16.7030 P.3    19  DA19        0.2141
    363  OP1      -19.6540   17.8130  -17.7740 O.2    19  DA19       -0.5172
    364  OP2      -17.3530   18.3550  -16.7530 O.3    19  DA19       -0.4373
    365  O5'      -19.3690   17.9500  -15.3130 O.3    19  DA19       -0.3114
    366  C5'      -19.9180   19.2250  -15.0230 C.3    19  DA19        0.1811
    367  C4'      -19.8450   19.4600  -13.5280 C.3    19  DA19        0.1746
    368  O4'      -18.9680   18.4810  -12.9090 O.3    19  DA19       -0.3327
    369  C3'      -19.2060   20.7710  -13.1140 C.3    19  DA19        0.1558
    370  O3'      -20.1140   21.8200  -13.2700 O.3    19  DA19       -0.3138
    371  C2'      -18.8680   20.4590  -11.6610 C.3    19  DA19        0.0865
    372  C1'      -18.1960   19.1100  -11.8950 C.3    19  DA19        0.2094
    373  N9       -16.7160   19.4300  -12.2540 N.ar   19  DA19       -0.2714
    374  C8       -16.1660   18.7610  -13.3170 C.ar   19  DA19        0.1815
    375  N7       -14.8550   18.7400  -13.3080 N.ar   19  DA19       -0.2193
    376  C5       -14.5190   19.4450  -12.1630 C.ar   19  DA19        0.1518
    377  C6       -13.2810   19.7780  -11.5860 C.ar   19  DA19        0.1919
    378  N6       -12.1040   19.4290  -12.1090 N.pl3  19  DA19       -0.1054
    379  N1       -13.2960   20.4910  -10.4390 N.ar   19  DA19       -0.2040
    380  C2       -14.4770   20.8400   -9.9160 C.ar   19  DA19        0.2016
    381  N3       -15.7040   20.5860  -10.3640 N.ar   19  DA19       -0.2048
    382  C4       -15.6550   19.8770  -11.5040 C.ar   19  DA19        0.1691
    383  P        -20.0330   22.5370  -14.7020 P.3    20  DA20        0.2141
    384  OP1      -21.4050   22.7860  -15.2020 O.3    20  DA20       -0.4373
    385  OP2      -19.0050   21.9690  -15.6070 O.2    20  DA20       -0.5172
    386  O5'      -19.4820   23.8870  -14.0390 O.3    20  DA20       -0.3114
    387  C5'      -20.1480   24.4250  -12.8990 C.3    20  DA20        0.1811
    388  C4'      -19.2090   24.6210  -11.7190 C.3    20  DA20        0.1746
    389  O4'      -18.4470   23.4150  -11.4490 O.3    20  DA20       -0.3327
    390  C3'      -18.1250   25.6730  -11.8940 C.3    20  DA20        0.1558
    391  O3'      -18.6550   26.9860  -11.7600 O.3    20  DA20       -0.3138
    392  C2'      -17.2050   25.2940  -10.7430 C.3    20  DA20        0.0865
    393  C1'      -17.1860   23.7800  -10.9130 C.3    20  DA20        0.2094
    394  N9       -16.0230   23.4880  -11.8370 N.ar   20  DA20       -0.2714
    395  C8       -16.3130   22.7320  -12.9430 C.ar   20  DA20        0.1815
    396  N7       -15.2590   22.1840  -13.5000 N.ar   20  DA20       -0.2193
    397  C5       -14.2050   22.6100  -12.7080 C.ar   20  DA20        0.1518
    398  C6       -12.8200   22.3750  -12.7690 C.ar   20  DA20        0.1919
    399  N6       -12.2390   21.6190  -13.7030 N.pl3  20  DA20       -0.1054
    400  N1       -12.0450   22.9500  -11.8250 N.ar   20  DA20       -0.2040
    401  C2       -12.6280   23.7070  -10.8890 C.ar   20  DA20        0.2016
    402  N3       -13.9160   24.0010  -10.7270 N.ar   20  DA20       -0.2048
    403  C4       -14.6600   23.4150  -11.6810 C.ar   20  DA20        0.1691
    404  P        -19.0460   27.6130  -13.0790 P.3    21  DT21        0.2141
    405  OP1      -20.1060   28.6260  -12.8230 O.3    21  DT21       -0.4373
    406  OP2      -19.0320   26.8740  -14.3730 O.2    21  DT21       -0.5172
    407  O5'      -17.5940   28.2540  -12.9200 O.3    21  DT21       -0.3114
    408  C5'      -17.2780   29.1060  -11.8260 C.3    21  DT21        0.1811
    409  C4'      -15.7890   29.1690  -11.6370 C.3    21  DT21        0.1746
    410  O4'      -15.2640   27.8150  -11.6090 O.3    21  DT21       -0.3327
    411  C3'      -14.9680   29.8690  -12.7090 C.3    21  DT21        0.1558
    412  O3'      -14.9440   31.2770  -12.4840 O.3    21  DT21       -0.3138
    413  C2'      -13.5870   29.2380  -12.5260 C.3    21  DT21        0.0866
    414  C1'      -13.9490   27.8000  -12.1340 C.3    21  DT21        0.2106
    415  N1       -13.9290   26.8310  -13.1960 N.ar   21  DT21       -0.2559
    416  C2       -12.7050   26.4870  -13.7360 C.ar   21  DT21        0.3545
    417  O2       -11.6500   26.9550  -13.3440 O.2    21  DT21       -0.2443
    418  N3       -12.7580   25.5710  -14.7590 N.ar   21  DT21       -0.1533
    419  C4       -13.8870   24.9780  -15.2840 C.ar   21  DT21        0.2804
    420  O4       -13.7750   24.1710  -16.2040 O.2    21  DT21       -0.2654
    421  C5       -15.1190   25.3880  -14.6710 C.ar   21  DT21        0.0534
    422  C6       -15.0960   26.2770  -13.6740 C.ar   21  DT21        0.0824
    423  C7       -16.4040   24.8000  -15.1730 C.3    21  DT21        0.0377
    424  P        -15.0080   32.2880  -13.6950 P.3    22  DC22        0.2141
    425  OP1      -14.9920   33.7560  -13.4960 O.3    22  DC22       -0.4373
    426  OP2      -15.6410   31.7020  -14.8970 O.2    22  DC22       -0.5172
    427  O5'      -13.4990   31.7790  -13.7790 O.3    22  DC22       -0.3114
    428  C5'      -12.4830   32.5030  -13.1110 C.3    22  DC22        0.1811
    429  C4'      -11.1790   32.3000  -13.8210 C.3    22  DC22        0.1744
    430  O4'      -10.9290   30.8720  -13.9060 O.3    22  DC22       -0.3348
    431  C3'      -11.1570   32.7510  -15.2710 C.3    22  DC22        0.1555
    432  O3'      -10.9370   34.1390  -15.4380 O.3    22  DC22       -0.3139
    433  C2'      -10.0330   31.8980  -15.8270 C.3    22  DC22        0.0836
    434  C1'      -10.3380   30.5680  -15.1510 C.3    22  DC22        0.1999
    435  N1       -11.1790   29.6230  -15.9770 N.pl3  22  DC22       -0.2132
    436  C2       -10.5160   28.8600  -16.9460 C.2    22  DC22        0.4331
    437  O2        -9.2730   28.8550  -16.9540 O.2    22  DC22       -0.2850
    438  N3       -11.2450   28.1530  -17.8420 N.2    22  DC22        0.0237
    439  C4       -12.5770   28.1900  -17.7950 C.2    22  DC22        0.4172
    440  N4       -13.2540   27.4770  -18.6980 N.pl3  22  DC22        0.2162
    441  C5       -13.2680   28.9570  -16.8220 C.2    22  DC22        0.0937
    442  C6       -12.5440   29.6530  -15.9390 C.3    22  DC22        0.1340
    443  P        -11.1910   34.8200  -16.9170 P.3    23  DG23        0.2141
    444  OP1      -10.8390   36.2100  -16.5510 O.3    23  DG23       -0.4373
    445  OP2      -12.6030   34.4910  -17.2190 O.2    23  DG23       -0.5172
    446  O5'      -10.2790   34.3290  -18.1410 O.3    23  DG23       -0.3114
    447  C5'       -8.8820   34.5810  -18.1040 C.3    23  DG23        0.1811
    448  C4'       -8.1240   33.7350  -19.1080 C.3    23  DG23        0.1746
    449  O4'       -8.3910   32.3370  -18.8560 O.3    23  DG23       -0.3327
    450  C3'       -8.5250   33.9220  -20.5600 C.3    23  DG23        0.1558
    451  O3'       -7.8540   35.0290  -21.1300 O.3    23  DG23       -0.3138
    452  C2'       -8.0240   32.6220  -21.1820 C.3    23  DG23        0.0865
    453  C1'       -8.3830   31.6290  -20.0830 C.3    23  DG23        0.2094
    454  N9        -9.7010   31.1090  -20.3800 N.ar   23  DG23       -0.2713
    455  C8       -10.8410   31.4370  -19.6870 C.ar   23  DG23        0.1816
    456  N7       -11.8970   30.7890  -20.0980 N.ar   23  DG23       -0.2173
    457  C5       -11.4310   29.9850  -21.1210 C.ar   23  DG23        0.1748
    458  C6       -12.1120   29.0580  -21.9510 C.ar   23  DG23        0.3023
    459  O6       -13.3120   28.7570  -21.9390 O.2    23  DG23       -0.2633
    460  N1       -11.2570   28.4520  -22.8670 N.ar   23  DG23       -0.1709
    461  C2        -9.9100   28.7080  -22.9710 C.ar   23  DG23        0.2606
    462  N2        -9.2500   28.0250  -23.9150 N.pl3  23  DG23       -0.0859
    463  N3        -9.2630   29.5670  -22.2070 N.ar   23  DG23       -0.1918
    464  C4       -10.0740   30.1670  -21.3110 C.ar   23  DG23        0.1722
    465  P         -8.5470   35.7140  -21.9330 P.3    24  DC24        0.2141
    466  OP1       -7.7640   36.9750  -22.0010 O.2    24  DC24       -0.5172
    467  OP2       -9.8680   35.7100  -21.2520 O.3    24  DC24       -0.4373
    468  O5'       -8.7380   35.2180  -23.4350 O.3    24  DC24       -0.3114
    469  C5'       -7.5650   35.2650  -24.2580 C.3    24  DC24        0.1811
    470  C4'       -7.6350   34.1900  -25.3070 C.3    24  DC24        0.1746
    471  O4'       -8.0800   32.9360  -24.7460 O.3    24  DC24       -0.3327
    472  C3'       -8.6850   34.5020  -26.3270 C.3    24  DC24        0.1558
    473  O3'       -8.3400   35.5310  -27.2670 O.3    24  DC24       -0.3138
    474  C2'       -9.0230   33.1430  -26.8900 C.3    24  DC24        0.0866
    475  C1'       -8.9380   32.2430  -25.6670 C.3    24  DC24        0.2106
    476  N1       -10.2850   32.1760  -25.1970 N.ar   24  DC24       -0.2556
    477  C2       -11.2810   31.3940  -25.7910 C.ar   24  DC24        0.3531
    478  O2       -11.0750   30.9190  -26.9210 O.2    24  DC24       -0.2443
    479  N3       -12.4380   31.1770  -25.1200 N.ar   24  DC24       -0.1739
    480  C4       -12.6160   31.7080  -23.9100 C.ar   24  DC24        0.1759
    481  N4       -13.7720   31.4670  -23.2870 N.pl3  24  DC24       -0.1070
    482  C5       -11.6190   32.5040  -23.2900 C.ar   24  DC24        0.0566
    483  C6       -10.4780   32.7150  -23.9560 C.ar   24  DC24        0.0849
    484  P         -9.5630   36.6010  -27.8740 P.3    25  DA25        0.2141
    485  OP1       -9.0520   37.7610  -28.6310 O.2    25  DA25       -0.5172
    486  OP2      -10.3390   36.7990  -26.6280 O.3    25  DA25       -0.4373
    487  O5'      -10.5560   35.7720  -28.8110 O.3    25  DA25       -0.3114
    488  C5'      -10.1710   35.3600  -30.1090 C.3    25  DA25        0.1811
    489  C4'      -11.0820   34.2660  -30.5800 C.3    25  DA25        0.1746
    490  O4'      -11.3610   33.3910  -29.4650 O.3    25  DA25       -0.3327
    491  C3'      -12.4580   34.7210  -31.0100 C.3    25  DA25        0.1558
    492  O3'      -12.4650   35.2730  -32.3110 O.3    25  DA25       -0.3138
    493  C2'      -13.2790   33.4490  -30.8460 C.3    25  DA25        0.0865
    494  C1'      -12.6870   32.9160  -29.5430 C.3    25  DA25        0.2094
    495  N9       -13.5140   33.3360  -28.4350 N.ar   25  DA25       -0.2714
    496  C8       -13.0940   34.1230  -27.3950 C.ar   25  DA25        0.1815
    497  N7       -13.9600   34.2080  -26.4120 N.ar   25  DA25       -0.2193
    498  C5       -15.0210   33.4250  -26.8370 C.ar   25  DA25        0.1518
    499  C6       -16.2560   33.1040  -26.2460 C.ar   25  DA25        0.1919
    500  N6       -16.6420   33.5540  -25.0500 N.pl3  25  DA25       -0.1054
    501  N1       -17.0890   32.2960  -26.9350 N.ar   25  DA25       -0.2040
    502  C2       -16.7010   31.8450  -28.1340 C.ar   25  DA25        0.2016
    503  N3       -15.5670   32.0750  -28.7920 N.ar   25  DA25       -0.2048
    504  C4       -14.7620   32.8820  -28.0810 C.ar   25  DA25        0.1691
    505  P        -12.7710   36.5590  -32.4530 P.3    26  DT26        0.2141
    506  OP1      -12.5310   37.4890  -33.5820 O.2    26  DT26       -0.5172
    507  OP2      -12.6640   37.0160  -31.0480 O.3    26  DT26       -0.4373
    508  O5'      -14.2440   35.9450  -32.5580 O.3    26  DT26       -0.3114
    509  C5'      -14.6610   35.3220  -33.7590 C.3    26  DT26        0.1811
    510  C4'      -16.0690   34.8050  -33.6330 C.3    26  DT26        0.1746
    511  O4'      -16.1380   33.8740  -32.5270 O.3    26  DT26       -0.3327
    512  C3'      -17.1230   35.8480  -33.3010 C.3    26  DT26        0.1558
    513  O3'      -17.5680   36.5640  -34.4380 O.3    26  DT26       -0.3138
    514  C2'      -18.2160   35.0270  -32.6360 C.3    26  DT26        0.0866
    515  C1'      -17.3940   33.9760  -31.8920 C.3    26  DT26        0.2107
    516  N1       -17.2220   34.3640  -30.4060 N.ar   26  DT26       -0.2549
    517  C2       -18.2560   34.0490  -29.5460 C.ar   26  DT26        0.3684
    518  O2       -19.2680   33.4730  -29.9060 O.2    26  DT26       -0.2430
    519  N3       -18.0650   34.4340  -28.2410 N.ar   26  DT26       -0.0807
    520  C4       -16.9670   35.0880  -27.7220 C.ar   26  DT26        0.2947
    521  O4       -16.9390   35.3670  -26.5260 O.2    26  DT26       -0.2641
    522  C5       -15.9370   35.3810  -28.6780 C.ar   26  DT26        0.0546
    523  C6       -16.0970   35.0180  -29.9530 C.ar   26  DT26        0.0825
    524  C7       -14.7020   36.0920  -28.2110 C.3    26  DT26        0.0377
    525  P        -17.7080   38.2050  -34.3310 P.3    27  DT27        0.2141
    526  OP1      -17.6280   39.3270  -35.2960 O.2    27  DT27       -0.5172
    527  OP2      -16.9630   38.2090  -33.0490 O.3    27  DT27       -0.4373
    528  O5'      -19.2370   38.0580  -33.8890 O.3    27  DT27       -0.3114
    529  C5'      -20.1460   37.5710  -34.8620 C.3    27  DT27        0.1811
    530  C4'      -21.3640   36.9520  -34.2280 C.3    27  DT27        0.1746
    531  O4'      -21.0120   35.7600  -33.4800 O.3    27  DT27       -0.3327
    532  C3'      -22.1080   37.7990  -33.2160 C.3    27  DT27        0.1558
    533  O3'      -22.9230   38.7470  -33.8550 O.3    27  DT27       -0.3138
    534  C2'      -22.9290   36.7350  -32.5190 C.3    27  DT27        0.0866
    535  C1'      -21.8960   35.6230  -32.3910 C.3    27  DT27        0.2106
    536  N1       -21.1230   35.6360  -31.1290 N.ar   27  DT27       -0.2559
    537  C2       -21.5760   34.8360  -30.0980 C.ar   27  DT27        0.3544
    538  O2       -22.5650   34.1300  -30.1900 O.2    27  DT27       -0.2443
    539  N3       -20.8270   34.8910  -28.9470 N.ar   27  DT27       -0.1549
    540  C4       -19.6960   35.6500  -28.7290 C.ar   27  DT27        0.2580
    541  O4       -19.1300   35.5930  -27.6400 O.3    27  DT27       -0.3451
    542  C5       -19.2900   36.4550  -29.8470 C.ar   27  DT27        0.0515
    543  C6       -20.0000   36.4200  -30.9780 C.ar   27  DT27        0.0824
    544  C7       -18.0700   37.3170  -29.7090 C.3    27  DT27        0.0376
    545  P        -23.0280   40.2430  -33.3450 P.3    28  DA28        0.2141
    546  OP1      -23.2450   40.4710  -34.7850 O.2    28  DA28       -0.5172
    547  OP2      -22.3120   41.3280  -32.5510 O.3    28  DA28       -0.4373
    548  O5'      -24.3600   40.0870  -32.4740 O.3    28  DA28       -0.3114
    549  C5'      -25.5290   39.4050  -32.9460 C.3    28  DA28        0.1811
    550  C4'      -26.2820   38.8100  -31.7740 C.3    28  DA28        0.1746
    551  O4'      -25.5350   37.6420  -31.2980 O.3    28  DA28       -0.3327
    552  C3'      -26.4380   39.6380  -30.4970 C.3    28  DA28        0.1558
    553  O3'      -27.4980   40.6020  -30.5440 O.3    28  DA28       -0.3138
    554  C2'      -26.7410   38.5460  -29.4990 C.3    28  DA28        0.0865
    555  C1'      -25.7010   37.5010  -29.8940 C.3    28  DA28        0.2094
    556  N9       -24.3350   37.7170  -29.1690 N.ar   28  DA28       -0.2714
    557  C8       -23.1370   38.1530  -29.6710 C.ar   28  DA28        0.1815
    558  N7       -22.1590   38.1330  -28.7980 N.ar   28  DA28       -0.2193
    559  C5       -22.7550   37.6520  -27.6430 C.ar   28  DA28        0.1518
    560  C6       -22.2520   37.3950  -26.3550 C.ar   28  DA28        0.1919
    561  N6       -20.9790   37.5970  -26.0050 N.pl3  28  DA28       -0.1054
    562  N1       -23.1120   36.9190  -25.4300 N.ar   28  DA28       -0.2040
    563  C2       -24.3860   36.7150  -25.7830 C.ar   28  DA28        0.2016
    564  N3       -24.9760   36.9180  -26.9590 N.ar   28  DA28       -0.2048
    565  C4       -24.0950   37.3920  -27.8560 C.ar   28  DA28        0.1691
    566  P        -27.4500   41.8820  -29.5990 P.3    29  DC29        0.2141
    567  OP1      -28.5490   42.8570  -29.4090 O.2    29  DC29       -0.5172
    568  OP2      -26.0430   42.3060  -29.3850 O.3    29  DC29       -0.4373
    569  O5'      -27.7090   40.5970  -28.6700 O.3    29  DC29       -0.3114
    570  C5'      -29.0150   40.2530  -28.2390 C.3    29  DC29        0.1812
    571  C4'      -29.0110   40.0440  -26.7480 C.3    29  DC29        0.1773
    572  O4'      -27.9350   39.1360  -26.4240 O.3    29  DC29       -0.3347
    573  C3'      -28.6790   41.2850  -25.9470 C.3    29  DC29        0.1862
    574  O3'      -29.8210   42.0910  -25.7440 O.3    29  DC29       -0.2133
    575  C2'      -28.1950   40.6650  -24.6430 C.3    29  DC29        0.0866
    576  C1'      -27.4230   39.4630  -25.1430 C.3    29  DC29        0.2000
    577  N1       -26.0030   39.8460  -25.2120 N.pl3  29  DC29       -0.2150
    578  C2       -25.1640   39.6730  -24.1050 C.2    29  DC29        0.4076
    579  O2       -25.6260   39.1400  -23.0820 O.2    29  DC29       -0.4259
    580  N3       -23.8780   40.0920  -24.1810 N.2    29  DC29        0.0217
    581  C4       -23.4260   40.6610  -25.2990 C.2    29  DC29        0.4171
    582  N4       -22.1520   41.0580  -25.3270 N.pl3  29  DC29        0.2162
    583  C5       -24.2600   40.8450  -26.4310 C.2    29  DC29        0.0937
    584  C6       -25.5290   40.4300  -26.3530 C.3    29  DC29        0.1339
    585  P        -28.8770   43.2180  -26.0280 P.3    30  DC30        0.3939
    586  OP1      -29.9700   42.2750  -26.3500 O.3    30  DC30       -0.1496
    587  OP2      -29.1780   44.6540  -25.8540 O.3    30  DC30       -0.1425
    588  O5'      -28.2740   42.7860  -24.6070 O.3    30  DC30       -0.2926
    589  C5'      -28.0120   43.8070  -23.6510 C.3    30  DC30        0.1828
    590  C4'      -27.9960   43.3130  -22.2230 C.3    30  DC30        0.1747
    591  O4'      -29.3450   42.9460  -21.8180 O.3    30  DC30       -0.3327
    592  C3'      -27.1060   42.1000  -21.9550 C.3    30  DC30        0.1558
    593  O3'      -25.9840   42.3910  -21.1270 O.3    30  DC30       -0.3138
    594  C2'      -27.9870   41.0870  -21.2300 C.3    30  DC30        0.0866
    595  C1'      -29.3480   41.7470  -21.0690 C.3    30  DC30        0.2106
    596  N1       -30.0580   40.7030  -21.7880 N.ar   30  DC30       -0.2556
    597  C2       -30.3710   39.5290  -21.0920 C.ar   30  DC30        0.3531
    598  O2       -30.0310   39.4310  -19.9010 O.2    30  DC30       -0.2443
    599  N3       -31.0330   38.5380  -21.7360 N.ar   30  DC30       -0.1739
    600  C4       -31.3770   38.6870  -23.0150 C.ar   30  DC30        0.1759
    601  N4       -32.0290   37.6840  -23.6080 N.pl3  30  DC30       -0.1070
    602  C5       -31.0690   39.8680  -23.7380 C.ar   30  DC30        0.0566
    603  C6       -30.4150   40.8450  -23.0990 C.ar   30  DC30        0.0849
    604  P        -24.4400   41.7090  -20.4590 P.3    31  DT31        0.2141
    605  OP1      -23.4830   42.6240  -19.7940 O.3    31  DT31       -0.4373
    606  OP2      -23.9840   40.8250  -21.5530 O.2    31  DT31       -0.5172
    607  O5'      -25.1030   40.7100  -19.3990 O.3    31  DT31       -0.3114
    608  C5'      -25.3500   41.1630  -18.0770 C.3    31  DT31        0.1811
    609  C4'      -26.0830   40.1330  -17.2540 C.3    31  DT31        0.1746
    610  O4'      -27.3340   39.7940  -17.9070 O.3    31  DT31       -0.3327
    611  C3'      -25.3870   38.7930  -17.0550 C.3    31  DT31        0.1558
    612  O3'      -24.3960   38.8100  -16.0330 O.3    31  DT31       -0.3138
    613  C2'      -26.5690   37.8710  -16.7560 C.3    31  DT31        0.0866
    614  C1'      -27.6510   38.4420  -17.6740 C.3    31  DT31        0.2106
    615  N1       -27.7810   37.7790  -18.9590 N.ar   31  DT31       -0.2557
    616  C2       -28.3070   36.5010  -18.9560 C.ar   31  DT31        0.3545
    617  O2       -28.6970   35.9470  -17.9440 O.2    31  DT31       -0.2443
    618  N3       -28.3590   35.8910  -20.1860 N.ar   31  DT31       -0.1532
    619  C4       -27.9460   36.4190  -21.3920 C.ar   31  DT31        0.2839
    620  O4       -28.0580   35.7480  -22.4150 O.2    31  DT31       -0.2652
    621  C5       -27.4110   37.7490  -21.3120 C.ar   31  DT31        0.0966
    622  C6       -27.3490   38.3650  -20.1290 C.ar   31  DT31        0.0861
    623  C7       -26.9340   38.4100  -22.5710 C.3    31  DT31        0.2435
    624  P        -22.3260   38.3380  -16.2700 P.3    32  DT32        0.2141
    625  OP1      -22.3560   38.4850  -14.7960 O.3    32  DT32       -0.4373
    626  OP2      -21.4570   39.2100  -17.0890 O.2    32  DT32       -0.5172
    627  O5'      -21.9040   36.8580  -16.7270 O.3    32  DT32       -0.3114
    628  C5'      -22.6010   35.7020  -16.2870 C.3    32  DT32        0.1811
    629  C4'      -23.5600   35.1740  -17.3300 C.3    32  DT32        0.1746
    630  O4'      -23.9520   36.2320  -18.2370 O.3    32  DT32       -0.3327
    631  C3'      -23.0710   34.0600  -18.2470 C.3    32  DT32        0.1558
    632  O3'      -23.1480   32.7950  -17.6110 O.3    32  DT32       -0.3138
    633  C2'      -24.0120   34.1820  -19.4400 C.3    32  DT32        0.0866
    634  C1'      -24.2670   35.6870  -19.4990 C.3    32  DT32        0.2106
    635  N1       -23.1770   36.2510  -20.5100 N.ar   32  DT32       -0.2559
    636  C2       -23.4620   36.2530  -21.8620 C.ar   32  DT32        0.3545
    637  O2       -24.3750   35.6100  -22.3490 O.2    32  DT32       -0.2443
    638  N3       -22.6350   37.0380  -22.6290 N.ar   32  DT32       -0.1533
    639  C4       -21.5750   37.8040  -22.1890 C.ar   32  DT32        0.2804
    640  O4       -20.9240   38.4580  -23.0000 O.2    32  DT32       -0.2654
    641  C5       -21.3430   37.7480  -20.7740 C.ar   32  DT32        0.0534
    642  C6       -22.1310   36.9930  -20.0040 C.ar   32  DT32        0.0824
    643  C7       -20.2120   38.5470  -20.1980 C.3    32  DT32        0.0377
    644  P        -22.6080   31.5210  -18.0540 P.3    33  DA33        0.2141
    645  OP1      -23.2480   30.8880  -16.8790 O.3    33  DA33       -0.4373
    646  OP2      -21.1530   31.8030  -18.0340 O.2    33  DA33       -0.5172
    647  O5'      -22.7990   30.6110  -19.3600 O.3    33  DA33       -0.3114
    648  C5'      -24.0010   29.8930  -19.5870 C.3    33  DA33        0.1811
    649  C4'      -24.7990   30.4640  -20.7330 C.3    33  DA33        0.1746
    650  O4'      -24.4270   31.8480  -20.9630 O.3    33  DA33       -0.3327
    651  C3'      -24.6020   29.8280  -22.1010 C.3    33  DA33        0.1558
    652  O3'      -25.2620   28.5830  -22.2470 O.3    33  DA33       -0.3138
    653  C2'      -25.1430   30.9160  -23.0190 C.3    33  DA33        0.0865
    654  C1'      -24.6080   32.1660  -22.3290 C.3    33  DA33        0.2094
    655  N9       -23.4260   32.5830  -22.9920 N.ar   33  DA33       -0.2714
    656  C8       -22.3640   32.9690  -22.2160 C.ar   33  DA33        0.1815
    657  N7       -21.4180   33.5870  -22.8830 N.ar   33  DA33       -0.2193
    658  C5       -21.8900   33.6070  -24.1860 C.ar   33  DA33        0.1518
    659  C6       -21.3530   34.1220  -25.3790 C.ar   33  DA33        0.1919
    660  N6       -20.1730   34.7410  -25.4510 N.pl3  33  DA33       -0.1054
    661  N1       -22.0800   33.9760  -26.5080 N.ar   33  DA33       -0.2040
    662  C2       -23.2630   33.3550  -26.4340 C.ar   33  DA33        0.2016
    663  N3       -23.8730   32.8310  -25.3730 N.ar   33  DA33       -0.2048
    664  C4       -23.1250   32.9920  -24.2690 C.ar   33  DA33        0.1691
    665  P        -24.4260   27.0470  -22.7600 P.3    34  DT34        0.2141
    666  OP1      -25.1370   25.7570  -22.8640 O.2    34  DT34       -0.5172
    667  OP2      -23.2150   27.1470  -21.9160 O.3    34  DT34       -0.4373
    668  O5'      -24.0750   27.5090  -24.2370 O.3    34  DT34       -0.3114
    669  C5'      -25.1240   27.5390  -25.1750 C.3    34  DT34        0.1811
    670  C4'      -24.5950   27.9870  -26.5180 C.3    34  DT34        0.1746
    671  O4'      -24.2440   29.3880  -26.4460 O.3    34  DT34       -0.3327
    672  C3'      -23.3000   27.3180  -26.9370 C.3    34  DT34        0.1558
    673  O3'      -23.5520   26.0490  -27.5050 O.3    34  DT34       -0.3138
    674  C2'      -22.8280   28.2960  -27.9980 C.3    34  DT34        0.0866
    675  C1'      -23.1460   29.6160  -27.3100 C.3    34  DT34        0.2106
    676  N1       -21.9780   30.1180  -26.4960 N.ar   34  DT34       -0.2559
    677  C2       -20.9710   30.7930  -27.1590 C.ar   34  DT34        0.3545
    678  O2       -20.9770   30.9800  -28.3630 O.2    34  DT34       -0.2443
    679  N3       -19.9500   31.2460  -26.3580 N.ar   34  DT34       -0.1533
    680  C4       -19.8370   31.0930  -24.9920 C.ar   34  DT34        0.2804
    681  O4       -18.8590   31.5570  -24.4100 O.2    34  DT34       -0.2654
    682  C5       -20.9210   30.3800  -24.3770 C.ar   34  DT34        0.0534
    683  C6       -21.9270   29.9300  -25.1320 C.ar   34  DT34        0.0824
    684  C7       -20.8900   30.1610  -22.8930 C.3    34  DT34        0.0377
    685  P        -22.5090   25.0050  -27.3440 P.3    35  DA35        0.2141
    686  OP1      -22.9900   23.5970  -28.2150 O.2    35  DA35       -0.5172
    687  OP2      -22.2220   24.7240  -25.9880 O.3    35  DA35       -0.4373
    688  O5'      -21.1960   26.4270  -28.1070 O.3    35  DA35       -0.3114
    689  C5'      -21.1850   26.1790  -29.5410 C.3    35  DA35        0.1811
    690  C4'      -19.7460   26.4760  -29.9620 C.3    35  DA35        0.1746
    691  O4'      -19.4850   27.8280  -29.5530 O.3    35  DA35       -0.3327
    692  C3'      -18.7430   25.6560  -29.1080 C.3    35  DA35        0.1558
    693  O3'      -18.6710   24.3380  -29.6770 O.3    35  DA35       -0.3138
    694  C2'      -17.5160   26.5770  -29.2710 C.3    35  DA35        0.0865
    695  C1'      -18.1520   27.9490  -29.0340 C.3    35  DA35        0.2094
    696  N9       -18.1600   28.4130  -27.7480 N.ar   35  DA35       -0.2714
    697  C8       -19.1390   28.2330  -26.8060 C.ar   35  DA35        0.1815
    698  N7       -18.7790   28.5870  -25.5950 N.ar   35  DA35       -0.2193
    699  C5       -17.4750   29.0280  -25.7520 C.ar   35  DA35        0.1518
    700  C6       -16.5320   29.5370  -24.8420 C.ar   35  DA35        0.1919
    701  N6       -16.7730   29.6930  -23.5380 N.pl3  35  DA35       -0.1054
    702  N1       -15.3190   29.8840  -25.3240 N.ar   35  DA35       -0.2040
    703  C2       -15.0790   29.7280  -26.6310 C.ar   35  DA35        0.2016
    704  N3       -15.8830   29.2620  -27.5840 N.ar   35  DA35       -0.2048
    705  C4       -17.0790   28.9260  -27.0730 C.ar   35  DA35        0.1691
    706  P        -17.9600   22.9540  -28.8650 P.3    36  DC36        0.2141
    707  OP1      -18.5180   21.6280  -29.2220 O.2    36  DC36       -0.5172
    708  OP2      -18.3590   23.5930  -27.5830 O.3    36  DC36       -0.4373
    709  O5'      -16.3680   22.8910  -28.9460 O.3    36  DC36       -0.3114
    710  C5'      -15.7140   22.8920  -30.2100 C.3    36  DC36        0.1811
    711  C4'      -14.3730   23.5850  -30.1180 C.3    36  DC36        0.1746
    712  O4'      -14.5540   24.9800  -29.7510 O.3    36  DC36       -0.3327
    713  C3'      -13.4010   23.0420  -29.0840 C.3    36  DC36        0.1558
    714  O3'      -12.6570   21.9140  -29.5460 O.3    36  DC36       -0.3138
    715  C2'      -12.4900   24.2350  -28.8230 C.3    36  DC36        0.0866
    716  C1'      -13.4540   25.4110  -28.9650 C.3    36  DC36        0.2106
    717  N1       -13.9610   25.8280  -27.6850 N.ar   36  DC36       -0.2556
    718  C2       -13.1940   26.6940  -26.8970 C.ar   36  DC36        0.3531
    719  O2       -12.1220   27.1270  -27.3540 O.2    36  DC36       -0.2443
    720  N3       -13.6390   27.0310  -25.6630 N.ar   36  DC36       -0.1739
    721  C4       -14.7950   26.5410  -25.2140 C.ar   36  DC36        0.1759
    722  N4       -15.1940   26.9020  -23.9920 N.pl3  36  DC36       -0.1070
    723  C5       -15.5870   25.6630  -25.9970 C.ar   36  DC36        0.0566
    724  C6       -15.1440   25.3320  -27.2150 C.ar   36  DC36        0.0849
    725  P        -11.9570   20.8230  -28.4290 P.3    37  DC37        0.2141
    726  OP1      -11.2960   19.5530  -28.8020 O.2    37  DC37       -0.5172
    727  OP2      -13.0240   20.8230  -27.4110 O.3    37  DC37       -0.4373
    728  O5'      -10.8230   21.8740  -28.0150 O.3    37  DC37       -0.3114
    729  C5'       -9.6000   21.8620  -28.7390 C.3    37  DC37        0.1811
    730  C4'       -8.6460   22.9240  -28.2350 C.3    37  DC37        0.1746
    731  O4'       -9.3020   24.2130  -28.2500 O.3    37  DC37       -0.3327
    732  C3'       -8.1730   22.7120  -26.8090 C.3    37  DC37        0.1558
    733  O3'       -6.9890   21.9520  -26.8450 O.3    37  DC37       -0.3138
    734  C2'       -7.9230   24.1310  -26.3170 C.3    37  DC37        0.0866
    735  C1'       -8.9650   24.9360  -27.0810 C.3    37  DC37        0.2106
    736  N1       -10.2380   25.1840  -26.3600 N.ar   37  DC37       -0.2556
    737  C2       -10.1290   26.2320  -25.4380 C.ar   37  DC37        0.3531
    738  O2        -9.1220   26.9590  -25.4760 O.2    37  DC37       -0.2443
    739  N3       -11.1210   26.4210  -24.5350 N.ar   37  DC37       -0.1739
    740  C4       -12.1830   25.6150  -24.5310 C.ar   37  DC37        0.1759
    741  N4       -13.1350   25.8400  -23.6230 N.pl3  37  DC37       -0.1070
    742  C5       -12.3120   24.5480  -25.4570 C.ar   37  DC37        0.0566
    743  C6       -11.3310   24.3640  -26.3470 C.ar   37  DC37        0.0849
    744  P         -6.7560   21.2190  -25.7430 P.3    38  DA38        0.2141
    745  OP1       -5.9430   20.0990  -26.2920 O.2    38  DA38       -0.5172
    746  OP2       -8.1380   20.9570  -25.2580 O.3    38  DA38       -0.4373
    747  O5'       -5.9770   21.9070  -24.5330 O.3    38  DA38       -0.3114
    748  C5'       -4.8310   22.7170  -24.7610 C.3    38  DA38        0.1812
    749  C4'       -4.8450   23.9130  -23.8340 C.3    38  DA38        0.1775
    750  O4'       -6.0740   24.6590  -24.0000 O.3    38  DA38       -0.3326
    751  C3'       -4.8280   23.6330  -22.3420 C.3    38  DA38        0.1859
    752  O3'       -3.5000   23.3750  -21.9320 O.3    38  DA38       -0.2202
    753  C2'       -5.3730   24.9290  -21.7390 C.3    38  DA38        0.0894
    754  C1'       -6.3220   25.4190  -22.8300 C.3    38  DA38        0.2095
    755  N9        -7.6230   25.2060  -22.6600 N.ar   38  DA38       -0.2714
    756  C8        -8.3720   24.1220  -23.0370 C.ar   38  DA38        0.1815
    757  N7        -9.4980   24.0010  -22.3750 N.ar   38  DA38       -0.2193
    758  C5        -9.4880   25.0790  -21.5040 C.ar   38  DA38        0.1518
    759  C6       -10.4040   25.5170  -20.5310 C.ar   38  DA38        0.1919
    760  N6       -11.5540   24.8940  -20.2650 N.pl3  38  DA38       -0.1054
    761  N1       -10.0920   26.6300  -19.8330 N.ar   38  DA38       -0.2040
    762  C2        -8.9390   27.2540  -20.1020 C.ar   38  DA38        0.2016
    763  N3        -8.0000   26.9400  -20.9910 N.ar   38  DA38       -0.2048
    764  C4        -8.3400   25.8290  -21.6670 C.ar   38  DA38        0.1691
    765  P         -3.0290   21.7220  -20.9620 P.3    39  DG39        0.4149
    766  OP1       -1.9030   21.6330  -21.9300 O.3    39  DG39       -0.1481
    767  OP2       -3.0220   20.8650  -19.7500 O.2    39  DG39       -0.2668
    768  O5'       -3.1060   23.2190  -20.4300 O.3    39  DG39       -0.2177
    769  C5'       -2.9960   23.4680  -19.0380 C.3    39  DG39        0.2140
    770  C4'       -3.3290   24.9030  -18.7190 C.3    39  DG39        0.1776
    771  O4'       -4.5960   25.2550  -19.3290 O.3    39  DG39       -0.3326
    772  C3'       -3.5860   25.1220  -17.2420 C.3    39  DG39        0.1559
    773  O3'       -2.3890   25.2600  -16.5130 O.3    39  DG39       -0.3138
    774  C2'       -4.4620   26.3600  -17.2280 C.3    39  DG39        0.0865
    775  C1'       -5.3240   26.1060  -18.4580 C.3    39  DG39        0.2093
    776  N9        -6.4960   25.5700  -18.1200 N.ar   39  DG39       -0.2728
    777  C8        -6.9290   24.3280  -18.5160 C.ar   39  DG39        0.1814
    778  N7        -8.0960   24.0080  -18.0260 N.ar   39  DG39       -0.2177
    779  C5        -8.4590   25.1030  -17.2640 C.ar   39  DG39        0.1711
    780  C6        -9.6230   25.3430  -16.4890 C.2    39  DG39        0.2985
    781  O6       -10.5980   24.6000  -16.3210 O.2    39  DG39       -0.2655
    782  N1        -9.5880   26.5890  -15.8700 N.am   39  DG39       -0.1042
    783  C2        -8.5600   27.4940  -15.9840 C.1    39  DG39        0.1460
    784  N2        -8.7070   28.6440  -15.3140 N.2    39  DG39       -0.0024
    785  N3        -7.4720   27.2850  -16.7000 N.pl3  39  DG39       -0.1259
    786  C4        -7.4830   26.0800  -17.3090 C.ar   39  DG39        0.1688
    787  P         -1.9100   24.0160  -15.5290 P.3    40  DC40        0.2141
    788  OP1       -0.5060   23.6340  -15.8620 O.2    40  DC40       -0.5172
    789  OP2       -2.8570   23.0040  -14.9410 O.3    40  DC40       -0.4373
    790  O5'       -1.8820   25.3090  -14.5850 O.3    40  DC40       -0.3114
    791  C5'       -2.9020   26.3160  -14.6660 C.3    40  DC40        0.1811
    792  C4'       -3.4050   26.7010  -13.2830 C.3    40  DC40        0.1746
    793  O4'       -4.6080   27.4950  -13.4490 O.3    40  DC40       -0.3327
    794  C3'       -3.8080   25.5120  -12.4210 C.3    40  DC40        0.1558
    795  O3'       -2.7370   25.2880  -11.5290 O.3    40  DC40       -0.3138
    796  C2'       -5.0330   25.9900  -11.6630 C.3    40  DC40        0.0866
    797  C1'       -5.6460   26.9780  -12.6570 C.3    40  DC40        0.2106
    798  N1        -6.6040   26.4070  -13.6970 N.ar   40  DC40       -0.2556
    799  C2        -7.8300   26.3240  -13.0280 C.ar   40  DC40        0.3531
    800  O2        -8.0750   27.1410  -12.1240 O.2    40  DC40       -0.2443
    801  N3        -8.7110   25.3580  -13.3830 N.ar   40  DC40       -0.1739
    802  C4        -8.4040   24.5020  -14.3580 C.ar   40  DC40        0.1759
    803  N4        -9.3030   23.5660  -14.6740 N.pl3  40  DC40       -0.1070
    804  C5        -7.1670   24.5690  -15.0480 C.ar   40  DC40        0.0566
    805  C6        -6.3000   25.5250  -14.6950 C.ar   40  DC40        0.0849
    806  P         -2.3230   23.7430  -11.2260 P.3    41  DT41        0.2141
    807  OP1       -1.0200   23.7620  -10.5250 O.3    41  DT41       -0.4373
    808  OP2       -2.6060   22.6760  -12.2270 O.2    41  DT41       -0.5172
    809  O5'       -3.5050   23.7430  -10.1610 O.3    41  DT41       -0.3114
    810  C5'       -3.4810   24.6480   -9.0460 C.3    41  DT41        0.1811
    811  C4'       -4.8270   24.6790   -8.3610 C.3    41  DT41        0.1746
    812  O4'       -5.8420   25.2230   -9.2500 O.3    41  DT41       -0.3327
    813  C3'       -5.3880   23.3280   -7.9680 C.3    41  DT41        0.1558
    814  O3'       -4.7820   22.8260   -6.7870 O.3    41  DT41       -0.3138
    815  C2'       -6.8680   23.6540   -7.7980 C.3    41  DT41        0.0866
    816  C1'       -7.0940   24.6100   -8.9700 C.3    41  DT41        0.2106
    817  N1        -7.5520   23.9070  -10.1730 N.ar   41  DT41       -0.2559
    818  C2        -8.9040   23.6350  -10.2510 C.ar   41  DT41        0.3545
    819  O2        -9.7030   23.9880   -9.4020 O.2    41  DT41       -0.2443
    820  N3        -9.2910   22.9300  -11.3650 N.ar   41  DT41       -0.1533
    821  C4        -8.4790   22.4800  -12.3850 C.ar   41  DT41        0.2804
    822  O4        -8.9740   21.8590  -13.3230 O.2    41  DT41       -0.2654
    823  C5        -7.0890   22.8010  -12.2310 C.ar   41  DT41        0.0534
    824  C6        -6.6850   23.4860  -11.1570 C.ar   41  DT41        0.0824
    825  C7        -6.1240   22.3540  -13.2890 C.3    41  DT41        0.0377
    826  P         -4.7910   21.2850   -6.4810 P.3    42  DT42        0.2141
    827  OP1       -3.4650   20.7820   -6.0380 O.3    42  DT42       -0.4373
    828  OP2       -5.6420   20.4440   -7.3630 O.2    42  DT42       -0.5172
    829  O5'       -5.6550   21.6290   -5.1920 O.3    42  DT42       -0.3114
    830  C5'       -6.4110   20.6140   -4.5670 C.3    42  DT42        0.1812
    831  C4'       -7.8540   21.0170   -4.4850 C.3    42  DT42        0.1775
    832  O4'       -8.2360   21.7910   -5.6430 O.3    42  DT42       -0.3326
    833  C3'       -8.7970   19.8350   -4.4760 C.3    42  DT42        0.1864
    834  O3'       -8.9250   19.3430   -3.1530 O.3    42  DT42       -0.2133
    835  C2'      -10.0970   20.4090   -5.0340 C.3    42  DT42        0.0895
    836  C1'       -9.5960   21.5370   -5.9450 C.3    42  DT42        0.2107
    837  N1        -9.7370   21.1550   -7.3170 N.ar   42  DT42       -0.2559
    838  C2       -10.9310   21.1630   -8.0140 C.ar   42  DT42        0.3545
    839  O2       -12.0090   21.3550   -7.4820 O.2    42  DT42       -0.2443
    840  N3       -10.8160   20.9360   -9.3640 N.ar   42  DT42       -0.1533
    841  C4        -9.6550   20.7060  -10.0720 C.ar   42  DT42        0.2804
    842  O4        -9.7120   20.5190  -11.2850 O.2    42  DT42       -0.2654
    843  C5        -8.4590   20.7120   -9.2780 C.ar   42  DT42        0.0534
    844  C6        -8.5410   20.9310   -7.9630 C.ar   42  DT42        0.0824
    845  C7        -7.1430   20.4710   -9.9570 C.3    42  DT42        0.0377
    846  P         -9.4600   17.6880   -2.8730 P.3    43  DA43        0.3939
    847  OP1       -9.3090   18.8250   -1.9380 O.3    43  DA43       -0.1496
    848  OP2       -8.8540   16.3520   -2.4960 O.3    43  DA43       -0.1425
    849  O5'      -11.0020   17.3660   -3.0810 O.3    43  DA43       -0.2926
    850  C5'      -11.9500   18.3970   -2.8540 C.3    43  DA43        0.1828
    851  C4'      -12.9050   18.5440   -4.0110 C.3    43  DA43        0.1747
    852  O4'      -12.2700   19.1020   -5.1940 O.3    43  DA43       -0.3327
    853  C3'      -13.4770   17.2380   -4.4970 C.3    43  DA43        0.1558
    854  O3'      -14.4810   16.7850   -3.6260 O.3    43  DA43       -0.3138
    855  C2'      -13.9890   17.5990   -5.8840 C.3    43  DA43        0.0865
    856  C1'      -12.9230   18.5930   -6.3450 C.3    43  DA43        0.2094
    857  N9       -12.0630   18.0120   -7.1640 N.ar   43  DA43       -0.2714
    858  C8       -10.7580   18.0330   -6.7450 C.ar   43  DA43        0.1815
    859  N7        -9.9150   17.5240   -7.6130 N.ar   43  DA43       -0.2193
    860  C5       -10.7220   17.1430   -8.6730 C.ar   43  DA43        0.1518
    861  C6       -10.4350   16.5380   -9.9090 C.ar   43  DA43        0.1919
    862  N6        -9.2040   16.1990  -10.2990 N.pl3  43  DA43       -0.1054
    863  N1       -11.4700   16.2900  -10.7400 N.ar   43  DA43       -0.2040
    864  C2       -12.7040   16.6300  -10.3490 C.ar   43  DA43        0.2016
    865  N3       -13.0980   17.2030   -9.2150 N.ar   43  DA43       -0.2048
    866  C4       -12.0470   17.4360   -8.4100 C.ar   43  DA43        0.1691
    867  P        -14.5780   15.3110   -3.3460 P.3    44  DT44        0.2141
    868  OP1      -15.6740   15.2140   -2.3410 O.3    44  DT44       -0.4373
    869  OP2      -13.1490   15.5670   -2.9970 O.2    44  DT44       -0.5172
    870  O5'      -14.6680   14.0950   -4.3480 O.3    44  DT44       -0.3114
    871  C5'      -15.9100   13.8270   -4.8610 C.3    44  DT44        0.1811
    872  C4'      -15.7300   13.0750   -6.1490 C.3    44  DT44        0.1746
    873  O4'      -14.7560   13.8490   -6.8810 O.3    44  DT44       -0.3327
    874  C3'      -15.0040   11.7480   -6.1310 C.3    44  DT44        0.1558
    875  O3'      -15.7600   10.6810   -5.5870 O.3    44  DT44       -0.3138
    876  C2'      -14.6420   11.6120   -7.6200 C.3    44  DT44        0.0866
    877  C1'      -14.1930   13.0250   -7.8880 C.3    44  DT44        0.2106
    878  N1       -12.7680   13.1580   -7.8140 N.ar   44  DT44       -0.2559
    879  C2       -11.8620   12.6320   -8.7150 C.ar   44  DT44        0.3545
    880  O2       -12.1830   11.8750   -9.6150 O.2    44  DT44       -0.2443
    881  N3       -10.5590   13.0230   -8.5260 N.ar   44  DT44       -0.1533
    882  C4       -10.0810   13.8700   -7.5470 C.ar   44  DT44        0.2804
    883  O4        -8.8810   14.1290   -7.5040 O.2    44  DT44       -0.2654
    884  C5       -11.0820   14.3740   -6.6500 C.ar   44  DT44        0.0534
    885  C6       -12.3570   14.0090   -6.8110 C.ar   44  DT44        0.0824
    886  C7       -10.6610   15.3030   -5.5500 C.3    44  DT44        0.0377
    887  P        -14.9380    9.8140   -4.5040 P.3    45  DT45        0.2141
    888  OP1      -15.7730    9.0140   -3.5560 O.3    45  DT45       -0.4373
    889  OP2      -13.8100   10.5990   -3.9460 O.2    45  DT45       -0.5172
    890  O5'      -14.2250    8.8770   -5.5670 O.3    45  DT45       -0.3114
    891  C5'      -14.9120    7.8700   -6.2860 C.3    45  DT45        0.1811
    892  C4'      -14.0200    7.3580   -7.4030 C.3    45  DT45        0.1746
    893  O4'      -13.5210    8.4780   -8.1810 O.3    45  DT45       -0.3327
    894  C3'      -12.7910    6.5890   -6.9750 C.3    45  DT45        0.1558
    895  O3'      -13.0930    5.1720   -6.8470 O.3    45  DT45       -0.3138
    896  C2'      -11.8560    6.7440   -8.1480 C.3    45  DT45        0.0866
    897  C1'      -12.2090    8.1700   -8.6220 C.3    45  DT45        0.2106
    898  N1       -11.2570    9.1660   -8.0720 N.ar   45  DT45       -0.2559
    899  C2       -10.0340    9.3290   -8.6940 C.ar   45  DT45        0.3545
    900  O2        -9.6900    8.6780   -9.6650 O.2    45  DT45       -0.2443
    901  N3        -9.2220   10.2860   -8.1360 N.ar   45  DT45       -0.1533
    902  C4        -9.5040   11.0780   -7.0430 C.ar   45  DT45        0.2804
    903  O4        -8.6720   11.8970   -6.6580 O.2    45  DT45       -0.2654
    904  C5       -10.7920   10.8490   -6.4520 C.ar   45  DT45        0.0534
    905  C6       -11.6020    9.9240   -6.9750 C.ar   45  DT45        0.0824
    906  C7       -11.1920   11.6620   -5.2560 C.3    45  DT45        0.0377
    907  P        -12.2350    4.2870   -5.8250 P.3    46  DC46        0.2141
    908  OP1      -12.9700    3.0050   -5.7500 O.2    46  DC46       -0.5172
    909  OP2      -11.8660    4.9910   -4.5760 O.3    46  DC46       -0.4373
    910  O5'      -10.8300    4.0520   -6.5620 O.3    46  DC46       -0.3114
    911  C5'      -10.7890    3.2860   -7.7620 C.3    46  DC46        0.1811
    912  C4'       -9.4260    3.2610   -8.4200 C.3    46  DC46        0.1746
    913  O4'       -9.0920    4.5770   -8.9490 O.3    46  DC46       -0.3327
    914  C3'       -8.2720    2.8430   -7.5100 C.3    46  DC46        0.1558
    915  O3'       -7.5400    1.7410   -8.0350 O.3    46  DC46       -0.3138
    916  C2'       -7.3530    4.0580   -7.4350 C.3    46  DC46        0.0866
    917  C1'       -7.7620    4.9270   -8.6150 C.3    46  DC46        0.2106
    918  N1        -7.6440    6.2560   -8.0500 N.ar   46  DC46       -0.2556
    919  C2        -6.5720    7.0860   -8.3990 C.ar   46  DC46        0.3531
    920  O2        -5.9030    6.8050   -9.4080 O.2    46  DC46       -0.2443
    921  N3        -6.2970    8.1660   -7.6300 N.ar   46  DC46       -0.1739
    922  C4        -7.0420    8.4280   -6.5560 C.ar   46  DC46        0.1759
    923  N4        -6.7330    9.5040   -5.8280 N.pl3  46  DC46       -0.1070
    924  C5        -8.1320    7.6000   -6.1850 C.ar   46  DC46        0.0566
    925  C6        -8.4010    6.5340   -6.9470 C.ar   46  DC46        0.0849
    926  P         -6.7380    1.0330   -7.0950 P.3    47  DA47        0.2141
    927  OP1       -6.6390   -0.4180   -7.3810 O.2    47  DA47       -0.5172
    928  OP2       -7.0710    1.4990   -5.7280 O.3    47  DA47       -0.4373
    929  O5'       -5.3470    1.7700   -7.3890 O.3    47  DA47       -0.3114
    930  C5'       -4.9150    1.9810   -8.7290 C.3    47  DA47        0.1811
    931  C4'       -3.6020    2.7250   -8.8180 C.3    47  DA47        0.1746
    932  O4'       -3.8830    4.1460   -8.9740 O.3    47  DA47       -0.3327
    933  C3'       -2.6860    2.6120   -7.5980 C.3    47  DA47        0.1558
    934  O3'       -1.6010    1.7030   -7.7410 O.3    47  DA47       -0.3138
    935  C2'       -2.0950    4.0050   -7.4170 C.3    47  DA47        0.0865
    936  C1'       -2.9950    4.9370   -8.2050 C.3    47  DA47        0.2094
    937  N9        -3.7810    5.6660   -7.2680 N.ar   47  DA47       -0.2714
    938  C8        -4.8890    5.2860   -6.5580 C.ar   47  DA47        0.1815
    939  N7        -5.2160    6.1210   -5.6000 N.ar   47  DA47       -0.2193
    940  C5        -4.2550    7.1170   -5.6860 C.ar   47  DA47        0.1518
    941  C6        -4.0440    8.2940   -4.9470 C.ar   47  DA47        0.1919
    942  N6        -4.8240    8.6800   -3.9340 N.pl3  47  DA47       -0.1054
    943  N1        -2.9930    9.0680   -5.2890 N.ar   47  DA47       -0.2040
    944  C2        -2.2130    8.6810   -6.3050 C.ar   47  DA47        0.2016
    945  N3        -2.3110    7.5990   -7.0740 N.ar   47  DA47       -0.2048
    946  C4        -3.3640    6.8500   -6.7080 C.ar   47  DA47        0.1691
    947  P         -1.1660    1.1420   -6.2850 P.3    48  DA48        0.2141
    948  OP1       -0.5520   -0.0880   -6.8380 O.2    48  DA48       -0.5172
    949  OP2       -1.9360    1.0740   -5.0110 O.3    48  DA48       -0.4373
    950  O5'       -0.0030    2.2150   -6.1370 O.3    48  DA48       -0.3114
    951  C5'        1.1070    2.1870   -7.0120 C.3    48  DA48        0.1811
    952  C4'        1.9060    3.4560   -6.8810 C.3    48  DA48        0.1746
    953  O4'        1.0280    4.6040   -7.0110 O.3    48  DA48       -0.3327
    954  C3'        2.5780    3.6960   -5.5410 C.3    48  DA48        0.1558
    955  O3'        3.7810    2.9560   -5.4230 O.3    48  DA48       -0.3138
    956  C2'        2.8560    5.1890   -5.6280 C.3    48  DA48        0.0865
    957  C1'        1.5500    5.6800   -6.2450 C.3    48  DA48        0.2094
    958  N9         0.5730    6.0100   -5.2480 N.ar   48  DA48       -0.2714
    959  C8        -0.4040    5.1630   -4.7940 C.ar   48  DA48        0.1815
    960  N7        -1.2060    5.7070   -3.9090 N.ar   48  DA48       -0.2193
    961  C5        -0.7220    6.9980   -3.7720 C.ar   48  DA48        0.1518
    962  C6        -1.1360    8.0850   -2.9810 C.ar   48  DA48        0.1919
    963  N6        -2.1770    8.0370   -2.1470 N.pl3  48  DA48       -0.1054
    964  N1        -0.4350    9.2340   -3.0790 N.ar   48  DA48       -0.2040
    965  C2         0.6070    9.2810   -3.9170 C.ar   48  DA48        0.2016
    966  N3         1.0920    8.3290   -4.7100 N.ar   48  DA48       -0.2048
    967  C4         0.3740    7.1990   -4.5890 C.ar   48  DA48        0.1691
    968  P          4.6230    2.9720   -3.9650 P.3    49  DT49        0.2141
    969  OP1        5.8880    2.2130   -4.0980 O.2    49  DT49       -0.5172
    970  OP2        3.4770    2.3640   -3.2360 O.3    49  DT49       -0.4373
    971  O5'        4.9460    4.3620   -3.2530 O.3    49  DT49       -0.3114
    972  C5'        6.0580    5.1780   -3.6710 C.3    49  DT49        0.1811
    973  C4'        6.0060    6.5250   -2.9870 C.3    49  DT49        0.1746
    974  O4'        4.7680    7.1930   -3.3430 O.3    49  DT49       -0.3327
    975  C3'        6.0000    6.4900   -1.4660 C.3    49  DT49        0.1558
    976  O3'        7.3200    6.4470   -0.9320 O.3    49  DT49       -0.3138
    977  C2'        5.2920    7.7870   -1.0920 C.3    49  DT49        0.0866
    978  C1'        4.3000    7.9560   -2.2440 C.3    49  DT49        0.2106
    979  N1         2.8920    7.5720   -1.9180 N.ar   49  DT49       -0.2559
    980  C2         2.1520    8.4130   -1.1090 C.ar   49  DT49        0.3545
    981  O2         2.5530    9.5030   -0.7400 O.2    49  DT49       -0.2443
    982  N3         0.9190    7.9300   -0.7430 N.ar   49  DT49       -0.1533
    983  C4         0.3640    6.7180   -1.0980 C.ar   49  DT49        0.2804
    984  O4        -0.7580    6.4240   -0.6910 O.2    49  DT49       -0.2654
    985  C5         1.1940    5.9020   -1.9380 C.ar   49  DT49        0.0534
    986  C6         2.3980    6.3470   -2.3080 C.ar   49  DT49        0.0824
    987  C7         0.6790    4.5640   -2.3780 C.3    49  DT49        0.0377
    988  P          7.4960    6.0500    0.8120 P.3    50  DT50        0.2141
    989  OP1        8.8520    5.8590    1.3790 O.3    50  DT50       -0.4373
    990  OP2        6.7330    4.8760    0.3160 O.2    50  DT50       -0.5172
    991  O5'        6.6000    6.8660    1.8700 O.3    50  DT50       -0.3114
    992  C5'        7.0900    8.0810    2.4530 C.3    50  DT50        0.1811
    993  C4'        6.0940    8.6970    3.4270 C.3    50  DT50        0.1746
    994  O4'        4.8720    9.0770    2.7350 O.3    50  DT50       -0.3327
    995  C3'        5.6350    7.7770    4.5450 C.3    50  DT50        0.1558
    996  O3'        6.5000    7.8910    5.6510 O.3    50  DT50       -0.3138
    997  C2'        4.2640    8.3350    4.8950 C.3    50  DT50        0.0866
    998  C1'        3.7380    8.7470    3.5230 C.3    50  DT50        0.2106
    999  N1         2.9850    7.6360    2.8560 N.ar   50  DT50       -0.2559
   1000  C2         1.7380    7.3220    3.3620 C.ar   50  DT50        0.3545
   1001  O2         1.2390    7.9050    4.3080 O.2    50  DT50       -0.2443
   1002  N3         1.0920    6.2930    2.7190 N.ar   50  DT50       -0.1533
   1003  C4         1.5580    5.5640    1.6450 C.ar   50  DT50        0.2804
   1004  O4         0.8610    4.6690    1.1740 O.2    50  DT50       -0.2654
   1005  C5         2.8600    5.9500    1.1780 C.ar   50  DT50        0.0534
   1006  C6         3.5100    6.9460    1.7850 C.ar   50  DT50        0.0824
   1007  C7         3.4550    5.2160    0.0130 C.3    50  DT50        0.0377
   1008  P          6.4890    6.6700    6.8400 P.3    51  DA51        0.2141
   1009  OP1        7.7250    6.5290    7.6510 O.3    51  DA51       -0.4373
   1010  OP2        6.1200    5.5970    5.8740 O.2    51  DA51       -0.5172
   1011  O5'        5.2550    6.8530    7.8340 O.3    51  DA51       -0.3114
   1012  C5'        5.0450    8.0830    8.5280 C.3    51  DA51        0.1811
   1013  C4'        3.6140    8.1790    9.0270 C.3    51  DA51        0.1746
   1014  O4'        2.6980    8.1210    7.9010 O.3    51  DA51       -0.3327
   1015  C3'        3.1380    7.0710    9.9540 C.3    51  DA51        0.1558
   1016  O3'        3.5050    7.3560   11.2970 O.3    51  DA51       -0.3138
   1017  C2'        1.6240    7.1400    9.7850 C.3    51  DA51        0.0865
   1018  C1'        1.4980    7.4800    8.2980 C.3    51  DA51        0.2094
   1019  N9         1.3330    6.3240    7.4030 N.ar   51  DA51       -0.2714
   1020  C8         2.2820    5.7740    6.5820 C.ar   51  DA51        0.1815
   1021  N7         1.8630    4.7200    5.9210 N.ar   51  DA51       -0.2193
   1022  C5         0.5500    4.5680    6.3370 C.ar   51  DA51        0.1518
   1023  C6        -0.4450    3.6320    6.0050 C.ar   51  DA51        0.1919
   1024  N6        -0.2610    2.6340    5.1380 N.pl3  51  DA51       -0.1054
   1025  N1        -1.6500    3.7610    6.6000 N.ar   51  DA51       -0.2040
   1026  C2        -1.8340    4.7620    7.4680 C.ar   51  DA51        0.2016
   1027  N3        -0.9770    5.7030    7.8600 N.ar   51  DA51       -0.2048
   1028  C4         0.2100    5.5470    7.2510 C.ar   51  DA51        0.1691
   1029  P          4.2090    6.2510   12.1370 P.3    52  DC52        0.2141
   1030  OP1        4.6610    6.9680   13.3530 O.3    52  DC52       -0.4373
   1031  OP2        5.1420    5.3340   11.4310 O.2    52  DC52       -0.5172
   1032  O5'        2.8640    5.4690   12.4680 O.3    52  DC52       -0.3114
   1033  C5'        1.9230    6.0210   13.3860 C.3    52  DC52        0.1812
   1034  C4'        0.7210    5.1140   13.5320 C.3    52  DC52        0.1775
   1035  O4'       -0.0530    5.1090   12.2940 O.3    52  DC52       -0.3326
   1036  C3'        0.9860    3.6410   13.8250 C.3    52  DC52        0.1864
   1037  O3'        1.3640    3.4700   15.1990 O.3    52  DC52       -0.2133
   1038  C2'       -0.3270    3.0250   13.3560 C.3    52  DC52        0.0895
   1039  C1'       -0.5420    3.8020   12.0510 C.3    52  DC52        0.2107
   1040  N1         0.0990    3.1980   10.8510 N.ar   52  DC52       -0.2556
   1041  C2        -0.6250    2.1060   10.3590 C.ar   52  DC52        0.3531
   1042  O2        -1.7660    1.8960   10.8050 O.2    52  DC52       -0.2443
   1043  N3        -0.0630    1.3120    9.4160 N.ar   52  DC52       -0.1739
   1044  C4         1.1650    1.5760    8.9680 C.ar   52  DC52        0.1759
   1045  N4         1.6780    0.7660    8.0390 N.pl3  52  DC52       -0.1070
   1046  C5         1.9150    2.6780    9.4530 C.ar   52  DC52        0.0566
   1047  C6         1.3560    3.4590   10.3850 C.ar   52  DC52        0.0849
   1048  P          1.0330    2.1940   15.8460 P.3    53  DG53        0.3939
   1049  OP1        0.3970    1.7700   17.1240 O.3    53  DG53       -0.1425
   1050  OP2        2.3100    2.9450   15.8810 O.3    53  DG53       -0.1496
   1051  O5'        1.2140    0.9280   14.8980 O.3    53  DG53       -0.2926
   1052  C5'        0.0930    0.0780   14.6400 C.3    53  DG53        0.1828
   1053  C4'        0.4050   -0.9170   13.5530 C.3    53  DG53        0.1747
   1054  O4'        0.5930   -0.2480   12.2850 O.3    53  DG53       -0.3327
   1055  C3'        1.6510   -1.7670   13.7140 C.3    53  DG53        0.1558
   1056  O3'        1.4140   -2.8460   14.6140 O.3    53  DG53       -0.3138
   1057  C2'        1.9070   -2.2410   12.2830 C.3    53  DG53        0.0865
   1058  C1'        1.4110   -1.0510   11.4590 C.3    53  DG53        0.2094
   1059  N9         2.3850   -0.3350   10.9260 N.ar   53  DG53       -0.2713
   1060  C8         2.9610    0.8020   11.4370 C.ar   53  DG53        0.1816
   1061  N7         4.0920    1.1100   10.8630 N.ar   53  DG53       -0.2173
   1062  C5         4.2760    0.1200    9.9150 C.ar   53  DG53        0.1748
   1063  C6         5.3260   -0.0830    8.9840 C.ar   53  DG53        0.3023
   1064  O6         6.3400    0.6060    8.8110 O.2    53  DG53       -0.2633
   1065  N1         5.1190   -1.2170    8.2040 N.ar   53  DG53       -0.1709
   1066  C2         4.0330   -2.0530    8.3090 C.ar   53  DG53        0.2606
   1067  N2         4.0080   -3.0970    7.4690 N.pl3  53  DG53       -0.0859
   1068  N3         3.0500   -1.8780    9.1700 N.ar   53  DG53       -0.1918
   1069  C4         3.2300   -0.7830    9.9380 C.ar   53  DG53        0.1722
   1070  P          2.5260   -3.1120   15.7480 P.3    54  DT54        0.2141
   1071  OP1        2.1270   -3.8820   16.9490 O.3    54  DT54       -0.4373
   1072  OP2        3.6100   -2.1040   15.8160 O.2    54  DT54       -0.5172
   1073  O5'        3.0010   -4.1380   14.6160 O.3    54  DT54       -0.3114
   1074  C5'        2.2170   -5.2880   14.3340 C.3    54  DT54        0.1812
   1075  C4'        2.9550   -6.2280   13.4180 C.3    54  DT54        0.1775
   1076  O4'        3.0480   -5.6320   12.1010 O.3    54  DT54       -0.3326
   1077  C3'        4.3980   -6.5080   13.8010 C.3    54  DT54        0.1864
   1078  O3'        4.5240   -7.5180   14.7800 O.3    54  DT54       -0.2133
   1079  C2'        5.0390   -6.8820   12.4750 C.3    54  DT54        0.0895
   1080  C1'        4.2910   -5.9550   11.5150 C.3    54  DT54        0.2107
   1081  N1         5.0470   -4.5880   11.4030 N.ar   54  DT54       -0.2559
   1082  C2         6.0460   -4.5990   10.4490 C.ar   54  DT54        0.3545
   1083  O2         6.2230   -5.5310    9.6840 O.2    54  DT54       -0.2443
   1084  N3         6.8360   -3.4760   10.4210 N.ar   54  DT54       -0.1533
   1085  C4         6.7290   -2.3670   11.2350 C.ar   54  DT54        0.2804
   1086  O4         7.5140   -1.4320   11.0900 O.2    54  DT54       -0.2654
   1087  C5         5.6690   -2.4310   12.2000 C.ar   54  DT54        0.0534
   1088  C6         4.8850   -3.5120   12.2490 C.ar   54  DT54        0.0824
   1089  C7         5.4720   -1.2720   13.1320 C.3    54  DT54        0.0377
   1090  P          5.9220   -7.6850   15.7200 P.3    55  DC55        0.3939
   1091  OP1        7.2510   -7.5370   16.3630 O.3    55  DC55       -0.1425
   1092  OP2        5.7790   -8.1620   14.3220 O.3    55  DC55       -0.1496
   1093  O5'        5.0380   -8.7170   16.5610 O.3    55  DC55       -0.2926
   1094  C5'        4.6520   -8.4370   17.8960 C.3    55  DC55        0.1828
   1095  C4'        4.8920   -9.6320   18.7790 C.3    55  DC55        0.1745
   1096  O4'        3.8170  -10.6060   18.6490 O.3    55  DC55       -0.3346
   1097  C3'        6.1810  -10.3960   18.4910 C.3    55  DC55        0.1555
   1098  O3'        6.7230  -10.8440   19.7270 O.3    55  DC55       -0.3139
   1099  C2'        5.6910  -11.6140   17.7240 C.3    55  DC55        0.0839
   1100  C1'        4.3950  -11.8830   18.4760 C.3    55  DC55        0.2017
   1101  N1         3.8070  -12.5000   17.7460 N.am   55  DC55       -0.2177
   1102  C2         3.7110  -13.8700   18.0150 C.2    55  DC55        0.3329
   1103  O2         3.3540  -14.2320   19.1490 O.2    55  DC55       -0.2502
   1104  N3         4.0100  -14.7570   17.0360 N.am   55  DC55       -0.1326
   1105  C4         4.3890  -14.3210   15.8340 C.3    55  DC55        0.3186
   1106  N4         4.6740  -15.2330   14.9010 N.3    55  DC55       -0.0657
   1107  C5         4.4930  -12.9380   15.5410 C.2    55  DC55        0.0707
   1108  C6         4.1960  -12.0650   16.5100 C.2    55  DC55        0.0735
   1109  P          8.0000  -10.3030   20.2590 P.3    56  DT56        0.2141
   1110  OP1        8.7500   -9.6430   21.3560 O.3    56  DT56       -0.4373
   1111  OP2        8.5440  -10.2810   18.8680 O.2    56  DT56       -0.5172
   1112  O5'        7.7520  -11.8200   20.6780 O.3    56  DT56       -0.3114
   1113  C5'        7.6720  -12.1880   22.0480 C.3    56  DT56        0.1811
   1114  C4'        7.7150  -13.6910   22.1910 C.3    56  DT56        0.1746
   1115  O4'        6.6290  -14.2470   21.4060 O.3    56  DT56       -0.3327
   1116  C3'        8.9690  -14.3960   21.6810 C.3    56  DT56        0.1558
   1117  O3'        9.9840  -14.4400   22.6900 O.3    56  DT56       -0.3138
   1118  C2'        8.4290  -15.7840   21.3600 C.3    56  DT56        0.0866
   1119  C1'        7.0570  -15.4400   20.7780 C.3    56  DT56        0.2106
   1120  N1         7.0220  -15.1930   19.2620 N.ar   56  DT56       -0.2559
   1121  C2         6.8470  -16.3540   18.5340 C.ar   56  DT56        0.3545
   1122  O2         6.5660  -17.4230   19.0450 O.2    56  DT56       -0.2443
   1123  N3         7.0160  -16.2200   17.1770 N.ar   56  DT56       -0.1533
   1124  C4         7.3340  -15.0670   16.4900 C.ar   56  DT56        0.2805
   1125  O4         7.4510  -15.1030   15.2680 O.3    56  DT56       -0.2639
   1126  C5         7.5000  -13.9040   17.3160 C.ar   56  DT56        0.0534
   1127  C6         7.3420  -14.0070   18.6390 C.ar   56  DT56        0.0824
   1128  C7         7.8480  -12.6000   16.6620 C.3    56  DT56        0.0377
   1129  P         11.4650  -14.8040   22.2960 P.3    57  DG57        0.2141
   1130  OP1       12.4630  -14.4660   23.3330 O.3    57  DG57       -0.4373
   1131  OP2       11.5570  -14.1740   20.9600 O.2    57  DG57       -0.5172
   1132  O5'       11.4080  -16.3950   22.0920 O.3    57  DG57       -0.3114
   1133  C5'       11.0740  -17.2660   23.1740 C.3    57  DG57        0.1811
   1134  C4'       10.1090  -18.3730   22.7710 C.3    57  DG57        0.1746
   1135  O4'        9.1500  -17.8980   21.7910 O.3    57  DG57       -0.3327
   1136  C3'       10.7230  -19.5950   22.1060 C.3    57  DG57        0.1558
   1137  O3'       11.2970  -20.4490   23.0820 O.3    57  DG57       -0.3138
   1138  C2'        9.4790  -20.2130   21.4760 C.3    57  DG57        0.0865
   1139  C1'        8.7960  -18.9690   20.9290 C.3    57  DG57        0.2094
   1140  N9         9.3240  -18.7440   19.5190 N.ar   57  DG57       -0.2713
   1141  C8         9.9230  -17.5670   19.1400 C.ar   57  DG57        0.1816
   1142  N7        10.1550  -17.4970   17.8570 N.ar   57  DG57       -0.2173
   1143  C5         9.6810  -18.6960   17.3570 C.ar   57  DG57        0.1748
   1144  C6         9.6590  -19.1980   16.0300 C.ar   57  DG57        0.3023
   1145  O6        10.0710  -18.6530   14.9980 O.2    57  DG57       -0.2633
   1146  N1         9.0870  -20.4650   15.9630 N.ar   57  DG57       -0.1709
   1147  C2         8.5970  -21.1630   17.0410 C.ar   57  DG57        0.2606
   1148  N2         8.0810  -22.3710   16.7770 N.pl3  57  DG57       -0.0859
   1149  N3         8.6110  -20.7100   18.2790 N.ar   57  DG57       -0.1918
   1150  C4         9.1630  -19.4810   18.3680 C.ar   57  DG57        0.1722
   1151  P         12.3690  -21.0010   22.6990 P.3    58  DC58        0.2141
   1152  OP1       12.8690  -21.3500   24.0450 O.3    58  DC58       -0.4373
   1153  OP2       13.2310  -20.0930   21.8900 O.2    58  DC58       -0.5172
   1154  O5'       12.0050  -22.3360   21.8760 O.3    58  DC58       -0.3114
   1155  C5'       11.4720  -23.4940   22.5040 C.3    58  DC58        0.1811
   1156  C4'       11.0800  -24.5140   21.4520 C.3    58  DC58        0.1746
   1157  O4'       10.4140  -23.7920   20.3860 O.3    58  DC58       -0.3327
   1158  C3'       12.1960  -25.2990   20.7610 C.3    58  DC58        0.1558
   1159  O3'       12.5270  -26.5020   21.4600 O.3    58  DC58       -0.3138
   1160  C2'       11.5900  -25.6050   19.3880 C.3    58  DC58        0.0866
   1161  C1'       10.7440  -24.3640   19.1350 C.3    58  DC58        0.2106
   1162  N1        11.3280  -23.2740   18.2360 N.ar   58  DC58       -0.2556
   1163  C2        11.3150  -23.4560   16.8480 C.ar   58  DC58        0.3531
   1164  O2        10.7670  -24.4700   16.3830 O.2    58  DC58       -0.2443
   1165  N3        11.8990  -22.5250   16.0560 N.ar   58  DC58       -0.1739
   1166  C4        12.4770  -21.4530   16.5990 C.ar   58  DC58        0.1759
   1167  N4        13.0390  -20.5630   15.7780 N.pl3  58  DC58       -0.1070
   1168  C5        12.5010  -21.2500   18.0030 C.ar   58  DC58        0.0566
   1169  C6        11.9230  -22.1710   18.7820 C.ar   58  DC58        0.0849
   1170  P         13.8980  -27.3490   21.0540 P.3    59  DA59        0.2141
   1171  OP1       13.9220  -28.4210   22.0780 O.3    59  DA59       -0.4373
   1172  OP2       14.9300  -26.2840   21.0710 O.2    59  DA59       -0.5172
   1173  O5'       13.9190  -28.0100   19.5940 O.3    59  DA59       -0.3114
   1174  C5'       13.1160  -29.1530   19.3010 C.3    59  DA59        0.1813
   1175  C4'       12.7880  -29.2280   17.8210 C.3    59  DA59        0.1812
   1176  O4'       12.3640  -27.9300   17.3260 O.3    59  DA59       -0.3298
   1177  C3'       13.9520  -29.5740   16.9050 C.3    59  DA59        0.2257
   1178  O3'       14.2390  -30.9550   16.9280 O.3    59  DA59       -0.2164
   1179  C2'       13.3990  -29.1220   15.5620 C.3    59  DA59        0.2506
   1180  C1'       12.7880  -27.7830   15.9770 C.3    59  DA59        0.2510
   1181  N9        13.7740  -26.6010   15.9290 N.ar   59  DA59       -0.2685
   1182  C8        14.1360  -25.9010   17.0510 C.ar   59  DA59        0.1816
   1183  N7        14.7450  -24.7680   16.7940 N.ar   59  DA59       -0.2193
   1184  C5        14.7860  -24.7200   15.4090 C.ar   59  DA59        0.1518
   1185  C6        15.3030  -23.7710   14.5110 C.ar   59  DA59        0.1919
   1186  N6        15.9020  -22.6400   14.8930 N.pl3  59  DA59       -0.1054
   1187  N1        15.1830  -24.0270   13.1900 N.ar   59  DA59       -0.2040
   1188  C2        14.5820  -25.1600   12.8090 C.ar   59  DA59        0.2016
   1189  N3        14.0560  -26.1270   13.5570 N.ar   59  DA59       -0.2048
   1190  C4        14.1930  -25.8430   14.8630 C.ar   59  DA59        0.1692
   1191  P         15.7230  -31.4440   17.3880 P.3    60  DC60        0.5411
   1192  OP1       16.1210  -32.6670   18.1330 O.2    60  DC60       -0.2272
   1193  OP2       16.7020  -30.3500   17.2050 O.2    60  DC60       -0.2272
   1194  O5'       15.1840  -31.8260   15.9450 O.3    60  DC60       -0.2722
   1195  C5'       16.0830  -32.3220   15.0040 C.3    60  DC60        0.1850
   1196  C4'       15.9220  -31.6280   13.6840 C.3    60  DC60        0.1748
   1197  O4'       15.4850  -30.2380   13.7810 O.3    60  DC60       -0.3327
   1198  C3'       17.2570  -31.5100   12.9950 C.3    60  DC60        0.1558
   1199  O3'       17.7560  -32.7550   12.5740 O.3    60  DC60       -0.3138
   1200  C2'       16.9960  -30.4420   11.9470 C.3    60  DC60        0.0866
   1201  C1'       16.0890  -29.4800   12.7260 C.3    60  DC60        0.2106
   1202  N1        17.0020  -28.4830   13.2040 N.ar   60  DC60       -0.2556
   1203  C2        17.4570  -27.4140   12.4230 C.ar   60  DC60        0.3531
   1204  O2        17.3200  -27.4740   11.1890 O.2    60  DC60       -0.2443
   1205  N3        18.0330  -26.3510   13.0330 N.ar   60  DC60       -0.1739
   1206  C4        18.1600  -26.3310   14.3600 C.ar   60  DC60        0.1759
   1207  N4        18.7340  -25.2610   14.9170 N.pl3  60  DC60       -0.1070
   1208  C5        17.7050  -27.4040   15.1690 C.ar   60  DC60        0.0566
   1209  C6        17.1370  -28.4520   14.5630 C.ar   60  DC60        0.0849
   1210  P         19.2590  -33.1870   13.2320 P.3    61  DA61        0.2141
   1211  OP1       18.8380  -34.5660   13.5900 O.2    61  DA61       -0.5172
   1212  OP2       20.1670  -32.4280   14.1400 O.3    61  DA61       -0.4373
   1213  O5'       19.8990  -33.2620   11.7800 O.3    61  DA61       -0.3114
   1214  C5'       19.0780  -33.2100   10.6250 C.3    61  DA61        0.1811
   1215  C4'       19.5270  -32.0780    9.7400 C.3    61  DA61        0.1746
   1216  O4'       19.2840  -30.7940   10.3750 O.3    61  DA61       -0.3327
   1217  C3'       21.0240  -31.9680    9.5210 C.3    61  DA61        0.1558
   1218  O3'       21.5780  -33.0090    8.7330 O.3    61  DA61       -0.3138
   1219  C2'       21.1410  -30.5720    8.9140 C.3    61  DA61        0.0865
   1220  C1'       20.0610  -29.8150    9.6960 C.3    61  DA61        0.2094
   1221  N9        20.3940  -28.9510   10.6020 N.ar   61  DA61       -0.2714
   1222  C8        20.3670  -29.1540   11.9570 C.ar   61  DA61        0.1815
   1223  N7        20.7790  -28.1220   12.6540 N.ar   61  DA61       -0.2193
   1224  C5        21.1000  -27.1770   11.6920 C.ar   61  DA61        0.1518
   1225  C6        21.5950  -25.8650   11.7820 C.ar   61  DA61        0.1919
   1226  N6        21.8640  -25.2540   12.9380 N.pl3  61  DA61       -0.1054
   1227  N1        21.8070  -25.1940   10.6300 N.ar   61  DA61       -0.2040
   1228  C2        21.5370  -25.8070    9.4710 C.ar   61  DA61        0.2016
   1229  N3        21.0680  -27.0340    9.2590 N.ar   61  DA61       -0.2048
   1230  C4        20.8690  -27.6740   10.4230 C.ar   61  DA61        0.1691
   1231  P         22.9090  -33.1370    8.7440 P.3    62  DT62        0.2141
   1232  OP1       23.3780  -34.3410    8.0170 O.2    62  DT62       -0.5172
   1233  OP2       23.1880  -33.0060   10.1900 O.3    62  DT62       -0.4373
   1234  O5'       23.5180  -31.8520    8.0350 O.3    62  DT62       -0.3114
   1235  C5'       23.5980  -31.7650    6.6030 C.3    62  DT62        0.1811
   1236  C4'       24.4620  -30.5950    6.2170 C.3    62  DT62        0.1746
   1237  O4'       23.7840  -29.3580    6.5670 O.3    62  DT62       -0.3327
   1238  C3'       25.7810  -30.5160    6.9690 C.3    62  DT62        0.1558
   1239  O3'       26.7700  -31.3750    6.4100 O.3    62  DT62       -0.3138
   1240  C2'       26.1170  -29.0360    6.8540 C.3    62  DT62        0.0866
   1241  C1'       24.7320  -28.4080    7.0230 C.3    62  DT62        0.2106
   1242  N1        24.4340  -28.0450    8.3840 N.ar   62  DT62       -0.2559
   1243  C2        24.6570  -26.7450    8.7950 C.ar   62  DT62        0.3545
   1244  O2        25.0140  -25.8600    8.0370 O.2    62  DT62       -0.2443
   1245  N3        24.4460  -26.5140   10.1330 N.ar   62  DT62       -0.1533
   1246  C4        24.0450  -27.4330   11.0800 C.ar   62  DT62        0.2804
   1247  O4        23.8980  -27.0750   12.2460 O.2    62  DT62       -0.2654
   1248  C5        23.8350  -28.7610   10.5760 C.ar   62  DT62        0.0534
   1249  C6        24.0330  -29.0130    9.2790 C.ar   62  DT62        0.0824
   1250  C7        23.3970  -29.8330   11.5290 C.3    62  DT62        0.0377
   1251  P         28.1810  -32.0680    7.3650 P.3    63  DA63        0.2141
   1252  OP1       28.9120  -33.3390    7.2150 O.2    63  DA63       -0.5172
   1253  OP2       27.9870  -31.4960    8.7070 O.3    63  DA63       -0.4373
   1254  O5'       28.8860  -30.9780    6.4480 O.3    63  DA63       -0.3114
   1255  C5'       29.9690  -30.1740    6.9460 C.3    63  DA63        0.1812
   1256  C4'       30.2240  -29.0190    6.0090 C.3    63  DA63        0.1775
   1257  O4'       30.7390  -29.5370    4.7460 O.3    63  DA63       -0.3326
   1258  C3'       28.9860  -28.1960    5.6530 C.3    63  DA63        0.1859
   1259  O3'       29.3600  -26.8500    5.4030 O.3    63  DA63       -0.2203
   1260  C2'       28.5410  -28.8290    4.3410 C.3    63  DA63        0.0894
   1261  C1'       29.8900  -29.1310    3.6940 C.3    63  DA63        0.2095
   1262  N9        29.6560  -30.0530    2.7960 N.ar   63  DA63       -0.2714
   1263  C8        28.8470  -31.1090    3.1260 C.ar   63  DA63        0.1815
   1264  N7        28.2490  -31.6600    2.0960 N.ar   63  DA63       -0.2193
   1265  C5        28.6950  -30.9140    1.0160 C.ar   63  DA63        0.1518
   1266  C6        28.4280  -30.9940   -0.3620 C.ar   63  DA63        0.1919
   1267  N6        27.6150  -31.9010   -0.9070 N.pl3  63  DA63       -0.1054
   1268  N1        29.0350  -30.0970   -1.1690 N.ar   63  DA63       -0.2040
   1269  C2        29.8510  -29.1890   -0.6220 C.ar   63  DA63        0.2016
   1270  N3        30.1800  -29.0160    0.6560 N.ar   63  DA63       -0.2048
   1271  C4        29.5600  -29.9210    1.4320 C.ar   63  DA63        0.1691
   1272  P         28.3590  -25.7040    6.3270 P.3    64  DC64        0.5411
   1273  OP1       28.5830  -24.4130    7.0130 O.2    64  DC64       -0.2272
   1274  OP2       27.0720  -26.4230    6.4630 O.2    64  DC64       -0.2272
   1275  O5'       28.5340  -25.5000    4.7480 O.3    64  DC64       -0.2722
   1276  C5'       28.6400  -24.1750    4.2480 C.3    64  DC64        0.1850
   1277  C4'       28.0080  -23.9860    2.8880 C.3    64  DC64        0.1748
   1278  O4'       28.3570  -25.0820    2.0030 O.3    64  DC64       -0.3327
   1279  C3'       26.4880  -23.9390    2.8350 C.3    64  DC64        0.1558
   1280  O3'       25.9670  -22.6820    3.2390 O.3    64  DC64       -0.3138
   1281  C2'       26.2030  -24.2780    1.3760 C.3    64  DC64        0.0866
   1282  C1'       27.3250  -25.2720    1.0560 C.3    64  DC64        0.2106
   1283  N1        26.8840  -26.6750    1.1310 N.ar   64  DC64       -0.2556
   1284  C2        26.3600  -27.2610   -0.0270 C.ar   64  DC64        0.3531
   1285  O2        26.3830  -26.6130   -1.0880 O.2    64  DC64       -0.2443
   1286  N3        25.8430  -28.5110    0.0420 N.ar   64  DC64       -0.1739
   1287  C4        25.8380  -29.1670    1.2030 C.ar   64  DC64        0.1759
   1288  N4        25.3190  -30.3970    1.2230 N.pl3  64  DC64       -0.1070
   1289  C5        26.3640  -28.5910    2.3880 C.ar   64  DC64        0.0566
   1290  C6        26.8730  -27.3560    2.3150 C.ar   64  DC64        0.0849
   1291  P         24.4250  -22.3500    3.0170 P.3    65  DC65        0.2141
   1292  OP1       24.3790  -20.8730    3.0740 O.2    65  DC65       -0.5172
   1293  OP2       23.6520  -23.1640    3.9830 O.3    65  DC65       -0.4373
   1294  O5'       23.8710  -22.8230    1.5940 O.3    65  DC65       -0.3114
   1295  C5'       24.3240  -22.1650    0.4170 C.3    65  DC65        0.1811
   1296  C4'       23.3340  -22.3090   -0.7080 C.3    65  DC65        0.1746
   1297  O4'       23.7000  -23.4860   -1.4800 O.3    65  DC65       -0.3327
   1298  C3'       21.8890  -22.4990   -0.2390 C.3    65  DC65        0.1558
   1299  O3'       20.9930  -21.4630   -0.6420 O.3    65  DC65       -0.3138
   1300  C2'       21.4360  -23.8250   -0.8360 C.3    65  DC65        0.0866
   1301  C1'       22.5760  -24.3010   -1.7210 C.3    65  DC65        0.2106
   1302  N1        22.8270  -25.6720   -1.1860 N.ar   65  DC65       -0.2556
   1303  C2        22.3510  -26.7400   -1.9560 C.ar   65  DC65        0.3531
   1304  O2        21.9990  -26.5220   -3.1280 O.2    65  DC65       -0.2443
   1305  N3        22.2880  -27.9750   -1.4030 N.ar   65  DC65       -0.1739
   1306  C4        22.6760  -28.1620   -0.1410 C.ar   65  DC65        0.1759
   1307  N4        22.5960  -29.3960    0.3610 N.pl3  65  DC65       -0.1070
   1308  C5        23.1610  -27.0930    0.6560 C.ar   65  DC65        0.0566
   1309  C6        23.2220  -25.8750    0.1060 C.ar   65  DC65        0.0849
   1310  P         19.7050  -21.6160    0.0680 P.3    66  DA66        0.2141
   1311  OP1       18.9640  -20.7630   -0.8950 O.2    66  DA66       -0.5172
   1312  OP2       20.0410  -21.0840    1.4070 O.3    66  DA66       -0.4373
   1313  O5'       18.8550  -22.9410    0.2510 O.3    66  DA66       -0.3114
   1314  C5'       18.3690  -23.6030   -0.8960 C.3    66  DA66        0.1811
   1315  C4'       18.1410  -25.0560   -0.6090 C.3    66  DA66        0.1746
   1316  O4'       19.3130  -25.6050    0.0430 O.3    66  DA66       -0.3327
   1317  C3'       17.0330  -25.3140    0.3890 C.3    66  DA66        0.1558
   1318  O3'       15.7860  -25.3330   -0.2780 O.3    66  DA66       -0.3138
   1319  C2'       17.3920  -26.6910    0.9190 C.3    66  DA66        0.0865
   1320  C1'       18.9140  -26.6150    0.9480 C.3    66  DA66        0.2094
   1321  N9        19.4340  -26.3020    2.2450 N.ar   66  DA66       -0.2714
   1322  C8        19.7620  -25.0430    2.6780 C.ar   66  DA66        0.1815
   1323  N7        20.1880  -25.0050    3.9190 N.ar   66  DA66       -0.2193
   1324  C5        20.1340  -26.3280    4.3280 C.ar   66  DA66        0.1518
   1325  C6        20.4550  -26.9550    5.5450 C.ar   66  DA66        0.1919
   1326  N6        20.9140  -26.3020    6.6150 N.pl3  66  DA66       -0.1054
   1327  N1        20.2870  -28.2930    5.6240 N.ar   66  DA66       -0.2040
   1328  C2        19.8280  -28.9470    4.5510 C.ar   66  DA66        0.2016
   1329  N3        19.4930  -28.4690    3.3550 N.ar   66  DA66       -0.2048
   1330  C4        19.6710  -27.1380    3.3090 C.ar   66  DA66        0.1691
   1331  P         14.4630  -25.2650    0.5610 P.3    67  DG67        0.2141
   1332  OP1       13.6780  -25.1120   -0.6900 O.2    67  DG67       -0.5172
   1333  OP2       14.7040  -24.0870    1.4320 O.3    67  DG67       -0.4373
   1334  O5'       13.8150  -26.4250    1.4310 O.3    67  DG67       -0.3114
   1335  C5'       13.7640  -27.7360    0.9030 C.3    67  DG67        0.1811
   1336  C4'       14.0200  -28.7640    1.9730 C.3    67  DG67        0.1746
   1337  O4'       15.3420  -28.6100    2.5610 O.3    67  DG67       -0.3327
   1338  C3'       13.1370  -28.7550    3.1970 C.3    67  DG67        0.1558
   1339  O3'       11.8360  -29.2040    2.9350 O.3    67  DG67       -0.3138
   1340  C2'       13.9160  -29.6540    4.1330 C.3    67  DG67        0.0865
   1341  C1'       15.3390  -29.1780    3.8670 C.3    67  DG67        0.2094
   1342  N9        15.6110  -28.1140    4.8820 N.ar   67  DG67       -0.2713
   1343  C8        16.0510  -26.8760    4.4810 C.ar   67  DG67        0.1816
   1344  N7        16.5290  -26.1560    5.4590 N.ar   67  DG67       -0.2173
   1345  C5        16.4010  -26.9640    6.5740 C.ar   67  DG67        0.1748
   1346  C6        16.7460  -26.7290    7.9300 C.ar   67  DG67        0.3023
   1347  O6        17.2550  -25.7160    8.4260 O.2    67  DG67       -0.2633
   1348  N1        16.4440  -27.8200    8.7400 N.ar   67  DG67       -0.1709
   1349  C2        15.8790  -28.9920    8.3000 C.ar   67  DG67        0.2606
   1350  N2        15.6630  -29.9310    9.2310 N.pl3  67  DG67       -0.0859
   1351  N3        15.5520  -29.2250    7.0440 N.ar   67  DG67       -0.1918
   1352  C4        15.8350  -28.1800    6.2380 C.ar   67  DG67        0.1722
   1353  P         11.0100  -28.4190    3.2660 P.3    68  DC68        0.2141
   1354  OP1       10.0470  -28.9070    2.2480 O.2    68  DC68       -0.5172
   1355  OP2       11.1350  -26.9570    3.4950 O.3    68  DC68       -0.4373
   1356  O5'       10.7840  -29.1580    4.7090 O.3    68  DC68       -0.3114
   1357  C5'       10.0470  -30.3900    4.9680 C.3    68  DC68        0.1811
   1358  C4'       10.6600  -31.2190    6.1040 C.3    68  DC68        0.1746
   1359  O4'       12.0500  -30.8050    6.3560 O.3    68  DC68       -0.3327
   1360  C3'        9.9790  -31.1600    7.4800 C.3    68  DC68        0.1558
   1361  O3'        8.8620  -32.1090    7.6500 O.3    68  DC68       -0.3138
   1362  C2'       11.1720  -31.3610    8.4590 C.3    68  DC68        0.0866
   1363  C1'       12.3780  -30.7520    7.7480 C.3    68  DC68        0.2106
   1364  N1        12.4220  -29.4750    8.2710 N.ar   68  DC68       -0.2556
   1365  C2        12.8430  -29.2270    9.5820 C.ar   68  DC68        0.3530
   1366  O2        13.0310  -30.1920   10.3430 O.2    68  DC68       -0.2443
   1367  N3        13.0310  -27.9470    9.9830 N.ar   68  DC68       -0.1756
   1368  C4        12.8160  -26.9430    9.1320 C.ar   68  DC68        0.1572
   1369  N4        13.0140  -25.6980    9.5720 N.pl3  68  DC68       -0.1767
   1370  C5        12.3890  -27.1730    7.7990 C.ar   68  DC68        0.0549
   1371  C6        12.2050  -28.4390    7.4070 C.ar   68  DC68        0.0849
   1372  P          8.1770  -32.1820    8.9920 P.3    69  DT69        0.2141
   1373  OP1        7.3800  -33.4230    8.8560 O.3    69  DT69       -0.4373
   1374  OP2        7.5490  -30.8630    8.7680 O.2    69  DT69       -0.5172
   1375  O5'        8.8520  -32.2180   10.4380 O.3    69  DT69       -0.3114
   1376  C5'        8.8490  -33.4400   11.1460 C.3    69  DT69        0.1811
   1377  C4'        9.8500  -33.3460   12.2720 C.3    69  DT69        0.1746
   1378  O4'       10.9020  -32.4600   11.8410 O.3    69  DT69       -0.3327
   1379  C3'        9.2980  -32.7240   13.5390 C.3    69  DT69        0.1558
   1380  O3'        8.8470  -33.7460   14.3880 O.3    69  DT69       -0.3138
   1381  C2'       10.5090  -32.0330   14.1460 C.3    69  DT69        0.0866
   1382  C1'       11.3680  -31.6930   12.9320 C.3    69  DT69        0.2105
   1383  N1        11.3300  -30.2990   12.4820 N.ar   69  DT69       -0.2592
   1384  C2        12.1460  -29.3790   13.1120 C.ar   69  DT69        0.3051
   1385  O2        12.9480  -29.6850   13.9770 O.3    69  DT69       -0.4440
   1386  N3        11.9890  -28.0800   12.6940 N.ar   69  DT69       -0.1568
   1387  C4        11.1170  -27.6180   11.7300 C.ar   69  DT69        0.2803
   1388  O4        11.0910  -26.4200   11.4620 O.2    69  DT69       -0.2654
   1389  C5        10.3030  -28.6340   11.1230 C.ar   69  DT69        0.0534
   1390  C6        10.4360  -29.9050   11.5100 C.ar   69  DT69        0.0823
   1391  C7         9.3210  -28.2320   10.0630 C.3    69  DT69        0.0377
   1392  P          7.6610  -33.4470   15.4710 P.3    70  DT70        0.2141
   1393  OP1        7.1910  -34.7220   16.0610 O.3    70  DT70       -0.4373
   1394  OP2        6.7740  -32.6760   14.5710 O.2    70  DT70       -0.5172
   1395  O5'        8.1590  -32.5000   16.6660 O.3    70  DT70       -0.3114
   1396  C5'        9.2550  -32.8960   17.4930 C.3    70  DT70        0.1811
   1397  C4'        9.7540  -31.7330   18.3290 C.3    70  DT70        0.1746
   1398  O4'       10.2970  -30.7090   17.4540 O.3    70  DT70       -0.3327
   1399  C3'        8.6840  -30.9960   19.1250 C.3    70  DT70        0.1558
   1400  O3'        8.3800  -31.6540   20.3500 O.3    70  DT70       -0.3138
   1401  C2'        9.3720  -29.6540   19.3520 C.3    70  DT70        0.0866
   1402  C1'       10.0100  -29.4230   17.9820 C.3    70  DT70        0.2106
   1403  N1         9.1250  -28.6990   17.0590 N.ar   70  DT70       -0.2559
   1404  C2         8.9100  -27.3470   17.2460 C.ar   70  DT70        0.3545
   1405  O2         9.3480  -26.7310   18.2010 O.2    70  DT70       -0.2443
   1406  N3         8.1560  -26.7380   16.2720 N.ar   70  DT70       -0.1533
   1407  C4         7.6100  -27.3330   15.1530 C.ar   70  DT70        0.2804
   1408  O4         6.9560  -26.6530   14.3660 O.2    70  DT70       -0.2654
   1409  C5         7.8770  -28.7380   15.0300 C.ar   70  DT70        0.0534
   1410  C6         8.6070  -29.3550   15.9630 C.ar   70  DT70        0.0824
   1411  C7         7.3250  -29.4760   13.8470 C.3    70  DT70        0.0377
   1412  P          6.9050  -31.5470   20.8880 P.3    71  DA71        0.2141
   1413  OP1        6.0120  -32.1320   21.9040 O.3    71  DA71       -0.4373
   1414  OP2        6.3540  -31.1020   19.5900 O.2    71  DA71       -0.5172
   1415  O5'        7.5960  -30.3380   21.6230 O.3    71  DA71       -0.3114
   1416  C5'        7.6000  -30.4020   23.0010 C.3    71  DA71        0.1811
   1417  C4'        7.3840  -28.9930   23.5040 C.3    71  DA71        0.1746
   1418  O4'        8.3240  -28.0880   22.8740 O.3    71  DA71       -0.3327
   1419  C3'        6.0440  -28.3940   23.1450 C.3    71  DA71        0.1558
   1420  O3'        5.0940  -28.9290   24.0440 O.3    71  DA71       -0.3138
   1421  C2'        6.3660  -26.9240   23.4080 C.3    71  DA71        0.0865
   1422  C1'        7.7700  -26.7900   22.8320 C.3    71  DA71        0.2094
   1423  N9         7.6640  -26.3710   21.4730 N.ar   71  DA71       -0.2714
   1424  C8         7.7270  -27.1810   20.3690 C.ar   71  DA71        0.1815
   1425  N7         7.6400  -26.5330   19.2310 N.ar   71  DA71       -0.2193
   1426  C5         7.5100  -25.2070   19.6140 C.ar   71  DA71        0.1518
   1427  C6         7.3740  -24.0180   18.8750 C.ar   71  DA71        0.1919
   1428  N6         7.3480  -23.9760   17.5410 N.pl3  71  DA71       -0.1054
   1429  N1         7.2660  -22.8620   19.5640 N.ar   71  DA71       -0.2040
   1430  C2         7.2930  -22.9060   20.9010 C.ar   71  DA71        0.2016
   1431  N3         7.4170  -23.9590   21.7050 N.ar   71  DA71       -0.2048
   1432  C4         7.5210  -25.0920   20.9910 C.ar   71  DA71        0.1691
   1433  P          3.5970  -28.2680   23.9000 P.3    72  DT72        0.2141
   1434  OP1        2.6190  -28.9400   24.7860 O.3    72  DT72       -0.4373
   1435  OP2        4.0320  -28.9210   22.6400 O.2    72  DT72       -0.5172
   1436  O5'        3.0230  -26.8380   23.4960 O.3    72  DT72       -0.3114
   1437  C5'        2.7650  -25.8210   24.4850 C.3    72  DT72        0.1812
   1438  C4'        2.3300  -24.5460   23.7960 C.3    72  DT72        0.1775
   1439  O4'        3.4580  -23.8860   23.1720 O.3    72  DT72       -0.3326
   1440  C3'        1.3540  -24.8010   22.6620 C.3    72  DT72        0.1864
   1441  O3'        0.0430  -24.8700   23.1720 O.3    72  DT72       -0.2133
   1442  C2'        1.5680  -23.6160   21.7320 C.3    72  DT72        0.0895
   1443  C1'        3.0610  -23.3460   21.9240 C.3    72  DT72        0.2107
   1444  N1         3.6560  -23.9950   20.7720 N.ar   72  DT72       -0.2559
   1445  C2         3.9010  -23.2780   19.6160 C.ar   72  DT72        0.3545
   1446  O2         3.6000  -22.1050   19.4860 O.2    72  DT72       -0.2443
   1447  N3         4.5120  -23.9880   18.6110 N.ar   72  DT72       -0.1533
   1448  C4         4.8950  -25.3130   18.6450 C.ar   72  DT72        0.2804
   1449  O4         5.4360  -25.8110   17.6610 O.2    72  DT72       -0.2654
   1450  C5         4.6060  -25.9890   19.8780 C.ar   72  DT72        0.0534
   1451  C6         4.0120  -25.3230   20.8720 C.ar   72  DT72        0.0824
   1452  C7         4.9840  -27.4340   20.0130 C.3    72  DT72        0.0377
   1453  P         -1.1200  -26.3090   22.6930 P.3    73  DT73        0.3939
   1454  OP1       -1.2090  -27.5890   21.9400 O.3    73  DT73       -0.1425
   1455  OP2       -0.8040  -25.0450   21.9670 O.3    73  DT73       -0.1496
   1456  O5'       -2.4950  -26.0920   23.4630 O.3    73  DT73       -0.2926
   1457  C5'       -2.9930  -27.0820   24.3830 C.3    73  DT73        0.1828
   1458  C4'       -4.2290  -26.5680   25.0750 C.3    73  DT73        0.1747
   1459  O4'       -3.8750  -25.4920   25.9920 O.3    73  DT73       -0.3327
   1460  C3'       -5.2400  -25.9370   24.1320 C.3    73  DT73        0.1558
   1461  O3'       -6.0620  -26.9110   23.4980 O.3    73  DT73       -0.3138
   1462  C2'       -6.0000  -25.0090   25.0660 C.3    73  DT73        0.0866
   1463  C1'       -4.8480  -24.4550   25.9080 C.3    73  DT73        0.2106
   1464  N1        -4.2560  -23.1310   25.2560 N.ar   73  DT73       -0.2559
   1465  C2        -5.0500  -21.9990   25.2840 C.ar   73  DT73        0.3545
   1466  O2        -6.2030  -22.0070   25.6750 O.2    73  DT73       -0.2443
   1467  N3        -4.4420  -20.8520   24.8340 N.ar   73  DT73       -0.1533
   1468  C4        -3.1500  -20.7250   24.3690 C.ar   73  DT73        0.2804
   1469  O4        -2.7450  -19.6260   23.9990 O.2    73  DT73       -0.2654
   1470  C5        -2.3900  -21.9440   24.3700 C.ar   73  DT73        0.0534
   1471  C6        -2.9570  -23.0740   24.8020 C.ar   73  DT73        0.0824
   1472  C7        -0.9720  -21.9100   23.8810 C.3    73  DT73        0.0377
   1473  P         -6.0600  -26.9250   22.0720 P.3    74  DC74        0.2141
   1474  OP1       -6.5600  -28.1180   21.3370 O.2    74  DC74       -0.5172
   1475  OP2       -4.6770  -26.4130   21.8470 O.3    74  DC74       -0.4373
   1476  O5'       -7.1180  -25.7330   21.8660 O.3    74  DC74       -0.3114
   1477  C5'       -8.4760  -25.9640   22.2420 C.3    74  DC74        0.1811
   1478  C4'       -9.3050  -24.7020   22.2050 C.3    74  DC74        0.1746
   1479  O4'       -8.7280  -23.6740   23.0350 O.3    74  DC74       -0.3327
   1480  C3'       -9.3520  -24.0810   20.8360 C.3    74  DC74        0.1558
   1481  O3'      -10.3860  -24.6430   20.0950 O.3    74  DC74       -0.3138
   1482  C2'       -9.6670  -22.6300   21.1470 C.3    74  DC74        0.0866
   1483  C1'       -8.9060  -22.4080   22.4380 C.3    74  DC74        0.2106
   1484  N1        -7.6440  -21.7950   22.0440 N.ar   74  DC74       -0.2556
   1485  C2        -7.5950  -20.4290   21.7410 C.ar   74  DC74        0.3531
   1486  O2        -8.6490  -19.7720   21.7730 O.2    74  DC74       -0.2443
   1487  N3        -6.4050  -19.8670   21.4220 N.ar   74  DC74       -0.1739
   1488  C4        -5.2990  -20.6120   21.4000 C.ar   74  DC74        0.1759
   1489  N4        -4.1490  -20.0140   21.0790 N.pl3  74  DC74       -0.1070
   1490  C5        -5.3280  -21.9970   21.7040 C.ar   74  DC74        0.0566
   1491  C6        -6.5050  -22.5490   22.0180 C.ar   74  DC74        0.0849
   1492  P        -10.2120  -24.4070   18.5360 P.3    75  DA75        0.2141
   1493  OP1      -11.0820  -25.3590   17.8060 O.2    75  DA75       -0.5172
   1494  OP2       -8.7770  -24.7040   18.7520 O.3    75  DA75       -0.4373
   1495  O5'      -10.2110  -22.9990   17.7760 O.3    75  DA75       -0.3114
   1496  C5'      -11.4250  -22.2680   17.7050 C.3    75  DA75        0.1811
   1497  C4'      -11.1840  -20.8660   17.2160 C.3    75  DA75        0.1746
   1498  O4'      -10.5150  -20.0910   18.2430 O.3    75  DA75       -0.3327
   1499  C3'      -10.2570  -20.7340   16.0220 C.3    75  DA75        0.1558
   1500  O3'      -10.8690  -21.0580   14.7880 O.3    75  DA75       -0.3138
   1501  C2'       -9.8140  -19.2840   16.1300 C.3    75  DA75        0.0865
   1502  C1'       -9.6410  -19.1610   17.6410 C.3    75  DA75        0.2094
   1503  N9        -8.2550  -19.4340   18.0470 N.ar   75  DA75       -0.2714
   1504  C8        -7.6760  -20.6220   18.4090 C.ar   75  DA75        0.1815
   1505  N7        -6.3990  -20.5210   18.6960 N.ar   75  DA75       -0.2190
   1506  C5        -6.1220  -19.1760   18.5090 C.ar   75  DA75        0.1560
   1507  C6        -4.9420  -18.4250   18.6500 C.ar   75  DA75        0.2231
   1508  N6        -3.7740  -18.9480   19.0310 N.2    75  DA75       -0.0519
   1509  N1        -5.0050  -17.1030   18.3850 N.ar   75  DA75       -0.2004
   1510  C2        -6.1760  -16.5800   18.0050 C.ar   75  DA75        0.2018
   1511  N3        -7.3510  -17.1820   17.8370 N.ar   75  DA75       -0.2048
   1512  C4        -7.2550  -18.4940   18.1080 C.ar   75  DA75        0.1694
   1513  P        -10.1330  -22.0720   13.8590 P.3    76  DA76        0.2141
   1514  OP1      -11.2760  -22.7530   13.2160 O.2    76  DA76       -0.5172
   1515  OP2       -9.1520  -22.8290   14.6730 O.3    76  DA76       -0.4373
   1516  O5'       -9.2890  -21.2990   12.7320 O.3    76  DA76       -0.3114
   1517  C5'       -9.9260  -20.4740   11.7610 C.3    76  DA76        0.1811
   1518  C4'       -9.0400  -19.3190   11.3210 C.3    76  DA76        0.1746
   1519  O4'       -8.5450  -18.6090   12.4850 O.3    76  DA76       -0.3327
   1520  C3'       -7.7680  -19.6900   10.5680 C.3    76  DA76        0.1558
   1521  O3'       -8.0250  -19.9480    9.1950 O.3    76  DA76       -0.3138
   1522  C2'       -6.9810  -18.3980   10.7780 C.3    76  DA76        0.0865
   1523  C1'       -7.2490  -18.0960   12.2500 C.3    76  DA76        0.2094
   1524  N9        -6.2720  -18.7450   13.1160 N.ar   76  DA76       -0.2714
   1525  C8        -6.4480  -19.7930   13.9810 C.ar   76  DA76        0.1815
   1526  N7        -5.4060  -20.0310   14.7420 N.ar   76  DA76       -0.2190
   1527  C5        -4.4830  -19.0750   14.3490 C.ar   76  DA76        0.1560
   1528  C6        -3.1730  -18.7940   14.7750 C.ar   76  DA76        0.2231
   1529  N6        -2.5430  -19.4800   15.7320 N.2    76  DA76       -0.0519
   1530  N1        -2.5250  -17.7720   14.1760 N.ar   76  DA76       -0.2004
   1531  C2        -3.1570  -17.0850   13.2180 C.ar   76  DA76        0.2018
   1532  N3        -4.3850  -17.2530   12.7330 N.ar   76  DA76       -0.2048
   1533  C4        -5.0020  -18.2770   13.3480 C.ar   76  DA76        0.1694
   1534  P         -7.3760  -21.1610    8.4630 P.3    77  DT77        0.2141
   1535  OP1       -8.2560  -21.3240    7.2800 O.2    77  DT77       -0.5172
   1536  OP2       -7.1780  -22.2490    9.4470 O.3    77  DT77       -0.4373
   1537  O5'       -5.8900  -20.7910    7.9950 O.3    77  DT77       -0.3114
   1538  C5'       -5.6470  -19.6270    7.2230 C.3    77  DT77        0.1811
   1539  C4'       -4.2920  -19.0230    7.4950 C.3    77  DT77        0.1746
   1540  O4'       -4.1200  -18.7390    8.9090 O.3    77  DT77       -0.3327
   1541  C3'       -3.0790  -19.8790    7.1680 C.3    77  DT77        0.1558
   1542  O3'       -2.8060  -19.9550    5.7810 O.3    77  DT77       -0.3138
   1543  C2'       -1.9780  -19.1940    7.9720 C.3    77  DT77        0.0866
   1544  C1'       -2.7400  -18.7600    9.2260 C.3    77  DT77        0.2106
   1545  N1        -2.4200  -19.6820   10.2940 N.ar   77  DT77       -0.2559
   1546  C2        -1.1990  -19.6260   10.9400 C.ar   77  DT77        0.3545
   1547  O2        -0.3030  -18.8720   10.6020 O.2    77  DT77       -0.2443
   1548  N3        -1.0620  -20.4890   12.0000 N.ar   77  DT77       -0.1533
   1549  C4        -2.0020  -21.3820   12.4690 C.ar   77  DT77        0.2804
   1550  O4        -1.7330  -22.0930   13.4340 O.2    77  DT77       -0.2654
   1551  C5        -3.2430  -21.3820   11.7460 C.ar   77  DT77        0.0534
   1552  C6        -3.4030  -20.5520   10.7110 C.ar   77  DT77        0.0824
   1553  C7        -4.3300  -22.3200   12.1800 C.3    77  DT77        0.0377
   1554  P         -2.0710  -21.2100    5.2330 P.3    78  DT78        0.2141
   1555  OP1       -2.6620  -20.5990    4.0210 O.2    78  DT78       -0.5172
   1556  OP2       -2.2900  -22.6470    5.5130 O.3    78  DT78       -0.4373
   1557  O5'       -0.4740  -21.0630    5.2170 O.3    78  DT78       -0.3114
   1558  C5'        0.2400  -20.0220    4.5600 C.3    78  DT78        0.1812
   1559  C4'        1.7040  -20.0840    4.9230 C.3    78  DT78        0.1775
   1560  O4'        1.8270  -19.9120    6.3550 O.3    78  DT78       -0.3326
   1561  C3'        2.4100  -21.3980    4.5820 C.3    78  DT78        0.1864
   1562  O3'        3.2900  -21.2750    3.4780 O.3    78  DT78       -0.2133
   1563  C2'        3.2250  -21.7830    5.8120 C.3    78  DT78        0.0895
   1564  C1'        2.8800  -20.7110    6.8450 C.3    78  DT78        0.2107
   1565  N1         2.5930  -20.8760    8.1780 N.ar   78  DT78       -0.2559
   1566  C2         2.9640  -20.4040    9.4220 C.ar   78  DT78        0.3545
   1567  O2         3.4850  -19.3160    9.5920 O.2    78  DT78       -0.2443
   1568  N3         2.7030  -21.2560   10.4680 N.ar   78  DT78       -0.1533
   1569  C4         2.1210  -22.5050   10.3960 C.ar   78  DT78        0.2804
   1570  O4         1.9500  -23.1530   11.4260 O.2    78  DT78       -0.2654
   1571  C5         1.7650  -22.9240    9.0700 C.ar   78  DT78        0.0534
   1572  C6         2.0080  -22.1160    8.0350 C.ar   78  DT78        0.0824
   1573  C7         1.1260  -24.2690    8.8870 C.3    78  DT78        0.0377
   1574  P          2.9560  -20.9790    1.4820 P.3    79  DA79        0.3939
   1575  OP1        3.1900  -22.0580    0.4810 O.3    79  DA79       -0.1425
   1576  OP2        4.0860  -20.4120    2.2430 O.3    79  DA79       -0.1496
   1577  O5'        2.1600  -19.8090    0.7630 O.3    79  DA79       -0.2926
   1578  C5'        2.6090  -19.2850   -0.4860 C.3    79  DA79        0.1828
   1579  C4'        2.8390  -17.7960   -0.3750 C.3    79  DA79        0.1747
   1580  O4'        1.6450  -17.1950    0.1810 O.3    79  DA79       -0.3327
   1581  C3'        3.9640  -17.3390    0.5420 C.3    79  DA79        0.1558
   1582  O3'        5.2020  -17.2890   -0.1670 O.3    79  DA79       -0.3138
   1583  C2'        3.5040  -15.9350    0.9310 C.3    79  DA79        0.0865
   1584  C1'        1.9910  -16.1340    1.0470 C.3    79  DA79        0.2094
   1585  N9         1.5550  -16.3210    2.3100 N.ar   79  DA79       -0.2714
   1586  C8         1.3120  -17.5270    2.9140 C.ar   79  DA79        0.1815
   1587  N7         1.0700  -17.4360    4.2010 N.ar   79  DA79       -0.2193
   1588  C5         1.1630  -16.0770    4.4590 C.ar   79  DA79        0.1518
   1589  C6         1.0110  -15.3270    5.6390 C.ar   79  DA79        0.1919
   1590  N6         0.7210  -15.8650    6.8250 N.pl3  79  DA79       -0.1054
   1591  N1         1.1690  -13.9880    5.5540 N.ar   79  DA79       -0.2040
   1592  C2         1.4580  -13.4500    4.3640 C.ar   79  DA79        0.2016
   1593  N3         1.6240  -14.0500    3.1870 N.ar   79  DA79       -0.2048
   1594  C4         1.4620  -15.3790    3.3050 C.ar   79  DA79        0.1691
   1595  P          6.5960  -17.5300    0.7190 P.3    80  DG80        0.2141
   1596  OP1        7.6950  -17.2680   -0.2340 O.2    80  DG80       -0.5172
   1597  OP2        6.7600  -18.5810    1.7520 O.3    80  DG80       -0.4373
   1598  O5'        6.2510  -16.1700    1.4960 O.3    80  DG80       -0.3114
   1599  C5'        6.2660  -14.9040    0.8110 C.3    80  DG80        0.1811
   1600  C4'        6.1220  -13.7360    1.7830 C.3    80  DG80        0.1746
   1601  O4'        4.7980  -13.7180    2.3850 O.3    80  DG80       -0.3327
   1602  C3'        7.0680  -13.6630    2.9770 C.3    80  DG80        0.1558
   1603  O3'        8.3430  -13.1180    2.6660 O.3    80  DG80       -0.3138
   1604  C2'        6.3250  -12.7300    3.9220 C.3    80  DG80        0.0865
   1605  C1'        4.8720  -13.1210    3.6750 C.3    80  DG80        0.2094
   1606  N9         4.4630  -14.1170    4.7030 N.ar   80  DG80       -0.2708
   1607  C8         4.5320  -15.4890    4.6610 C.ar   80  DG80        0.1816
   1608  N7         4.1570  -16.0580    5.7730 N.ar   80  DG80       -0.2175
   1609  C5         3.8170  -15.0040    6.6010 C.ar   80  DG80        0.1736
   1610  C6         3.3400  -14.9960    7.9370 C.2    80  DG80        0.2989
   1611  O6         3.1160  -15.9620    8.6760 O.2    80  DG80       -0.2655
   1612  N1         3.1210  -13.7030    8.4030 N.am   80  DG80       -0.1022
   1613  C2         3.3350  -12.5580    7.6730 C.1    80  DG80        0.1576
   1614  N2         3.0660  -11.4020    8.2930 N.4    80  DG80        0.0073
   1615  N3         3.7790  -12.5500    6.4310 N.2    80  DG80       -0.1580
   1616  C4         3.9990  -13.7950    5.9570 C.ar   80  DG80        0.1801
   1617  P          9.6260  -13.2880    3.7680 P.3    81  DA81        0.2141
   1618  OP1       10.8790  -12.7410    3.1470 O.2    81  DA81       -0.5172
   1619  OP2        9.3980  -14.7530    3.8360 O.3    81  DA81       -0.4373
   1620  O5'        9.4240  -12.6440    5.2120 O.3    81  DA81       -0.3114
   1621  C5'        9.4560  -11.2330    5.3510 C.3    81  DA81        0.1811
   1622  C4'        8.7320  -10.8080    6.5880 C.3    81  DA81        0.1746
   1623  O4'        7.4120  -11.3930    6.6030 O.3    81  DA81       -0.3327
   1624  C3'        9.3540  -11.2310    7.8960 C.3    81  DA81        0.1558
   1625  O3'       10.3190  -10.2570    8.2430 O.3    81  DA81       -0.3138
   1626  C2'        8.1610  -11.1730    8.8390 C.3    81  DA81        0.0865
   1627  C1'        7.0110  -11.6250    7.9380 C.3    81  DA81        0.2094
   1628  N9         6.6950  -13.1020    8.1050 N.ar   81  DA81       -0.2714
   1629  C8         6.8740  -14.1660    7.2590 C.ar   81  DA81        0.1815
   1630  N7         6.4830  -15.3130    7.7620 N.ar   81  DA81       -0.2193
   1631  C5         6.0170  -14.9800    9.0240 C.ar   81  DA81        0.1518
   1632  C6         5.4660  -15.7520   10.0620 C.ar   81  DA81        0.1919
   1633  N6         5.2840  -17.0720    9.9860 N.pl3  81  DA81       -0.1054
   1634  N1         5.1040  -15.1110   11.1940 N.ar   81  DA81       -0.2040
   1635  C2         5.2860  -13.7870   11.2690 C.ar   81  DA81        0.2016
   1636  N3         5.7920  -12.9560   10.3620 N.ar   81  DA81       -0.2048
   1637  C4         6.1420  -13.6230    9.2500 C.ar   81  DA81        0.1691
   1638  P         11.3510  -10.4200    9.5030 P.3    82  DT82        0.2141
   1639  OP1       12.1610   -9.2990   10.0240 O.3    82  DT82       -0.4373
   1640  OP2       11.9670  -11.7570    9.3590 O.2    82  DT82       -0.5172
   1641  O5'       10.0790  -10.6610   10.4510 O.3    82  DT82       -0.3114
   1642  C5'        9.3700   -9.6020   11.0810 C.3    82  DT82        0.1811
   1643  C4'        8.7770  -10.0620   12.3900 C.3    82  DT82        0.1746
   1644  O4'        7.7340  -11.0370   12.1370 O.3    82  DT82       -0.3327
   1645  C3'        9.7400  -10.7700   13.3290 C.3    82  DT82        0.1558
   1646  O3'       10.4530   -9.8650   14.1470 O.3    82  DT82       -0.3138
   1647  C2'        8.8500  -11.7100   14.1300 C.3    82  DT82        0.0866
   1648  C1'        7.7320  -12.0330   13.1370 C.3    82  DT82        0.2106
   1649  N1         7.8720  -13.2850   12.5330 N.ar   82  DT82       -0.2559
   1650  C2         7.2470  -14.3650   13.1270 C.ar   82  DT82        0.3544
   1651  O2         6.4930  -14.2560   14.0770 O.3    82  DT82       -0.2458
   1652  N3         7.5390  -15.5860   12.5670 N.ar   82  DT82       -0.1533
   1653  C4         8.3740  -15.8290   11.4970 C.ar   82  DT82        0.2804
   1654  O4         8.5370  -16.9820   11.1060 O.2    82  DT82       -0.2654
   1655  C5         8.9860  -14.6570   10.9360 C.ar   82  DT82        0.0534
   1656  C6         8.7190  -13.4580   11.4610 C.ar   82  DT82        0.0824
   1657  C7         9.9130  -14.8170    9.7680 C.3    82  DT82        0.0377
   1658  P         11.9500  -10.2210   14.5460 P.3    83  DA83        0.2141
   1659  OP1       12.5650   -9.0330   15.1800 O.3    83  DA83       -0.4373
   1660  OP2       12.6730  -11.0330   13.5440 O.2    83  DA83       -0.5172
   1661  O5'       11.5540  -11.2740   15.6850 O.3    83  DA83       -0.3114
   1662  C5'       11.2510  -10.8310   16.9990 C.3    83  DA83        0.1811
   1663  C4'       11.5930  -11.8640   18.0470 C.3    83  DA83        0.1746
   1664  O4'       10.8280  -13.0750   17.8200 O.3    83  DA83       -0.3327
   1665  C3'       13.0350  -12.3440   18.0870 C.3    83  DA83        0.1558
   1666  O3'       13.9060  -11.4510   18.7580 O.3    83  DA83       -0.3138
   1667  C2'       12.9020  -13.6920   18.7880 C.3    83  DA83        0.0865
   1668  C1'       11.5890  -14.2010   18.1990 C.3    83  DA83        0.2094
   1669  N9        11.8200  -15.0710   16.9410 N.ar   83  DA83       -0.2714
   1670  C8        11.7000  -14.8210   15.5990 C.ar   83  DA83        0.1815
   1671  N7        12.0690  -15.8260   14.8390 N.ar   83  DA83       -0.2193
   1672  C5        12.4570  -16.8010   15.7450 C.ar   83  DA83        0.1518
   1673  C6        12.9500  -18.1060   15.5750 C.ar   83  DA83        0.1919
   1674  N6        13.1430  -18.6750   14.3820 N.pl3  83  DA83       -0.1054
   1675  N1        13.2420  -18.8150   16.6860 N.ar   83  DA83       -0.2040
   1676  C2        13.0480  -18.2450   17.8810 C.ar   83  DA83        0.2016
   1677  N3        12.5900  -17.0290   18.1680 N.ar   83  DA83       -0.2048
   1678  C4        12.3100  -16.3500   17.0430 C.ar   83  DA83        0.1691
   1679  P         14.9110  -10.8720   17.9720 P.3    84  DG84        0.2141
   1680  OP1       15.6600  -10.0660   18.9840 O.3    84  DG84       -0.4373
   1681  OP2       15.0900  -10.7210   16.4900 O.2    84  DG84       -0.5172
   1682  O5'       15.2830  -12.3690   18.2990 O.3    84  DG84       -0.3114
   1683  C5'       15.4210  -12.5280   19.6780 C.3    84  DG84        0.1811
   1684  C4'       15.9110  -13.9260   19.8790 C.3    84  DG84        0.1746
   1685  O4'       15.0820  -14.8640   19.1580 O.3    84  DG84       -0.3327
   1686  C3'       17.1880  -14.0680   19.1350 C.3    84  DG84        0.1558
   1687  O3'       18.2080  -13.4190   19.8430 O.3    84  DG84       -0.3138
   1688  C2'       17.3050  -15.5490   19.1410 C.3    84  DG84        0.0865
   1689  C1'       15.8830  -15.9810   18.8990 C.3    84  DG84        0.2094
   1690  N9        15.4770  -16.2610   17.4330 N.ar   84  DG84       -0.2713
   1691  C8        15.0020  -15.4070   16.4680 C.ar   84  DG84        0.1816
   1692  N7        15.0010  -15.9300   15.2720 N.ar   84  DG84       -0.2173
   1693  C5        15.5020  -17.2050   15.4550 C.ar   84  DG84        0.1748
   1694  C6        15.7380  -18.2470   14.5210 C.ar   84  DG84        0.3023
   1695  O6        15.5380  -18.2410   13.3000 O.2    84  DG84       -0.2633
   1696  N1        16.2590  -19.3850   15.1310 N.ar   84  DG84       -0.1709
   1697  C2        16.5200  -19.5040   16.4750 C.ar   84  DG84        0.2606
   1698  N2        17.0210  -20.6800   16.8780 N.pl3  84  DG84       -0.0859
   1699  N3        16.3070  -18.5450   17.3540 N.ar   84  DG84       -0.1918
   1700  C4        15.8030  -17.4300   16.7840 C.ar   84  DG84        0.1722
   1701  P         19.3740  -13.3960   19.0760 P.3    85  DT85        0.2141
   1702  OP1       19.7890  -12.2500   19.9260 O.3    85  DT85       -0.4373
   1703  OP2       18.5370  -13.1500   17.8680 O.2    85  DT85       -0.5172
   1704  O5'       20.6580  -14.2540   18.6860 O.3    85  DT85       -0.3114
   1705  C5'       21.3780  -14.9640   19.6790 C.3    85  DT85        0.1811
   1706  C4'       21.8740  -16.2740   19.1200 C.3    85  DT85        0.1746
   1707  O4'       20.7890  -16.9530   18.4350 O.3    85  DT85       -0.3327
   1708  C3'       22.9780  -16.2020   18.0800 C.3    85  DT85        0.1558
   1709  O3'       24.2690  -16.0930   18.6900 O.3    85  DT85       -0.3138
   1710  C2'       22.8210  -17.5410   17.3630 C.3    85  DT85        0.0866
   1711  C1'       21.3110  -17.7570   17.3940 C.3    85  DT85        0.2106
   1712  N1        20.5820  -17.5610   16.2110 N.ar   85  DT85       -0.2559
   1713  C2        20.4610  -18.5520   15.2550 C.ar   85  DT85        0.3545
   1714  O2        21.0130  -19.6340   15.3470 O.2    85  DT85       -0.2443
   1715  N3        19.6690  -18.2280   14.1800 N.ar   85  DT85       -0.1533
   1716  C4        18.9990  -17.0410   13.9710 C.ar   85  DT85        0.2804
   1717  O4        18.3230  -16.8980   12.9550 O.2    85  DT85       -0.2654
   1718  C5        19.1750  -16.0630   15.0070 C.ar   85  DT85        0.0534
   1719  C6        19.9400  -16.3510   16.0630 C.ar   85  DT85        0.0824
   1720  C7        18.4870  -14.7370   14.8710 C.3    85  DT85        0.0377
   1721  P         25.1390  -14.8200   18.0370 P.3    86  DA86        0.2141
   1722  OP1       26.3270  -15.3530   18.7490 O.3    86  DA86       -0.4373
   1723  OP2       25.0390  -13.3720   17.7620 O.2    86  DA86       -0.5172
   1724  O5'       25.0040  -15.5630   16.6370 O.3    86  DA86       -0.3114
   1725  C5'       25.4530  -16.9140   16.4560 C.3    86  DA86        0.1811
   1726  C4'       26.0130  -17.0900   15.0660 C.3    86  DA86        0.1746
   1727  O4'       26.6560  -18.3830   14.9750 O.3    86  DA86       -0.3327
   1728  C3'       25.0050  -17.0920   13.9290 C.3    86  DA86        0.1558
   1729  O3'       24.6570  -15.7910   13.4780 O.3    86  DA86       -0.3138
   1730  C2'       25.7270  -17.8800   12.8510 C.3    86  DA86        0.0865
   1731  C1'       26.4640  -18.9260   13.6830 C.3    86  DA86        0.2094
   1732  N9        25.8640  -20.2070   14.1420 N.ar   86  DA86       -0.2714
   1733  C8        25.1990  -20.4640   15.3120 C.ar   86  DA86        0.1815
   1734  N7        24.6980  -21.6750   15.3800 N.ar   86  DA86       -0.2193
   1735  C5        25.0580  -22.2510   14.1730 C.ar   86  DA86        0.1518
   1736  C6        24.8290  -23.5270   13.6280 C.ar   86  DA86        0.1919
   1737  N6        24.1540  -24.4900   14.2600 N.pl3  86  DA86       -0.1054
   1738  N1        25.3240  -23.7820   12.3980 N.ar   86  DA86       -0.2040
   1739  C2        26.0010  -22.8160   11.7660 C.ar   86  DA86        0.2016
   1740  N3        26.2820  -21.5810   12.1740 N.ar   86  DA86       -0.2048
   1741  C4        25.7760  -21.3590   13.3990 C.ar   86  DA86        0.1691
   1742  P         23.0820  -15.4840   13.1070 P.3    87  DA87        0.2141
   1743  OP1       22.7310  -14.0700   13.4130 O.2    87  DA87       -0.5172
   1744  OP2       22.3020  -16.5900   13.7230 O.3    87  DA87       -0.4373
   1745  O5'       23.1350  -15.7110   11.5410 O.3    87  DA87       -0.3114
   1746  C5'       24.2980  -15.3430   10.8270 C.3    87  DA87        0.1811
   1747  C4'       24.6980  -16.4420    9.8980 C.3    87  DA87        0.1746
   1748  O4'       25.2910  -17.5380   10.6260 O.3    87  DA87       -0.3327
   1749  C3'       23.5320  -17.1170    9.2240 C.3    87  DA87        0.1558
   1750  O3'       23.0450  -16.3370    8.1670 O.3    87  DA87       -0.3138
   1751  C2'       24.1530  -18.4050    8.7330 C.3    87  DA87        0.0865
   1752  C1'       25.0790  -18.7390    9.9030 C.3    87  DA87        0.2094
   1753  N9        24.4390  -19.5570   10.8930 N.ar   87  DA87       -0.2714
   1754  C8        24.0150  -19.1220   12.1210 C.ar   87  DA87        0.1815
   1755  N7        23.3830  -20.0380   12.8170 N.ar   87  DA87       -0.2193
   1756  C5        23.3910  -21.1490   11.9880 C.ar   87  DA87        0.1518
   1757  C6        22.8800  -22.4490   12.1440 C.ar   87  DA87        0.1919
   1758  N6        22.2350  -22.8640   13.2370 N.pl3  87  DA87       -0.1054
   1759  N1        23.0570  -23.3180   11.1260 N.ar   87  DA87       -0.2040
   1760  C2        23.7050  -22.9020   10.0320 C.ar   87  DA87        0.2016
   1761  N3        24.2310  -21.7080    9.7690 N.ar   87  DA87       -0.2048
   1762  C4        24.0370  -20.8670   10.7990 C.ar   87  DA87        0.1691
   1763  P         21.6080  -16.0460    8.2240 P.3    88  DG88        0.2141
   1764  OP1       21.0830  -15.1410    7.1710 O.2    88  DG88       -0.5172
   1765  OP2       21.0550  -15.9700    9.6000 O.3    88  DG88       -0.4373
   1766  O5'       21.4260  -17.5320    7.6980 O.3    88  DG88       -0.3114
   1767  C5'       21.7720  -17.8570    6.3660 C.3    88  DG88        0.1811
   1768  C4'       21.2260  -19.2070    6.0000 C.3    88  DG88        0.1746
   1769  O4'       21.8760  -20.2220    6.8100 O.3    88  DG88       -0.3327
   1770  C3'       19.7560  -19.3910    6.3070 C.3    88  DG88        0.1558
   1771  O3'       18.9380  -18.8490    5.2840 O.3    88  DG88       -0.3138
   1772  C2'       19.6380  -20.9010    6.4090 C.3    88  DG88        0.0865
   1773  C1'       20.9550  -21.2610    7.0980 C.3    88  DG88        0.2094
   1774  N9        20.8380  -21.4170    8.5540 N.ar   88  DG88       -0.2713
   1775  C8        21.1290  -20.5000    9.5340 C.ar   88  DG88        0.1816
   1776  N7        20.9200  -20.9520   10.7410 N.ar   88  DG88       -0.2173
   1777  C5        20.4670  -22.2440   10.5500 C.ar   88  DG88        0.1748
   1778  C6        20.0750  -23.2330   11.4880 C.ar   88  DG88        0.3023
   1779  O6        20.0540  -23.1520   12.7230 O.2    88  DG88       -0.2633
   1780  N1        19.6770  -24.4130   10.8650 N.ar   88  DG88       -0.1709
   1781  C2        19.6600  -24.6150    9.5060 C.ar   88  DG88        0.2606
   1782  N2        19.2460  -25.8200    9.0930 N.pl3  88  DG88       -0.0859
   1783  N3        20.0200  -23.7050    8.6220 N.ar   88  DG88       -0.1918
   1784  C4        20.4090  -22.5510    9.2040 C.ar   88  DG88        0.1722
   1785  P         17.4240  -18.1260    5.6720 P.3    89  DT89        0.2141
   1786  OP1       16.7360  -17.4360    4.5570 O.2    89  DT89       -0.5172
   1787  OP2       17.3160  -17.5930    7.0460 O.3    89  DT89       -0.4373
   1788  O5'       16.8840  -19.6270    5.8150 O.3    89  DT89       -0.3114
   1789  C5'       17.0870  -20.6170    4.8140 C.3    89  DT89        0.1811
   1790  C4'       16.5790  -21.9590    5.2790 C.3    89  DT89        0.1746
   1791  O4'       17.3820  -22.4380    6.3890 O.3    89  DT89       -0.3327
   1792  C3'       15.1540  -21.9630    5.8030 C.3    89  DT89        0.1558
   1793  O3'       14.2100  -22.1140    4.7620 O.3    89  DT89       -0.3138
   1794  C2'       15.1380  -23.1230    6.7850 C.3    89  DT89        0.0866
   1795  C1'       16.5610  -23.0950    7.3360 C.3    89  DT89        0.2106
   1796  N1        16.5820  -22.3860    8.6700 N.ar   89  DT89       -0.2559
   1797  C2        16.2530  -23.1130    9.7990 C.ar   89  DT89        0.3545
   1798  O2        15.9930  -24.3030    9.7700 O.2    89  DT89       -0.2443
   1799  N3        16.2380  -22.3940   10.9690 N.ar   89  DT89       -0.1533
   1800  C4        16.5120  -21.0510   11.1210 C.ar   89  DT89        0.2804
   1801  O4        16.4580  -20.5450   12.2390 O.2    89  DT89       -0.2654
   1802  C5        16.8440  -20.3650    9.9030 C.ar   89  DT89        0.0534
   1803  C6        16.8660  -21.0410    8.7510 C.ar   89  DT89        0.0824
   1804  C7        17.1580  -18.8990    9.9630 C.3    89  DT89        0.0377
   1805  P         12.6780  -21.5690    4.9040 P.3    90  DG90        0.2141
   1806  OP1       11.9120  -21.6030    3.6370 O.2    90  DG90       -0.5172
   1807  OP2       12.8660  -20.2910    5.6310 O.3    90  DG90       -0.4373
   1808  O5'       11.9920  -22.5550    5.9670 O.3    90  DG90       -0.3114
   1809  C5'       11.4980  -23.8260    5.5580 C.3    90  DG90        0.1811
   1810  C4'       11.2760  -24.7620    6.7230 C.3    90  DG90        0.1762
   1811  O4'       12.4080  -24.6800    7.6250 O.3    90  DG90       -0.3206
   1812  C3'       10.0510  -24.5000    7.5920 C.3    90  DG90        0.1576
   1813  O3'        8.8800  -25.1200    7.0720 O.3    90  DG90       -0.3138
   1814  C2'       10.4710  -25.0660    8.9430 C.3    90  DG90        0.1048
   1815  C1'       11.9820  -24.8270    8.9600 C.3    90  DG90        0.2519
   1816  N9        12.3300  -23.6140    9.7120 N.ar   90  DG90       -0.2581
   1817  C8        12.7810  -22.4160    9.2120 C.ar   90  DG90        0.1828
   1818  N7        13.0240  -21.5300   10.1380 N.ar   90  DG90       -0.2173
   1819  C5        12.7190  -22.1770   11.3210 C.ar   90  DG90        0.1748
   1820  C6        12.7810  -21.7230   12.6640 C.ar   90  DG90        0.3023
   1821  O6        13.1350  -20.6140   13.0820 O.2    90  DG90       -0.2633
   1822  N1        12.3780  -22.7060   13.5640 N.ar   90  DG90       -0.1709
   1823  C2        11.9650  -23.9690   13.2140 C.ar   90  DG90        0.2606
   1824  N2        11.6160  -24.7780   14.2230 N.pl3  90  DG90       -0.0859
   1825  N3        11.9010  -24.4040   11.9710 N.ar   90  DG90       -0.1918
   1826  C4        12.2880  -23.4670   11.0790 C.ar   90  DG90        0.1734
   1827  P          7.3170  -24.4570    7.0170 P.3    91  DC91        0.2141
   1828  OP1        6.2480  -25.0670    6.1970 O.2    91  DC91       -0.5172
   1829  OP2        7.5070  -22.9890    7.0190 O.3    91  DC91       -0.4373
   1830  O5'        7.1140  -24.8510    8.5610 O.3    91  DC91       -0.3114
   1831  C5'        7.0300  -26.2250    8.9260 C.3    91  DC91        0.1811
   1832  C4'        7.1000  -26.4620   10.4170 C.3    91  DC91        0.1746
   1833  O4'        8.3440  -25.9530   10.9630 O.3    91  DC91       -0.3327
   1834  C3'        6.0460  -25.7680   11.2560 C.3    91  DC91        0.1558
   1835  O3'        4.7860  -26.4040   11.2030 O.3    91  DC91       -0.3138
   1836  C2'        6.6770  -25.7700   12.6390 C.3    91  DC91        0.0866
   1837  C1'        8.1250  -25.4740   12.2740 C.3    91  DC91        0.2106
   1838  N1         8.3430  -24.0180   12.3000 N.ar   91  DC91       -0.2556
   1839  C2         8.5940  -23.3850   13.5220 C.ar   91  DC91        0.3531
   1840  O2         8.4670  -24.0390   14.5710 O.2    91  DC91       -0.2443
   1841  N3         8.9670  -22.0830   13.5260 N.ar   91  DC91       -0.1739
   1842  C4         9.0900  -21.4210   12.3750 C.ar   91  DC91        0.1759
   1843  N4         9.4600  -20.1390   12.4290 N.pl3  91  DC91       -0.1070
   1844  C5         8.8400  -22.0440   11.1260 C.ar   91  DC91        0.0566
   1845  C6         8.4720  -23.3300   11.1260 C.ar   91  DC91        0.0849
   1846  P          3.4980  -25.4840   11.0730 P.3    92  DA92        0.2141
   1847  OP1        2.4470  -26.4730   10.6830 O.3    92  DA92       -0.4373
   1848  OP2        3.6980  -24.2450   10.2630 O.2    92  DA92       -0.5172
   1849  O5'        3.2150  -25.0390   12.5710 O.3    92  DA92       -0.3114
   1850  C5'        3.1510  -26.0160   13.6160 C.3    92  DA92        0.1811
   1851  C4'        3.2650  -25.3450   14.9560 C.3    92  DA92        0.1744
   1852  O4'        4.5710  -24.7300   15.0980 O.3    92  DA92       -0.3349
   1853  C3'        2.2990  -24.1980   15.1850 C.3    92  DA92        0.1555
   1854  O3'        1.0200  -24.6480   15.5580 O.3    92  DA92       -0.3139
   1855  C2'        2.9910  -23.4040   16.2820 C.3    92  DA92        0.0835
   1856  C1'        4.4540  -23.5500   15.8790 C.3    92  DA92        0.1974
   1857  N9         4.8690  -22.3960   15.0750 N.pl3  92  DA92       -0.2458
   1858  C8         5.1100  -22.4410   13.7270 C.2    92  DA92        0.1669
   1859  N7         5.6720  -21.3550   13.2530 N.2    92  DA92       -0.2210
   1860  C5         5.8090  -20.5400   14.3660 C.2    92  DA92        0.1870
   1861  C6         6.3360  -19.2470   14.5330 C.2    92  DA92        0.3957
   1862  N6         6.8450  -18.5220   13.5340 N.pl3  92  DA92        0.2122
   1863  N1         6.3220  -18.7200   15.7760 N.pl3  92  DA92       -0.0670
   1864  C2         5.8120  -19.4480   16.7760 C.2    92  DA92        0.2886
   1865  N3         5.2890  -20.6720   16.7440 N.2    92  DA92       -0.2053
   1866  C4         5.3170  -21.1670   15.4950 C.3    92  DA92        0.2330
   1867  P         -0.2680  -23.7280   15.2830 P.3    93  DA93        0.2141
   1868  OP1       -1.5970  -24.2990   15.5920 O.3    93  DA93       -0.4373
   1869  OP2        0.1090  -23.4230   13.8860 O.2    93  DA93       -0.5172
   1870  O5'       -0.0930  -22.4190   16.1790 O.3    93  DA93       -0.3114
   1871  C5'       -0.2180  -22.5270   17.5910 C.3    93  DA93        0.1811
   1872  C4'        0.5570  -21.4110   18.2650 C.3    93  DA93        0.1748
   1873  O4'        1.9420  -21.4250   17.8440 O.3    93  DA93       -0.3327
   1874  C3'        0.0790  -20.0280   17.8720 C.3    93  DA93        0.1612
   1875  O3'       -1.0540  -19.6550   18.6250 O.3    93  DA93       -0.2631
   1876  C2'        1.3040  -19.1620   18.1530 C.3    93  DA93        0.0867
   1877  C1'        2.4200  -20.0980   17.6990 C.3    93  DA93        0.2103
   1878  N9         2.7380  -19.9350   16.2830 N.ar   93  DA93       -0.2596
   1879  C8         2.2560  -20.6740   15.2340 C.ar   93  DA93        0.1822
   1880  N7         2.7470  -20.3220   14.0690 N.ar   93  DA93       -0.2203
   1881  C5         3.6100  -19.2810   14.3740 C.ar   93  DA93        0.1675
   1882  C6         4.4410  -18.4760   13.5740 C.3    93  DA93        0.3159
   1883  N6         4.5400  -18.6040   12.2490 N.3    93  DA93       -0.0808
   1884  N1         5.1740  -17.5250   14.1920 N.2    93  DA93       -0.0666
   1885  C2         5.0740  -17.3990   15.5200 C.cat  93  DA93        0.4537
   1886  N3         4.3310  -18.0950   16.3770 N.pl3  93  DA93       -0.0118
   1887  C4         3.6140  -19.0300   15.7330 C.ar   93  DA93        0.2342
   1888  P         -2.1320  -18.9150   17.8030 P.3    94  DT94        0.5404
   1889  OP1       -3.2270  -18.5370   18.7220 O.2    94  DT94       -0.2903
   1890  OP2       -2.4480  -19.4440   16.4560 O.2    94  DT94       -0.2903
   1891  O5'       -1.1480  -17.6670   17.6440 O.3    94  DT94       -0.2606
   1892  C5'       -0.5620  -17.1040   18.8010 C.3    94  DT94        0.1867
   1893  C4'        0.0750  -15.7830   18.4360 C.3    94  DT94        0.1748
   1894  O4'        1.4080  -16.0130   17.9190 O.3    94  DT94       -0.3327
   1895  C3'       -0.6470  -15.0490   17.3170 C.3    94  DT94        0.1558
   1896  O3'       -1.7520  -14.3130   17.8290 O.3    94  DT94       -0.3138
   1897  C2'        0.4680  -14.1610   16.7670 C.3    94  DT94        0.0866
   1898  C1'        1.6660  -15.1050   16.8600 C.3    94  DT94        0.2105
   1899  N1         1.8840  -15.9250   15.6250 N.ar   94  DT94       -0.2591
   1900  C2         2.5490  -15.3140   14.5780 C.ar   94  DT94        0.3074
   1901  O2         3.0700  -14.2160   14.6720 O.3    94  DT94       -0.4162
   1902  N3         2.5820  -16.0360   13.4100 N.ar   94  DT94       -0.1567
   1903  C4         2.0300  -17.2800   13.1880 C.ar   94  DT94        0.2803
   1904  O4         2.1430  -17.8040   12.0830 O.2    94  DT94       -0.2654
   1905  C5         1.3560  -17.8480   14.3220 C.ar   94  DT94        0.0534
   1906  C6         1.3090  -17.1670   15.4700 C.ar   94  DT94        0.0823
   1907  C7         0.7210  -19.2000   14.1800 C.3    94  DT94        0.0377
   1908  P         -2.6550  -13.3840   16.8590 P.3    95  DC95        0.2141
   1909  OP1       -3.5540  -12.4970   17.6590 O.3    95  DC95       -0.4373
   1910  OP2       -3.0800  -14.5670   16.0310 O.2    95  DC95       -0.5172
   1911  O5'       -1.6880  -12.5010   15.9210 O.3    95  DC95       -0.3113
   1912  C5'       -1.3370  -11.2110   16.4260 C.3    95  DC95        0.1837
   1913  C4'       -0.2830  -10.5100   15.6090 C.3    95  DC95        0.2014
   1914  O4'        0.7680  -11.4460   15.3320 O.3    95  DC95       -0.3300
   1915  C3'       -0.6430  -10.1070   14.2080 C.3    95  DC95        0.2569
   1916  O3'       -1.2750   -8.8920   14.2320 O.3    95  DC95       -0.1920
   1917  C2'        0.6970   -9.9080   13.5580 C.3    95  DC95        0.1160
   1918  C1'        1.3360  -11.1900   14.0560 C.3    95  DC95        0.2133
   1919  N1         1.1510  -12.1750   13.0950 N.ar   95  DC95       -0.2556
   1920  C2         1.8720  -12.2470   11.8970 C.ar   95  DC95        0.3531
   1921  O2         2.6150  -11.2990   11.5890 O.2    95  DC95       -0.2443
   1922  N3         1.7400  -13.3430   11.1130 N.ar   95  DC95       -0.1739
   1923  C4         0.9310  -14.3350   11.4840 C.ar   95  DC95        0.1759
   1924  N4         0.8320  -15.3960   10.6790 N.pl3  95  DC95       -0.1070
   1925  C5         0.1910  -14.2820   12.6940 C.ar   95  DC95        0.0566
   1926  C6         0.3250  -13.1980   13.4650 C.ar   95  DC95        0.0849
   1927  P         -3.2170   -9.6020   12.6870 P.3    96  DT96        0.3681
   1928  OP1       -2.2710  -10.3100   13.5910 O.3    96  DT96       -0.2704
   1929  OP2       -4.2320   -8.6770   13.2620 O.3    96  DT96       -0.1446
   1930  O5'       -2.3950   -8.7940   11.5860 O.3    96  DT96       -0.2940
   1931  C5'       -1.4080   -7.8550   11.9820 C.3    96  DT96        0.1828
   1932  C4'       -0.4780   -7.5350   10.8360 C.3    96  DT96        0.1774
   1933  O4'       -1.1110   -6.5730    9.9440 O.3    96  DT96       -0.3330
   1934  C3'        0.7860   -6.8360   11.3080 C.3    96  DT96        0.1858
   1935  O3'        1.7630   -7.7740   11.7310 O.3    96  DT96       -0.2203
   1936  C2'        1.1890   -6.0010   10.1000 C.3    96  DT96        0.0887
   1937  C1'       -0.1790   -5.5660    9.5740 C.3    96  DT96        0.2243
   1938  N1         0.4020  -10.3850    9.4240 N.2    96  DT96       -0.1622
   1939  C2         0.9600  -11.2200    8.4750 C.1    96  DT96        0.2188
   1940  O2         1.7640  -10.8370    7.6440 O.2    96  DT96       -0.2745
   1941  N3         0.5420  -12.5280    8.5340 N.am   96  DT96       -0.0895
   1942  C4        -0.3590  -13.0710    9.4260 C.2    96  DT96        0.2767
   1943  O4        -0.6350  -14.2660    9.3540 O.2    96  DT96       -0.2676
   1944  C5        -0.8950  -12.1400   10.3780 C.2    96  DT96        0.0541
   1945  C6        -0.5050  -10.8630   10.3440 C.2    96  DT96        0.1126
   1946  C7        -1.8850  -12.6350   11.3910 C.3    96  DT96        0.0376
@<TRIPOS>BOND
     1   526   525    2
     2   529   530    1
     3   529   528    1
     4   546   545    2
     5   513   525    1
     6   513   512    1
     7   525   528    1
     8   525   527    1
     9   530   531    1
    10   530   532    1
    11   533   545    1
    12   533   532    1
    13   509   510    1
    14   509   508    1
    15   510   512    1
    16   510   511    1
    17   506   505    2
    18   531   535    1
    19   545   547    1
    20   545   548    1
    21   512   514    1
    22   532   534    1
    23   549   548    1
    24   549   550    1
    25   514   515    1
    26   508   505    1
    27   511   515    1
    28   534   535    1
    29   505   492    1
    30   505   507    1
    31   535   536    1
    32   492   491    1
    33   515   516    1
    34   550   551    1
    35   550   552    1
    36   551   555    1
    37   536   543   ar
    38   536   537   ar
    39   491   493    1
    40   491   489    1
    41   543   542   ar
    42   493   494    1
    43   489   488    1
    44   489   490    1
    45   553   552    1
    46   553   566    1
    47   552   554    1
    48   516   523   ar
    49   516   517   ar
    50   710   711    1
    51   710   709    1
    52   538   537    2
    53   711   712    1
    54   711   713    1
    55   488   487    1
    56   537   539   ar
    57   690   691    1
    58   690   689    1
    59   690   692    1
    60   523   522   ar
    61   518   517    2
    62   555   554    1
    63   555   556    1
    64   542   544    1
    65   542   540   ar
    66   712   716    1
    67   693   692    1
    68   693   706    1
    69   557   556   ar
    70   557   558   ar
    71   566   567    2
    72   566   568    1
    73   566   569    1
    74   691   695    1
    75   714   713    1
    76   714   725    1
    77   517   519   ar
    78   494   490    1
    79   494   495    1
    80   689   688    1
    81   694   692    1
    82   694   695    1
    83   707   706    2
    84   556   565   ar
    85   713   715    1
    86   695   696    1
    87   716   715    1
    88   716   717    1
    89   539   540   ar
    90   709   706    1
    91   706   708    1
    92   487   484    1
    93   726   725    2
    94   558   559   ar
    95   503   502   ar
    96   503   504   ar
    97   729   730    1
    98   729   728    1
    99   540   541    1
   100   522   524    1
   101   522   520   ar
   102   569   570    1
   103   485   484    2
   104   495   504   ar
   105   495   496   ar
   106   725   728    1
   107   725   727    1
   108   678   677    2
   109   731   730    1
   110   731   735    1
   111   519   520   ar
   112   519   541    1
   113   570   571    1
   114   730   732    1
   115   686   685    2
   116   502   501   ar
   117   688   685    1
   118   504   498   ar
   119   674   675    1
   120   674   672    1
   121   484   473    1
   122   484   486    1
   123   565   559   ar
   124   565   564   ar
   125   696   705   ar
   126   696   697   ar
   127   520   521    2
   128   717   724   ar
   129   717   718   ar
   130   559   560   ar
   131   704   705   ar
   132   704   703   ar
   133   673   685    1
   134   673   672    1
   135   496   497   ar
   136   719   718    2
   137   685   687    1
   138   675   676    1
   139   675   671    1
   140   473   472    1
   141   724   723   ar
   142   677   676   ar
   143   677   679   ar
   144   735   736    1
   145   735   734    1
   146   705   699   ar
   147   564   563   ar
   148   672   670    1
   149   501   499   ar
   150   478   477    2
   151   718   720   ar
   152   474   472    1
   153   474   475    1
   154   733   732    1
   155   733   744    1
   156   498   497   ar
   157   498   499   ar
   158   732   734    1
   159   697   698   ar
   160   571   572    1
   161   571   573    1
   162   703   702   ar
   163   670   671    1
   164   670   669    1
   165   661   662   ar
   166   661   659   ar
   167   676   683   ar
   168   662   663   ar
   169   583   584    1
   170   583   581    2
   171   572   576    1
   172   736   743   ar
   173   736   737   ar
   174   679   680   ar
   175   560   561    1
   176   560   562   ar
   177   584   577    1
   178   586   585    1
   179   586   574    1
   180   743   742   ar
   181   472   470    1
   182   745   744    2
   183   499   500    1
   184   585   587    1
   185   585   588    1
   186   723   721   ar
   187   573   574    1
   188   573   575    1
   189   477   476   ar
   190   477   479   ar
   191   563   562   ar
   192   699   698   ar
   193   699   700   ar
   194   744   746    1
   195   744   747    1
   196   475   476    1
   197   475   471    1
   198   720   721   ar
   199   738   737    2
   200   742   740   ar
   201   660   659    1
   202   737   739   ar
   203   659   658   ar
   204   663   664   ar
   205   582   581    1
   206   702   700   ar
   207   470   471    1
   208   470   469    1
   209   581   580    1
   210   721   722    1
   211   577   576    1
   212   577   578    1
   213   476   483   ar
   214   669   668    1
   215   576   575    1
   216   683   682   ar
   217   479   480   ar
   218   680   681    2
   219   680   682   ar
   220   700   701    1
   221   748   747    1
   222   748   749    1
   223   588   589    1
   224   739   740   ar
   225   740   741    1
   226   682   684    1
   227   664   658   ar
   228   664   655   ar
   229   469   468    1
   230   668   665    1
   231   658   657   ar
   232   580   578    2
   233   578   579    1
   234   750   749    1
   235   750   754    1
   236   483   482   ar
   237   462   461    1
   238   480   482   ar
   239   480   481    1
   240   749   751    1
   241   602   603   ar
   242   602   600   ar
   243   589   590    1
   244   601   600    1
   245   468   465    1
   246   603   596   ar
   247   579   623    1
   248   756   755   ar
   249   756   757   ar
   250   653   654    1
   251   653   651    1
   252   600   599   ar
   253   640   639    2
   254   655   654    1
   255   655   656   ar
   256   461   460   ar
   257   461   463   ar
   258   657   656   ar
   259   460   458   ar
   260   666   665    2
   261   754   755    1
   262   754   753    1
   263   665   652    1
   264   665   667    1
   265   755   764   ar
   266   638   639   ar
   267   638   636   ar
   268   623   621    1
   269   620   619    2
   270   757   758   ar
   271   637   636    2
   272   751   752    1
   273   751   753    1
   274   654   650    1
   275   652   651    1
   276   590   592    1
   277   590   591    1
   278   463   464   ar
   279   639   641   ar
   280   651   649    1
   281   466   465    2
   282   592   594    1
   283   592   593    1
   284   458   459    2
   285   458   457   ar
   286   465   467    1
   287   465   451    1
   288   752   768    1
   289   766   765    1
   290   636   635   ar
   291   591   595    1
   292   596   597   ar
   293   596   595    1
   294   599   597   ar
   295   764   758   ar
   296   764   763   ar
   297   606   604    2
   298   758   759   ar
   299   619   621   ar
   300   619   618   ar
   301   621   622   ar
   302   464   457   ar
   303   464   454   ar
   304   594   595    1
   305   452   450    1
   306   452   453    1
   307   451   450    1
   308   593   604    1
   309   457   456   ar
   310   597   598    2
   311   763   762   ar
   312   650   649    1
   313   765   767    2
   314   641   643    1
   315   641   642   ar
   316   649   648    1
   317   450   448    1
   318   759   760    1
   319   759   761   ar
   320   635   642   ar
   321   635   634    1
   322   323   322    2
   323   604   605    1
   324   604   607    1
   325   768   769    1
   326   454   453    1
   327   454   455   ar
   328   618   616   ar
   329   622   615   ar
   330   762   761   ar
   331   456   455   ar
   332   453   449    1
   333   343   342    2
   334   648   647    1
   335   634   633    1
   336   634   630    1
   337   633   631    1
   338   607   608    1
   339   647   644    1
   340   322   324    1
   341   322   309    1
   342   322   325    1
   343   771   770    1
   344   771   775    1
   345   302   301    2
   346   448   449    1
   347   448   447    1
   348   769   770    1
   349   615   616   ar
   350   615   614    1
   351   616   617    2
   352   342   344    1
   353   342   330    1
   354   342   345    1
   355   770   772    1
   356   309   308    1
   357   440   439    1
   358   777   776   ar
   359   777   778   ar
   360   775   776    1
   361   775   774    1
   362   631   632    1
   363   631   629    1
   364   630   629    1
   365   330   329    1
   366   446   447    1
   367   446   443    1
   368   776   786   ar
   369   608   609    1
   370   644   646    2
   371   644   632    1
   372   644   645    1
   373   778   779   ar
   374   305   304    1
   375   305   306    1
   376   326   325    1
   377   326   327    1
   378   610   614    1
   379   610   609    1
   380   301   304    1
   381   301   303    1
   382   301   288    1
   383   438   439    1
   384   438   436    2
   385   439   441    2
   386   363   362    2
   387   614   613    1
   388   345   346    1
   389   308   306    1
   390   308   310    1
   391   629   628    1
   392   786   779   ar
   393   786   785    1
   394   306   307    1
   395   346   347    1
   396   779   780    1
   397   609   611    1
   398   329   327    1
   399   329   331    1
   400   772   774    1
   401   772   773    1
   402   445   443    2
   403   626   624    2
   404   611   613    1
   405   611   612    1
   406   327   328    1
   407   437   436    1
   408   437   784    1
   409   436   435    1
   410   288   287    1
   411   443   444    1
   412   443   432    1
   413   441   442    1
   414   364   362    1
   415   627   628    1
   416   627   624    1
   417   362   350    1
   418   362   365    1
   419   785   783    1
   420   773   787    1
   421   780   781    2
   422   780   782    1
   423   350   349    1
   424   310   311    1
   425   624   612    1
   426   624   625    1
   427   361   359    1
   428   420   419    2
   429   341   339    1
   430   347   349    1
   431   347   348    1
   432   783   782    2
   433   783   784    2
   434   435   442    1
   435   435   434    1
   436   788   787    2
   437   331   332    1
   438   307   311    1
   439   433   431    1
   440   433   434    1
   441   349   351    1
   442   328   332    1
   443   287   285    1
   444   287   289    1
   445   385   383    2
   446   787   789    1
   447   787   790    1
   448   340   339   ar
   449   340   333   ar
   450   432   431    1
   451   365   366    1
   452   419   418   ar
   453   419   421   ar
   454   431   429    1
   455   384   383    1
   456   311   312    1
   457   339   337   ar
   458   423   421    1
   459   434   430    1
   460   804   805   ar
   461   804   802   ar
   462   366   367    1
   463   332   333    1
   464   285   284    1
   465   285   286    1
   466   359   360   ar
   467   359   357   ar
   468   360   353   ar
   469   426   424    2
   470   348   352    1
   471   284   283    1
   472   418   416   ar
   473   289   290    1
   474   383   386    1
   475   383   370    1
   476   805   798   ar
   477   803   802    1
   478   421   422   ar
   479   791   790    1
   480   791   792    1
   481   333   334   ar
   482   313   312   ar
   483   313   314   ar
   484   406   404    2
   485   312   321   ar
   486   802   801   ar
   487   351   352    1
   488   386   387    1
   489   281   280    2
   490   337   338    2
   491   337   336   ar
   492   430   429    1
   493   352   353    1
   494   429   428    1
   495   427   424    1
   496   427   428    1
   497   353   354   ar
   498   357   358    2
   499   357   356   ar
   500   416   417    2
   501   416   415   ar
   502   399   398    1
   503   798   799   ar
   504   798   797    1
   505   424   425    1
   506   424   412    1
   507   422   415   ar
   508   314   315   ar
   509   286   290    1
   510   283   280    1
   511   367   369    1
   512   367   368    1
   513   282   280    1
   514   396   395   ar
   515   396   397   ar
   516   793   792    1
   517   793   797    1
   518   290   291    1
   519   334   336   ar
   520   334   335    2
   521   801   799   ar
   522   822   821    2
   523   374   375   ar
   524   374   373   ar
   525   375   376   ar
   526   825   823    1
   527   792   794    1
   528   370   369    1
   529   280   269    1
   530   415   414    1
   531   321   315   ar
   532   321   320   ar
   533   369   371    1
   534   404   407    1
   535   404   405    1
   536   404   391    1
   537   799   800    2
   538   395   394   ar
   539   407   408    1
   540   368   372    1
   541   387   388    1
   542   398   397   ar
   543   398   400   ar
   544   315   316   ar
   545   411   413    1
   546   411   412    1
   547   411   409    1
   548   397   403   ar
   549   797   796    1
   550   356   354   ar
   551   354   355    2
   552   320   319   ar
   553   413   414    1
   554   794   796    1
   555   794   795    1
   556   291   292   ar
   557   291   300   ar
   558   821   823   ar
   559   821   820   ar
   560   269   268    1
   561   373   372    1
   562   373   382   ar
   563   823   824   ar
   564   808   806    2
   565   376   377   ar
   566   376   382   ar
   567   414   410    1
   568   378   377    1
   569   299   300   ar
   570   299   298   ar
   571   372   371    1
   572   390   391    1
   573   390   388    1
   574   390   392    1
   575   292   293   ar
   576   394   403   ar
   577   394   393    1
   578   408   409    1
   579   400   401   ar
   580   300   294   ar
   581   388   389    1
   582   403   402   ar
   583   409   410    1
   584   377   379   ar
   585   795   806    1
   586   382   381   ar
   587   316   317    1
   588   316   318   ar
   589   389   393    1
   590   319   318   ar
   591   820   818   ar
   592   842   841    2
   593   806   807    1
   594   806   809    1
   595   824   817   ar
   596   298   297   ar
   597   268   270    1
   598   268   266    1
   599   293   294   ar
   600   393   392    1
   601   401   402   ar
   602   294   295   ar
   603   863   864   ar
   604   863   861   ar
   605   270   271    1
   606   379   380   ar
   607   381   380   ar
   608   864   865   ar
   609   862   861    1
   610   818   817   ar
   611   818   819    2
   612   297   295   ar
   613   817   816    1
   614   809   810    1
   615   841   840   ar
   616   841   843   ar
   617   266   265    1
   618   266   267    1
   619   295   296    1
   620   845   843    1
   621   265   264    1
   622   861   860   ar
   623   900   899    2
   624   880   879    2
   625   920   919    2
   626   840   838   ar
   627   262   261    2
   628   843   844   ar
   629   812   816    1
   630   812   811    1
   631   865   866   ar
   632   274   273    2
   633   271   272    1
   634   271   267    1
   635   810   811    1
   636   932   931    1
   637   932   936    1
   638   816   815    1
   639   913   917    1
   640   913   912    1
   641   264   261    1
   642   931   930    1
   643   931   933    1
   644   272   273   ar
   645   272   279   ar
   646   273   275   ar
   647   930   929    1
   648   879   881   ar
   649   879   878   ar
   650   899   901   ar
   651   899   898   ar
   652   860   866   ar
   653   860   859   ar
   654   263   261    1
   655   897   893    1
   656   897   896    1
   657   897   898    1
   658   917   918    1
   659   917   916    1
   660   881   882   ar
   661   261   249    1
   662   279   278   ar
   663   912   911    1
   664   912   914    1
   665   866   857   ar
   666   919   918   ar
   667   919   921   ar
   668   811   813    1
   669   275   276   ar
   670   936   935    1
   671   936   937    1
   672   893   892    1
   673   896   894    1
   674   901   902   ar
   675   898   905   ar
   676   918   925   ar
   677   915   914    1
   678   915   926    1
   679   838   839    2
   680   838   837   ar
   681   278   276   ar
   682   276   277    1
   683   813   815    1
   684   813   814    1
   685   844   837   ar
   686   877   878    1
   687   877   876    1
   688   877   873    1
   689   878   885   ar
   690   911   910    1
   691   934   933    1
   692   934   947    1
   693   921   922   ar
   694   876   874    1
   695   859   858   ar
   696   933   935    1
   697   882   883    2
   698   882   884   ar
   699   914   916    1
   700   892   894    1
   701   892   891    1
   702   929   926    1
   703   927   926    2
   704   828   826    2
   705   837   836    1
   706   937   946   ar
   707   937   938   ar
   708   249   248    1
   709   857   858   ar
   710   857   856    1
   711   926   928    1
   712   945   946   ar
   713   945   944   ar
   714   902   903    2
   715   902   904   ar
   716   951   952    1
   717   951   950    1
   718   953   952    1
   719   953   957    1
   720   894   895    1
   721   905   904   ar
   722   925   924   ar
   723   873   872    1
   724   952   954    1
   725   895   907    1
   726   948   947    2
   727   885   884   ar
   728   814   826    1
   729   946   940   ar
   730   884   886    1
   731   910   907    1
   732   938   939   ar
   733   922   924   ar
   734   922   923    1
   735   826   827    1
   736   826   829    1
   737   904   906    1
   738   856   855    1
   739   856   852    1
   740   944   943   ar
   741   891   890    1
   742   947   950    1
   743   947   949    1
   744   957   956    1
   745   957   958    1
   746   248   250    1
   747   248   246    1
   748   872   874    1
   749   872   871    1
   750   874   875    1
   751   250   251    1
   752   836   832    1
   753   836   835    1
   754   855   853    1
   755   907   908    2
   756   907   909    1
   757   940   939   ar
   758   940   941   ar
   759   832   831    1
   760   956   954    1
   761   875   887    1
   762   890   887    1
   763   954   955    1
   764   955   968    1
   765   254   253    2
   766   943   941   ar
   767   958   959   ar
   768   958   967   ar
   769   852   851    1
   770   829   830    1
   771   835   833    1
   772   253   255   ar
   773   253   252   ar
   774   941   942    1
   775   871   870    1
   776   246   245    1
   777   246   247    1
   778   959   960   ar
   779   255   256   ar
   780   966   967   ar
   781   966   965   ar
   782   252   251    1
   783   252   259   ar
   784   967   961   ar
   785   830   831    1
   786   245   244    1
   787   251   247    1
   788   887   889    2
   789   887   888    1
   790   853   851    1
   791   853   854    1
   792   831   833    1
   793   833   834    1
   794   244   241    1
   795   870   867    1
   796   256   257    2
   797   256   258   ar
   798   259   258   ar
   799   969   968    2
   800   258   260    1
   801   851   850    1
   802   968   971    1
   803   968   970    1
   804   965   964   ar
   805   960   961   ar
   806   961   962   ar
   807   972   971    1
   808   972   973    1
   809   854   867    1
   810   867   869    2
   811   867   868    1
   812   974   973    1
   813   974   978    1
   814   242   241    2
   815   243   241    1
   816   241   229    1
   817   834   847    1
   818  1304  1303    2
   819   849   846    1
   820   849   850    1
   821   964   962   ar
   822   973   975    1
   823   962   963    1
   824   846   848    1
   825   846   847    1
   826   987   985    1
   827   986   985   ar
   828   986   979   ar
   829   978   979    1
   830   978   977    1
   831  1303  1305   ar
   832  1303  1302   ar
   833   985   983   ar
   834   234   233    2
   835   979   980   ar
   836   229   228    1
   837  1301  1297    1
   838  1301  1302    1
   839  1301  1300    1
   840    61    60    2
   841   235   233   ar
   842   235   236   ar
   843  1297  1296    1
   844   975   977    1
   845   975   976    1
   846   230   228    1
   847   230   231    1
   848   233   232   ar
   849  1305  1306   ar
   850    80    79    2
   851   228   226    1
   852  1302  1309   ar
   853  1268  1269   ar
   854  1268  1266   ar
   855   237   236    2
   856   980   982   ar
   857   980   981    2
   858   983   982   ar
   859   983   984    2
   860  1285  1284    2
   861   236   238   ar
   862   976   988    1
   863  1267  1266    1
   864  1314  1315    1
   865  1314  1313    1
   866  1311  1310    2
   867  1300  1298    1
   868   232   231    1
   869   232   239   ar
   870  1296  1298    1
   871  1296  1295    1
   872  1332  1331    2
   873  1299  1298    1
   874  1299  1310    1
   875  1269  1270   ar
   876  1315  1316    1
   877  1315  1317    1
   878    40    39    2
   879  1578  1579    1
   880  1578  1577    1
   881  1579  1580    1
   882  1579  1581    1
   883  1266  1265   ar
   884   238   239   ar
   885   238   240    1
   886  1318  1317    1
   887  1318  1331    1
   888    99    98    2
   889   231   227    1
   890  1596  1595    2
   891  1582  1581    1
   892  1582  1595    1
   893  1306  1307    1
   894  1306  1308   ar
   895    60    63    1
   896    60    62    1
   897    60    47    1
   898  1284  1286   ar
   899  1284  1283   ar
   900  1007  1005    1
   901  1286  1287   ar
   902  1316  1320    1
   903  1310  1313    1
   904  1310  1312    1
   905  1309  1308   ar
   906    79    68    1
   907    79    82    1
   908    79    81    1
   909    83    82    1
   910    83    84    1
   911  1580  1584    1
   912    68    67    1
   913   226   227    1
   914   226   225    1
   915   990   988    2
   916    63    64    1
   917    64    65    1
   918  1317  1319    1
   919  1295  1294    1
   920   216   215    1
   921  1575  1574    1
   922  1581  1583    1
   923  1331  1334    1
   924  1331  1333    1
   925  1270  1271   ar
   926  1595  1598    1
   927  1595  1597    1
   928    98    87    1
   929    98   100    1
   930    98   101    1
   931    87    86    1
   932  1577  1574    1
   933    39    41    1
   934    39    42    1
   935    39    27    1
   936  1599  1598    1
   937  1599  1600    1
   938   988   989    1
   939   988   991    1
   940   225   224    1
   941  1335  1334    1
   942  1335  1336    1
   943  1319  1320    1
   944  1583  1584    1
   945  1320  1321    1
   946  1265  1271   ar
   947  1265  1264   ar
   948  1584  1585    1
   949  1282  1283    1
   950  1282  1281    1
   951  1282  1278    1
   952  1283  1290   ar
   953    84    86    1
   954    84    85    1
   955  1004  1003    2
   956  1005  1003   ar
   957  1005  1006   ar
   958  1287  1288    1
   959  1287  1289   ar
   960    67    65    1
   961    67    69    1
   962   217   215   ar
   963   217   218   ar
   964   215   214   ar
   965    65    66    1
   966    47    46    1
   967  1281  1279    1
   968  1271  1262   ar
   969  1574  1576    1
   970   121   119    2
   971  1294  1291    1
   972  1003  1002   ar
   973    86    88    1
   974    20    19    2
   975    42    43    1
   976  1600  1601    1
   977  1600  1602    1
   978  1006   999   ar
   979   223   221    2
   980   120   119    1
   981   991   992    1
   982    27    26    1
   983  1336  1337    1
   984  1336  1338    1
   985  1278  1277    1
   986   218   219   ar
   987  1264  1263   ar
   988    46    44    1
   989    46    48    1
   990   101   102    1
   991    43    44    1
   992  1576  1562    1
   993  1321  1322   ar
   994  1321  1330   ar
   995  1354  1353    2
   996   224   221    1
   997  1585  1586   ar
   998  1585  1594   ar
   999   214   213   ar
  1000   214   220   ar
  1001  1290  1289   ar
  1002    85    89    1
  1003  1601  1605    1
  1004   119   122    1
  1005   119   106    1
  1006   102   103    1
  1007   992   993    1
  1008   196   195    2
  1009    23    22    1
  1010    23    24    1
  1011    44    45    1
  1012  1337  1341    1
  1013    69    70    1
  1014  1603  1602    1
  1015  1603  1617    1
  1016   213   212   ar
  1017  1322  1323   ar
  1018    66    70    1
  1019  1002  1000   ar
  1020   994   993    1
  1021   994   998    1
  1022    19    21    1
  1023    19    22    1
  1024    19     6    1
  1025  1262  1263   ar
  1026  1262  1261    1
  1027   199   197    1
  1028   221   222    1
  1029   221   208    1
  1030  1279  1277    1
  1031  1279  1280    1
  1032   999  1000   ar
  1033   999   998    1
  1034  1277  1276    1
  1035  1586  1587   ar
  1036   179   177    1
  1037  1339  1338    1
  1038  1339  1353    1
  1039    88    89    1
  1040   182   180    2
  1041  1602  1604    1
  1042    26    24    1
  1043    26    28    1
  1044  1291  1292    2
  1045  1291  1280    1
  1046  1291  1293    1
  1047   219   220   ar
  1048   220   211   ar
  1049  1618  1617    2
  1050  1593  1594   ar
  1051  1593  1592   ar
  1052  1338  1340    1
  1053  1353  1355    1
  1054  1353  1356    1
  1055  1594  1588   ar
  1056  1330  1329   ar
  1057  1330  1324   ar
  1058    24    25    1
  1059  1329  1328   ar
  1060   143   141    2
  1061  1000  1001    2
  1062   195   197   ar
  1063   195   194   ar
  1064   162   160    2
  1065   993   995    1
  1066    48    49    1
  1067    89    90    1
  1068    78    77   ar
  1069    78    71   ar
  1070  1562  1561    1
  1071    70    71    1
  1072   142   141    1
  1073   998   997    1
  1074   176   175    2
  1075  1806  1805    2
  1076   197   198   ar
  1077   212   211   ar
  1078  1605  1604    1
  1079  1605  1606    1
  1080   122   123    1
  1081  1261  1260    1
  1082  1261  1257    1
  1083   106   105    1
  1084  1617  1619    1
  1085  1617  1620    1
  1086   202   200    2
  1087   103   105    1
  1088   103   104    1
  1089  1341  1340    1
  1090  1341  1342    1
  1091   177   175   ar
  1092   177   178   ar
  1093  1323  1324   ar
  1094    77    75   ar
  1095    45    49    1
  1096   211   210    1
  1097  1555  1554    2
  1098     6     5    1
  1099   208   207    1
  1100    71    72   ar
  1101    97    90   ar
  1102    97    96   ar
  1103   105   107    1
  1104   175   174   ar
  1105   181   180    1
  1106   141   144    1
  1107   141   127    1
  1108   194   192   ar
  1109   180   183    1
  1110   180   168    1
  1111  1587  1588   ar
  1112  1276  1275    1
  1113   207   209    1
  1114   207   205    1
  1115   209   210    1
  1116  1324  1325   ar
  1117  1260  1258    1
  1118    28    29    1
  1119  1592  1591   ar
  1120    49    50    1
  1121    90    91   ar
  1122  1588  1589   ar
  1123  1343  1342   ar
  1124  1343  1344   ar
  1125   110   111   ar
  1126   110   109   ar
  1127   178   171   ar
  1128   995   997    1
  1129   995   996    1
  1130  1328  1327   ar
  1131  1786  1785    2
  1132  1558  1559    1
  1133  1558  1557    1
  1134  1561  1559    1
  1135  1561  1563    1
  1136    25    29    1
  1137   104   108    1
  1138   198   191   ar
  1139  1607  1606   ar
  1140  1607  1608   ar
  1141   160   161    1
  1142   160   163    1
  1143   160   149    1
  1144   123   124    1
  1145  1606  1616   ar
  1146  1356  1357    1
  1147   111   112   ar
  1148  1257  1256    1
  1149  1275  1272    1
  1150  1793  1805    1
  1151  1793  1792    1
  1152  1789  1790    1
  1153  1789  1788    1
  1154  1342  1352   ar
  1155  1805  1807    1
  1156  1805  1808    1
  1157  1559  1560    1
  1158   210   206    1
  1159    96    94   ar
  1160   203   200    1
  1161   203   204    1
  1162  1357  1358    1
  1163   157   156    1
  1164   174   172   ar
  1165   144   145    1
  1166    75    76    1
  1167    75    74   ar
  1168   200   201    1
  1169   200   188    1
  1170   183   184    1
  1171   132   131   ar
  1172   132   133   ar
  1173  1024  1023    1
  1174    72    74   ar
  1175    72    73    2
  1176   164   163    1
  1177   164   165    1
  1178   192   191   ar
  1179   192   193    2
  1180  1620  1621    1
  1181  1557  1554    1
  1182    37    30   ar
  1183    37    36   ar
  1184    29    30    1
  1185  1554  1556    1
  1186  1554  1542    1
  1187     5     7    1
  1188     5     3    1
  1189  1790  1792    1
  1190  1790  1791    1
  1191  1771  1785    1
  1192  1771  1770    1
  1193    38    36    1
  1194  1621  1622    1
  1195   168   167    1
  1196   127   126    1
  1197  1259  1258    1
  1198   191   190    1
  1199    30    31   ar
  1200   131   130   ar
  1201   158   156   ar
  1202   158   159   ar
  1203   171   172   ar
  1204   171   170    1
  1205  1344  1345   ar
  1206   167   165    1
  1207   167   169    1
  1208    50    51   ar
  1209    50    59   ar
  1210  1325  1327   ar
  1211  1325  1326    1
  1212    36    34   ar
  1213  1591  1589   ar
  1214  1809  1808    1
  1215  1809  1810    1
  1216   107   108    1
  1217   109   108    1
  1218   109   118   ar
  1219  1589  1590    1
  1220   126   124    1
  1221   126   128    1
  1222   996  1008    1
  1223  1258  1256    1
  1224   205   206    1
  1225   205   204    1
  1226  1785  1788    1
  1227  1785  1787    1
  1228   172   173    2
  1229   187   188    1
  1230   187   189    1
  1231   187   185    1
  1232   156   155   ar
  1233   149   148    1
  1234    91    92    2
  1235    91    93   ar
  1236  1608  1609   ar
  1237     2     1    1
  1238     2     3    1
  1239  1542  1541    1
  1240  1792  1794    1
  1241  1563  1564    1
  1242   135   134    2
  1243   124   125    1
  1244  1010  1008    2
  1245    51    52   ar
  1246  1021  1022   ar
  1247  1021  1020   ar
  1248  1616  1615    1
  1249  1616  1609   ar
  1250    31    32    2
  1251    31    33   ar
  1252  1768  1770    1
  1253  1768  1767    1
  1254  1768  1769    1
  1255  1023  1022   ar
  1256  1023  1025   ar
  1257  1256  1255    1
  1258   112   118   ar
  1259   112   113    1
  1260   189   190    1
  1261   165   166    1
  1262  1358  1359    1
  1263  1358  1360    1
  1264   184   185    1
  1265    34    33   ar
  1266    34    35    2
  1267     7     8    1
  1268   145   146    1
  1269   159   152   ar
  1270     3     4    1
  1271  1828  1827    2
  1272    58    59   ar
  1273    58    57   ar
  1274  1236  1237    1
  1275  1236  1235    1
  1276  1236  1238    1
  1277  1352  1345   ar
  1278  1352  1351   ar
  1279   148   146    1
  1280   148   150    1
  1281    59    53   ar
  1282   133   134   ar
  1283   133   140   ar
  1284    94    93   ar
  1285    94    95    1
  1286  1770  1772    1
  1287  1272  1274    2
  1288  1272  1273    2
  1289  1022  1028   ar
  1290  1560  1564    1
  1291  1359  1363    1
  1292  1767  1766    1
  1293  1791  1795    1
  1294   166   170    1
  1295  1772  1773    1
  1296  1239  1238    1
  1297  1239  1251    1
  1298  1615  1613    2
  1299  1254  1255    1
  1300  1254  1251    1
  1301   190   186    1
  1302   114   113    1
  1303   169   170    1
  1304   125   129    1
  1305  1237  1241    1
  1306  1345  1346   ar
  1307  1020  1019   ar
  1308   134   136   ar
  1309  1622  1623    1
  1310  1622  1624    1
  1311  1025  1026   ar
  1312  1609  1610    1
  1313  1623  1627    1
  1314  1235  1234    1
  1315   118   117    1
  1316   185   186    1
  1317   155   153   ar
  1318   130   129    1
  1319   130   140   ar
  1320  1810  1812    1
  1321  1810  1811    1
  1322  1794  1795    1
  1323    52    53   ar
  1324  1769  1773    1
  1325  1008  1009    1
  1326  1008  1011    1
  1327  1564  1565    1
  1328  1240  1238    1
  1329  1240  1241    1
  1330   113   115    2
  1331   146   147    1
  1332   128   129    1
  1333    53    54   ar
  1334  1827  1829    1
  1335  1827  1813    1
  1336  1827  1830    1
  1337  1241  1242    1
  1338    57    56   ar
  1339  1351  1349   ar
  1340  1813  1812    1
  1341  1773  1774    1
  1342  1541  1539    1
  1343  1541  1543    1
  1344  1764  1763    2
  1345   152   153   ar
  1346   152   151    1
  1347  1252  1251    2
  1348  1538  1539    1
  1349  1538  1537    1
  1350  1028  1019   ar
  1351  1028  1027   ar
  1352  1629  1630   ar
  1353  1629  1628   ar
  1354   150   151    1
  1355  1535  1534    2
  1356   140   139   ar
  1357  1795  1796    1
  1358  1251  1253    1
  1359  1019  1018    1
  1360  1371  1370   ar
  1361  1371  1364   ar
  1362   153   154    2
  1363     4     8    1
  1364  1026  1027   ar
  1365  1067  1066    1
  1366  1360  1361    1
  1367  1360  1362    1
  1368  1539  1540    1
  1369     8     9    1
  1370  1812  1814    1
  1371  1811  1815    1
  1372  1940  1614    1
  1373  1940  1939    1
  1374  1361  1372    1
  1375  1613  1614    1
  1376  1613  1612    2
  1377  1766  1763    1
  1378   147   151    1
  1379     9    10   ar
  1380     9    18   ar
  1381    10    11   ar
  1382  1363  1364    1
  1383  1363  1362    1
  1384  1630  1631   ar
  1385  1370  1368   ar
  1386    56    54   ar
  1387  1011  1012    1
  1388    54    55    1
  1389   117   116    1
  1390   117  1937    1
  1391  1624  1625    1
  1392  1624  1626    1
  1393   136   137   ar
  1394  1014  1018    1
  1395  1014  1013    1
  1396  1346  1347    2
  1397  1346  1348   ar
  1398  1610  1612    1
  1399  1610  1611    2
  1400  1627  1628    1
  1401  1627  1626    1
  1402  1543  1544    1
  1403  1537  1534    1
  1404  1232  1231    2
  1405  1234  1231    1
  1406  1572  1565   ar
  1407  1572  1571   ar
  1408  1244  1243    2
  1409  1045  1044    1
  1410    11    12   ar
  1411    18    17   ar
  1412    18    12   ar
  1413  1628  1637   ar
  1414  1750  1763    1
  1415  1750  1749    1
  1416  1565  1566   ar
  1417  1065  1066   ar
  1418  1065  1063   ar
  1419   115   116    1
  1420    17    16   ar
  1421  1763  1765    1
  1422  1625  1638    1
  1423  1364  1365   ar
  1424    12    13   ar
  1425  1018  1017    1
  1426  1349  1348   ar
  1427  1349  1350    1
  1428  1066  1068   ar
  1429  1242  1243   ar
  1430  1242  1249   ar
  1431  1534  1521    1
  1432  1534  1536    1
  1433  1939  1941    2
  1434  1939  1938    2
  1435  1012  1013    1
  1436  1941  1942    1
  1437  1774  1784   ar
  1438  1774  1775   ar
  1439  1830  1831    1
  1440   139   137   ar
  1441    16    15   ar
  1442   116  1937    1
  1443  1783  1784   ar
  1444  1783  1781   ar
  1445  1796  1803   ar
  1446  1796  1797   ar
  1447    13    15   ar
  1448    13    14    1
  1449  1751  1749    1
  1450  1751  1752    1
  1451  1218  1231    1
  1452  1218  1217    1
  1453  1231  1233    1
  1454  1803  1802   ar
  1455  1374  1372    2
  1456  1243  1245   ar
  1457  1064  1063    2
  1458   137   138    1
  1459  1373  1372    1
  1460  1573  1571    1
  1461  1540  1544    1
  1462  1219  1217    1
  1463  1219  1220    1
  1464  1831  1832    1
  1465  1814  1815    1
  1466  1815  1369    1
  1467  1815  1816    1
  1468  1044  1043   ar
  1469  1044  1046   ar
  1470  1063  1062   ar
  1471  1372  1375    1
  1472  1631  1637   ar
  1473  1631  1632   ar
  1474  1013  1015    1
  1475  1571  1569   ar
  1476  1782  1781    1
  1477  1368  1369    1
  1478  1368  1367   ar
  1479  1068  1069   ar
  1480  1521  1520    1
  1481  1784  1777   ar
  1482  1817  1816   ar
  1483  1817  1818   ar
  1484  1749  1747    1
  1485  1544  1545    1
  1486  1637  1636   ar
  1487  1229  1228   ar
  1488  1229  1230   ar
  1489  1249  1248   ar
  1490  1943  1942    2
  1491  1640  1638    2
  1492  1043  1041   ar
  1493  1566  1567    2
  1494  1566  1568   ar
  1495  1938  1945    1
  1496  1942  1944    1
  1497  1046  1047   ar
  1498  1228  1227   ar
  1499  1638  1639    1
  1500  1638  1641    1
  1501  1781  1780   ar
  1502  1217  1215    1
  1503  1775  1776   ar
  1504  1937  1933    1
  1505  1937  1936    1
  1506  1365  1367   ar
  1507  1365  1366    2
  1508  1083  1082    2
  1509  1220  1216    1
  1510  1220  1221    1
  1511  1816  1826   ar
  1512  1215  1216    1
  1513  1215  1214    1
  1514  1657  1655    1
  1515  1761  1760   ar
  1516  1761  1762   ar
  1517  1798  1797    2
  1518  1017  1015    1
  1519  1797  1799   ar
  1520  1747  1748    1
  1521  1747  1746    1
  1522  1802  1804    1
  1523  1802  1800   ar
  1524  1752  1748    1
  1525  1752  1753    1
  1526  1062  1069   ar
  1527  1062  1061   ar
  1528  1069  1059   ar
  1529  1933  1932    1
  1530  1015  1016    1
  1531  1633  1632    1
  1532  1760  1759   ar
  1533  1632  1634   ar
  1534  1391  1389    1
  1535  1936  1934    1
  1536  1245  1246   ar
  1537  1818  1819   ar
  1538  1848  1846    2
  1539  1545  1552   ar
  1540  1545  1546   ar
  1541  1945  1944    2
  1542  1041  1042    2
  1543  1041  1040   ar
  1544  1636  1635   ar
  1545  1944  1946    1
  1546  1047  1040   ar
  1547  1569  1568   ar
  1548  1569  1570    2
  1549  1832  1833    1
  1550  1832  1834    1
  1551  1084  1082   ar
  1552  1084  1085   ar
  1553  1230  1221   ar
  1554  1230  1224   ar
  1555  1375  1376    1
  1556  1082  1081   ar
  1557  1641  1642    1
  1558  1777  1776   ar
  1559  1777  1778   ar
  1560  1520  1522    1
  1561  1520  1518    1
  1562  1248  1246   ar
  1563  1248  1250    1
  1564  1221  1222   ar
  1565  1547  1546    2
  1566  1214  1213    1
  1567  1227  1225   ar
  1568  1924  1923    1
  1569  1847  1846    1
  1570  1552  1551   ar
  1571  1522  1523    1
  1572  1762  1753   ar
  1573  1762  1756   ar
  1574  1746  1745    1
  1575  1932  1934    1
  1576  1932  1931    1
  1577  1040  1039    1
  1578  1061  1060   ar
  1579  1780  1778   ar
  1580  1753  1754   ar
  1581  1059  1060   ar
  1582  1059  1058    1
  1583  1655  1656   ar
  1584  1655  1653   ar
  1585  1546  1548   ar
  1586  1833  1837    1
  1587  1799  1800   ar
  1588  1846  1835    1
  1589  1846  1849    1
  1590  1826  1819   ar
  1591  1826  1825   ar
  1592  1246  1247    2
  1593  1642  1643    1
  1594  1086  1085    2
  1595  1654  1653    2
  1596  1922  1923   ar
  1597  1922  1920   ar
  1598  1800  1801    2
  1599  1389  1390   ar
  1600  1389  1387   ar
  1601  1759  1757   ar
  1602  1845  1844   ar
  1603  1845  1838   ar
  1604  1844  1842   ar
  1605  1376  1377    1
  1606  1204  1203    2
  1607  1634  1635   ar
  1608  1835  1834    1
  1609  1085  1087   ar
  1610  1834  1836    1
  1611  1016  1029    1
  1612  1934  1935    1
  1613  1518  1517    1
  1614  1518  1519    1
  1615  1819  1820   ar
  1616  1081  1080    1
  1617  1081  1088   ar
  1618  1031  1029    2
  1619  1058  1057    1
  1620  1058  1054    1
  1621  1656  1649   ar
  1622  1388  1387    2
  1623  1923  1925   ar
  1624  1778  1779    2
  1625  1653  1652   ar
  1626  1390  1383   ar
  1627  1080  1076    1
  1628  1080  1079    1
  1629  1745  1742    1
  1630  1930  1931    1
  1631  1930  1927    1
  1632  1921  1920    2
  1633  1224  1225   ar
  1634  1224  1223   ar
  1635  1387  1386   ar
  1636  1551  1553    1
  1637  1551  1549   ar
  1638  1517  1516    1
  1639  1739  1740   ar
  1640  1739  1738   ar
  1641  1213  1210    1
  1642  1225  1226    1
  1643  1378  1377    1
  1644  1378  1382    1
  1645  1920  1919   ar
  1646  1200  1201    1
  1647  1200  1198    1
  1648  1222  1223   ar
  1649  1825  1823   ar
  1650  1756  1757   ar
  1651  1756  1755   ar
  1652  1548  1549   ar
  1653  1039  1035    1
  1654  1039  1038    1
  1655  1904  1903    2
  1656  1076  1075    1
  1657  1754  1755   ar
  1658  1644  1643    1
  1659  1644  1648    1
  1660  1029  1032    1
  1661  1029  1030    1
  1662  1757  1758    1
  1663  1740  1741   ar
  1664  1087  1088   ar
  1665  1087  1089    1
  1666  1883  1882    1
  1667  1523  1519    1
  1668  1523  1524    1
  1669  1377  1379    1
  1670  1837  1838    1
  1671  1837  1836    1
  1672  1057  1055    1
  1673  1054  1053    1
  1674  1035  1034    1
  1675  1838  1839   ar
  1676  1842  1843    1
  1677  1842  1841   ar
  1678  1643  1645    1
  1679  1738  1736   ar
  1680  1203  1205   ar
  1681  1203  1202   ar
  1682  1032  1033    1
  1683  1549  1550    2
  1684  1079  1077    1
  1685  1383  1382    1
  1686  1383  1384   ar
  1687  1649  1650   ar
  1688  1649  1648    1
  1689  1652  1650   ar
  1690  1849  1850    1
  1691  1199  1198    1
  1692  1199  1210    1
  1693  1820  1821    2
  1694  1820  1822   ar
  1695  1927  1929    1
  1696  1927  1928    1
  1697  1925  1926   ar
  1698  1386  1384   ar
  1699  1201  1202    1
  1700  1201  1197    1
  1701  1516  1513    1
  1702  1532  1531   ar
  1703  1532  1533   ar
  1704  1188  1187   ar
  1705  1188  1189   ar
  1706  1730  1731    1
  1707  1730  1728    1
  1708  1382  1381    1
  1709  1717  1716    2
  1710  1198  1196    1
  1711  1205  1206   ar
  1712  1919  1926   ar
  1713  1919  1918    1
  1714  1742  1743    2
  1715  1742  1729    1
  1716  1742  1744    1
  1717  1384  1385    1
  1718  1524  1533   ar
  1719  1524  1525   ar
  1720  1650  1651    1
  1721  1648  1647    1
  1722  1903  1902   ar
  1723  1903  1905   ar
  1724  1187  1185   ar
  1725  1202  1209   ar
  1726  1823  1822   ar
  1727  1823  1824    1
  1728  1514  1513    2
  1729  1531  1530   ar
  1730  1210  1211    2
  1731  1210  1212    1
  1732  1859  1858    2
  1733  1859  1860    1
  1734  1695  1694    2
  1735  1645  1647    1
  1736  1645  1646    1
  1737  1533  1527   ar
  1738  1038  1036    1
  1739  1033  1034    1
  1740  1741  1732   ar
  1741  1741  1735   ar
  1742  1902  1900   ar
  1743  1075  1077    1
  1744  1075  1074    1
  1745  1729  1728    1
  1746  1839  1841   ar
  1747  1839  1840    2
  1748  1034  1036    1
  1749  1862  1861    1
  1750  1379  1381    1
  1751  1379  1380    1
  1752  1660  1658    2
  1753  1053  1055    1
  1754  1053  1052    1
  1755  1189  1190   ar
  1756  1917  1918    1
  1757  1917  1915    1
  1758  1882  1884    1
  1759  1882  1881    1
  1760  1928  1915    1
  1761  1850  1851    1
  1762  1736  1735   ar
  1763  1736  1737    1
  1764  1731  1732    1
  1765  1731  1727    1
  1766  1196  1197    1
  1767  1196  1195    1
  1768  1055  1056    1
  1769  1858  1857    1
  1770  1077  1078    1
  1771  1036  1037    1
  1772  1411  1409    1
  1773  1513  1515    1
  1774  1513  1500    1
  1775  1869  1867    2
  1776  1728  1726    1
  1777  1716  1715   ar
  1778  1716  1718   ar
  1779  1385  1179    1
  1780  1525  1526   ar
  1781  1918  1914    1
  1782  1880  1881   ar
  1783  1880  1879   ar
  1784  1651  1125    1
  1785  1732  1733   ar
  1786  1646  1658    1
  1787  1735  1734   ar
  1788  1530  1528   ar
  1789  1907  1905    1
  1790  1715  1713   ar
  1791  1884  1885    2
  1792  1915  1916    1
  1793  1915  1913    1
  1794  1905  1906   ar
  1795  1092  1078    1
  1796  1092  1090    1
  1797  1074  1073    1
  1798  1527  1526   ar
  1799  1527  1528   ar
  1800  1206  1207    1
  1801  1206  1208   ar
  1802  1860  1861    2
  1803  1860  1866    1
  1804  1408  1407    2
  1805  1881  1887   ar
  1806  1674  1673    1
  1807  1380  1392    1
  1808  1185  1186    1
  1809  1185  1184   ar
  1810  1694  1696   ar
  1811  1694  1693   ar
  1812  1861  1863    1
  1813  1658  1659    1
  1814  1658  1661    1
  1815  1209  1208   ar
  1816  1394  1392    2
  1817  1900  1901    1
  1818  1900  1899   ar
  1819  1056  1070    1
  1820  1073  1070    1
  1821  1052  1051    1
  1822  1901  1105    1
  1823  1528  1529    2
  1824  1500  1499    1
  1825  1671  1670   ar
  1826  1671  1672   ar
  1827  1190  1184   ar
  1828  1190  1181   ar
  1829  1720  1718    1
  1830  1051  1048    1
  1831  1106  1105    1
  1832  1851  1852    1
  1833  1851  1853    1
  1834  1727  1726    1
  1835  1145  1144    2
  1836  1195  1194    1
  1837  1718  1719   ar
  1838  1409  1407   ar
  1839  1409  1410   ar
  1840  1726  1725    1
  1841  1857  1866    1
  1842  1857  1856    1
  1843  1852  1856    1
  1844  1696  1697   ar
  1845  1407  1406   ar
  1846  1853  1854    1
  1847  1853  1855    1
  1848  1037  1050    1
  1849  1879  1878   ar
  1850  1713  1714    2
  1851  1713  1712   ar
  1852  1125  1124    1
  1853  1692  1693   ar
  1854  1692  1691   ar
  1855  1867  1854    1
  1856  1867  1868    1
  1857  1867  1870    1
  1858  1733  1734   ar
  1859  1914  1913    1
  1860  1184  1183   ar
  1861  1693  1700   ar
  1862  1906  1899   ar
  1863  1392  1393    1
  1864  1392  1395    1
  1865  1866  1865    1
  1866  1885  1863    1
  1867  1885  1886    1
  1868  1107  1105    1
  1869  1107  1108    2
  1870  1179  1180    1
  1871  1179  1177    1
  1872  1673  1672   ar
  1873  1673  1675   ar
  1874  1670  1669   ar
  1875  1913  1912    1
  1876  1899  1898    1
  1877  1661  1662    1
  1878  1090  1091    1
  1879  1090  1093    1
  1880  1529  1890    1
  1881  1887  1878   ar
  1882  1887  1886    1
  1883  1672  1678   ar
  1884  1070  1072    2
  1885  1070  1071    1
  1886  1863  1864    1
  1887  1167  1166    1
  1888  1105  1104    1
  1889  1048  1050    1
  1890  1048  1049    1
  1891  1856  1855    1
  1892  1911  1912    1
  1893  1911  1908    1
  1894  1181  1180    1
  1895  1181  1182   ar
  1896  1194  1191    1
  1897  1146  1144   ar
  1898  1146  1147   ar
  1899  1410  1403   ar
  1900  1180  1176    1
  1901  1499  1501    1
  1902  1499  1497    1
  1903  1144  1143   ar
  1904  1910  1908    2
  1905  1165  1166   ar
  1906  1165  1163   ar
  1907  1719  1712   ar
  1908  1501  1502    1
  1909  1870  1871    1
  1910  1712  1711    1
  1911  1406  1404   ar
  1912  1878  1877    1
  1913  1164  1163    2
  1914  1725  1724    1
  1915  1890  1888    1
  1916  1691  1690   ar
  1917  1697  1698    1
  1918  1697  1699   ar
  1919  1681  1679    2
  1920  1124  1123   ar
  1921  1124  1126   ar
  1922  1108  1101    1
  1923  1093  1094    1
  1924  1166  1168   ar
  1925  1724  1721    1
  1926  1128  1126    1
  1927  1395  1396    1
  1928  1675  1676   ar
  1929  1865  1864    2
  1930  1897  1898    1
  1931  1897  1895    1
  1932  1148  1147    1
  1933  1700  1699   ar
  1934  1700  1690   ar
  1935  1183  1182   ar
  1936  1163  1162   ar
  1937  1908  1909    1
  1938  1908  1896    1
  1939  1898  1894    1
  1940  1177  1178    1
  1941  1177  1175    1
  1942  1669  1678   ar
  1943  1669  1668    1
  1944  1662  1663    1
  1945  1104  1102   am
  1946  1147  1149   ar
  1947  1678  1677   ar
  1948  1403  1404   ar
  1949  1403  1402    1
  1950  1123  1121   ar
  1951  1193  1191    2
  1952  1497  1496    1
  1953  1497  1498    1
  1954  1404  1405    2
  1955  1126  1127   ar
  1956  1895  1896    1
  1957  1895  1893    1
  1958  1176  1175    1
  1959  1143  1142   ar
  1960  1143  1150   ar
  1961  1710  1711    1
  1962  1710  1708    1
  1963  1191  1192    2
  1964  1711  1707    1
  1965  1690  1689    1
  1966  1398  1402    1
  1967  1398  1397    1
  1968  1396  1397    1
  1969  1428  1427    1
  1970  1871  1872    1
  1971  1502  1503    1
  1972  1502  1498    1
  1973  1891  1888    1
  1974  1891  1892    1
  1975  1449  1448    2
  1976  1877  1873    1
  1977  1877  1876    1
  1978  1496  1495    1
  1979  1099  1100    1
  1980  1099  1097    1
  1981  1101  1102   am
  1982  1101  1100    1
  1983  1723  1721    2
  1984  1495  1492    1
  1985  1888  1875    1
  1986  1888  1889    1
  1987  1493  1492    2
  1988  1664  1663    1
  1989  1664  1668    1
  1990  1175  1174    1
  1991  1511  1510   ar
  1992  1511  1512   ar
  1993  1873  1872    1
  1994  1142  1141   ar
  1995  1703  1701    2
  1996  1874  1876    1
  1997  1874  1872    1
  1998  1874  1875    1
  1999  1676  1677   ar
  2000  1094  1095    1
  2001  1894  1893    1
  2002  1679  1682    1
  2003  1679  1666    1
  2004  1679  1680    1
  2005  1402  1401    1
  2006  1168  1169   ar
  2007  1510  1509   ar
  2008  1102  1103    2
  2009  1721  1709    1
  2010  1721  1722    1
  2011  1663  1665    1
  2012  1503  1512   ar
  2013  1503  1504   ar
  2014  1708  1709    1
  2015  1708  1706    1
  2016  1665  1666    1
  2017  1665  1667    1
  2018  1512  1506   ar
  2019  1668  1667    1
  2020  1162  1169   ar
  2021  1162  1161    1
  2022  1149  1150   ar
  2023  1682  1683    1
  2024  1397  1399    1
  2025  1150  1140   ar
  2026  1509  1507   ar
  2027  1504  1505   ar
  2028  1707  1706    1
  2029  1893  1892    1
  2030  1100  1096    1
  2031  1097  1095    1
  2032  1097  1098    1
  2033  1506  1507   ar
  2034  1506  1505   ar
  2035  1121  1122    2
  2036  1121  1120   ar
  2037  1492  1494    1
  2038  1492  1481    1
  2039  1447  1448   ar
  2040  1447  1445   ar
  2041  1127  1120   ar
  2042  1448  1450   ar
  2043  1096  1095    1
  2044  1507  1508    2
  2045  1704  1701    1
  2046  1704  1705    1
  2047  1889  1508    1
  2048  1111  1109    2
  2049  1427  1429   ar
  2050  1427  1426   ar
  2051  1689  1688    1
  2052  1689  1685    1
  2053  1701  1687    1
  2054  1701  1702    1
  2055  1706  1705    1
  2056  1399  1401    1
  2057  1399  1400    1
  2058  1161  1160    1
  2059  1161  1157    1
  2060  1686  1688    1
  2061  1686  1687    1
  2062  1686  1684    1
  2063  1141  1140   ar
  2064  1685  1684    1
  2065  1425  1426   ar
  2066  1425  1424   ar
  2067  1120  1119    1
  2068  1174  1173    1
  2069  1160  1158    1
  2070  1446  1445    2
  2071  1140  1139    1
  2072  1429  1430   ar
  2073  1414  1412    2
  2074  1173  1170    1
  2075  1426  1432   ar
  2076  1445  1444   ar
  2077  1683  1684    1
  2078  1098  1109    1
  2079  1450  1452    1
  2080  1450  1451   ar
  2081  1481  1480    1
  2082  1109  1112    1
  2083  1109  1110    1
  2084  1400  1412    1
  2085  1424  1423   ar
  2086  1157  1156    1
  2087  1112  1113    1
  2088  1158  1156    1
  2089  1158  1159    1
  2090  1444  1451   ar
  2091  1444  1443    1
  2092  1119  1118    1
  2093  1119  1115    1
  2094  1480  1482    1
  2095  1480  1478    1
  2096  1412  1415    1
  2097  1412  1413    1
  2098  1430  1431   ar
  2099  1139  1138    1
  2100  1139  1135    1
  2101  1131  1129    2
  2102  1432  1423   ar
  2103  1432  1431   ar
  2104  1170  1172    2
  2105  1170  1159    1
  2106  1170  1171    1
  2107  1489  1488    1
  2108  1482  1483    1
  2109  1474  1473    2
  2110  1118  1116    1
  2111  1488  1487   ar
  2112  1488  1490   ar
  2113  1115  1114    1
  2114  1487  1485   ar
  2115  1156  1155    1
  2116  1423  1422    1
  2117  1138  1136    1
  2118  1415  1416    1
  2119  1116  1114    1
  2120  1116  1117    1
  2121  1490  1491   ar
  2122  1442  1443    1
  2123  1442  1440    1
  2124  1485  1486    2
  2125  1485  1484   ar
  2126  1135  1134    1
  2127  1475  1473    1
  2128  1476  1473    1
  2129  1476  1477    1
  2130  1154  1155    1
  2131  1154  1151    1
  2132  1153  1151    2
  2133  1443  1439    1
  2134  1454  1453    1
  2135  1455  1453    1
  2136  1455  1441    1
  2137  1491  1484   ar
  2138  1484  1483    1
  2139  1113  1114    1
  2140  1473  1461    1
  2141  1132  1129    1
  2142  1132  1133    1
  2143  1136  1134    1
  2144  1136  1137    1
  2145  1478  1477    1
  2146  1478  1479    1
  2147  1129  1117    1
  2148  1129  1130    1
  2149  1483  1479    1
  2150  1435  1433    2
  2151  1440  1441    1
  2152  1440  1438    1
  2153  1453  1456    1
  2154  1151  1137    1
  2155  1151  1152    1
  2156  1134  1133    1
  2157  1422  1418    1
  2158  1422  1421    1
  2159  1418  1417    1
  2160  1416  1417    1
  2161  1419  1421    1
  2162  1419  1417    1
  2163  1419  1420    1
  2164  1439  1438    1
  2165  1456  1457    1
  2166  1436  1433    1
  2167  1436  1437    1
  2168  1461  1460    1
  2169  1438  1437    1
  2170  1472  1470    1
  2171  1433  1420    1
  2172  1433  1434    1
  2173  1469  1468    2
  2174  1460  1462    1
  2175  1460  1458    1
  2176  1468  1470   ar
  2177  1468  1467   ar
  2178  1470  1471   ar
  2179  1457  1458    1
  2180  1471  1464   ar
  2181  1467  1465   ar
  2182  1462  1463    1
  2183  1458  1459    1
  2184  1464  1465   ar
  2185  1464  1463    1
  2186  1465  1466    2
  2187  1463  1459    1
