@<TRIPOS>MOLECULE
dna.pdb
 1463 1639 0 0 0
SMALL
GASTEIGER

@<TRIPOS>ATOM
      1  O5'        6.4430  -12.4250    4.6890 O.3     1  DA1        -0.2176
      2  C5'        5.9820  -11.1710    5.1780 C.3     1  DA1         0.2140
      3  C4'        5.9320  -11.1240    6.6880 C.3     1  DA1         0.1776
      4  O4'        5.2660  -12.3100    7.1870 O.3     1  DA1        -0.3326
      5  C3'        7.2720  -11.1020    7.4090 C.3     1  DA1         0.1559
      6  O3'        7.7860   -9.7870    7.5300 O.3     1  DA1        -0.3138
      7  C2'        6.9740  -11.7570    8.7560 C.3     1  DA1         0.0865
      8  C1'        5.8350  -12.7160    8.4120 C.3     1  DA1         0.2094
      9  N9         6.3230  -14.1040    8.2740 N.ar    1  DA1        -0.2714
     10  C8         6.4400  -14.8440    7.1260 C.ar    1  DA1         0.1815
     11  N7         7.0430  -15.9960    7.2980 N.ar    1  DA1        -0.2193
     12  C5         7.3430  -16.0140    8.6510 C.ar    1  DA1         0.1518
     13  C6         7.9850  -16.9650    9.4650 C.ar    1  DA1         0.1919
     14  N6         8.4570  -18.1280    9.0110 N.pl3   1  DA1        -0.1054
     15  N1         8.1260  -16.6740   10.7760 N.ar    1  DA1        -0.2040
     16  C2         7.6520  -15.5080   11.2290 C.ar    1  DA1         0.2016
     17  N3         7.0310  -14.5370   10.5640 N.ar    1  DA1        -0.2048
     18  C4         6.9070  -14.8560    9.2650 C.ar    1  DA1         0.1691
     19  P          9.2170   -9.4820    7.4770 P.3     2  DT2         0.2141
     20  OP1       10.0320  -10.3510    8.3560 O.3     2  DT2        -0.4373
     21  OP2        9.3760   -8.0130    7.5350 O.2     2  DT2        -0.5172
     22  O5'        9.4220   -9.9360    5.9560 O.3     2  DT2        -0.3114
     23  C5'       10.6370  -10.5480    5.5520 C.3     2  DT2         0.1811
     24  C4'       11.1040  -10.0390    4.1980 C.3     2  DT2         0.1746
     25  O4'        9.9760   -9.6650    3.3670 O.3     2  DT2        -0.3327
     26  C3'       11.9340   -8.7660    4.2360 C.3     2  DT2         0.1558
     27  O3'       13.2670   -9.0570    4.6330 O.3     2  DT2        -0.3138
     28  C2'       11.8570   -8.3410    2.7730 C.3     2  DT2         0.0866
     29  C1'       10.4190   -8.7120    2.4140 C.3     2  DT2         0.2106
     30  N1         9.7090   -7.4960    2.2540 N.ar    2  DT2        -0.2559
     31  C2         9.6930   -6.8400    1.0380 C.ar    2  DT2         0.3545
     32  O2        10.2640   -7.2620    0.0480 O.2     2  DT2        -0.2443
     33  N3         8.9800   -5.6660    1.0210 N.ar    2  DT2        -0.1533
     34  C4         8.2980   -5.0940    2.0750 C.ar    2  DT2         0.2804
     35  O4         7.7020   -4.0330    1.9050 O.2     2  DT2        -0.2654
     36  C5         8.3630   -5.8340    3.3030 C.ar    2  DT2         0.0534
     37  C6         9.0490   -6.9790    3.3480 C.ar    2  DT2         0.0824
     38  C7         7.6530   -5.2930    4.5080 C.3     2  DT2         0.0377
     39  P         13.9010   -8.1210    5.4170 P.3     3  DC3         0.2141
     40  OP1       14.8540   -9.0850    6.0410 O.2     3  DC3        -0.5172
     41  OP2       12.9930   -7.2960    6.2580 O.3     3  DC3        -0.4373
     42  O5'       14.6630   -7.0320    4.4930 O.3     3  DC3        -0.3114
     43  C5'       15.6920   -7.4800    3.6250 C.3     3  DC3         0.1811
     44  C4'       15.7040   -6.7460    2.3050 C.3     3  DC3         0.1746
     45  O4'       14.3700   -6.5740    1.7440 O.3     3  DC3        -0.3327
     46  C3'       16.1940   -5.3240    2.3700 C.3     3  DC3         0.1558
     47  O3'       17.5700   -5.2750    2.5310 O.3     3  DC3        -0.3138
     48  C2'       15.8100   -4.8580    0.9770 C.3     3  DC3         0.0866
     49  C1'       14.4000   -5.4360    0.8950 C.3     3  DC3         0.2106
     50  N1        13.3910   -4.4690    1.3260 N.ar    3  DC3        -0.2556
     51  C2        13.0560   -3.3230    0.5960 C.ar    3  DC3         0.3531
     52  O2        13.6960   -3.0650   -0.4380 O.2     3  DC3        -0.2443
     53  N3        12.0500   -2.5320    1.0370 N.ar    3  DC3        -0.1739
     54  C4        11.3920   -2.8480    2.1530 C.ar    3  DC3         0.1759
     55  N4        10.4070   -2.0370    2.5480 N.pl3   3  DC3        -0.1070
     56  C5        11.7160   -4.0040    2.9070 C.ar    3  DC3         0.0566
     57  C6        12.7110   -4.7840    2.4680 C.ar    3  DC3         0.0849
     58  P         18.3060   -3.9070    3.3020 P.3     4  DC4         0.2141
     59  OP1       19.7570   -4.1780    3.1290 O.2     4  DC4        -0.5172
     60  OP2       17.8650   -3.0110    4.3940 O.3     4  DC4        -0.4373
     61  O5'       17.7150   -3.3280    1.9350 O.3     4  DC4        -0.3114
     62  C5'       18.3870   -3.5360    0.6910 C.3     4  DC4         0.1811
     63  C4'       18.1910   -2.3400   -0.2120 C.3     4  DC4         0.1746
     64  O4'       16.7850   -2.2590   -0.5830 O.3     4  DC4        -0.3327
     65  C3'       18.4690   -0.9960    0.4470 C.3     4  DC4         0.1558
     66  O3'       19.8340   -0.6080    0.5010 O.3     4  DC4        -0.3138
     67  C2'       17.5960   -0.0370   -0.3470 C.3     4  DC4         0.0866
     68  C1'       16.3660   -0.9030   -0.6070 C.3     4  DC4         0.2106
     69  N1        15.3140   -0.7690    0.4380 N.ar    4  DC4        -0.2556
     70  C2        14.3930    0.2700    0.2550 C.ar    4  DC4         0.3531
     71  O2        14.4090    0.9000   -0.8160 O.2     4  DC4        -0.2443
     72  N3        13.5170    0.5560    1.2470 N.ar    4  DC4        -0.1739
     73  C4        13.5370   -0.1470    2.3800 C.ar    4  DC4         0.1759
     74  N4        12.6540    0.1720    3.3290 N.pl3   4  DC4        -0.1070
     75  C5        14.4620   -1.2030    2.5850 C.ar    4  DC4         0.0566
     76  C6        15.3260   -1.4830    1.6030 C.ar    4  DC4         0.0849
     77  P         20.3510    0.6900    1.6500 P.3     5  DG5         0.2141
     78  OP1       21.7990    0.9880    1.7720 O.2     5  DG5        -0.5172
     79  OP2       19.5900    0.2400    2.8490 O.3     5  DG5        -0.4373
     80  O5'       19.5940    1.9590    1.0640 O.3     5  DG5        -0.3114
     81  C5'       19.6210    2.2420   -0.3310 C.3     5  DG5         0.1811
     82  C4'       18.6030    3.3000   -0.6600 C.3     5  DG5         0.1746
     83  O4'       17.2700    2.7460   -0.5100 O.3     5  DG5        -0.3327
     84  C3'       18.6080    4.4860    0.2880 C.3     5  DG5         0.1558
     85  O3'       19.6400    5.4180   -0.0010 O.3     5  DG5        -0.3138
     86  C2'       17.2020    5.0390    0.1220 C.3     5  DG5         0.0865
     87  C1'       16.3960    3.7440    0.0010 C.3     5  DG5         0.2094
     88  N9        15.8440    3.1740    1.3130 N.ar    5  DG5        -0.2713
     89  C8        16.2270    2.0460    1.9970 C.ar    5  DG5         0.1816
     90  N7        15.5150    1.8260    3.0690 N.ar    5  DG5        -0.2173
     91  C5        14.6060    2.8670    3.0960 C.ar    5  DG5         0.1748
     92  C6        13.5750    3.1680    4.0230 C.ar    5  DG5         0.3023
     93  O6        13.2540    2.5430    5.0410 O.2     5  DG5        -0.2633
     94  N1        12.8840    4.3250    3.6750 N.ar    5  DG5        -0.1709
     95  C2        13.1530    5.0970    2.5700 C.ar    5  DG5         0.2606
     96  N2        12.3770    6.1760    2.4000 N.pl3   5  DG5        -0.0859
     97  N3        14.1070    4.8300    1.7000 N.ar    5  DG5        -0.1918
     98  C4        14.7930    3.7120    2.0190 C.ar    5  DG5         0.1722
     99  P         20.5550    6.1710    1.3030 P.3     6  DT6         0.2141
    100  OP1       21.7980    6.7470    0.7200 O.2     6  DT6        -0.5172
    101  OP2       20.6470    5.2880    2.4970 O.3     6  DT6        -0.4373
    102  O5'       19.5410    7.3470    1.6830 O.3     6  DT6        -0.3114
    103  C5'       19.2540    8.4170    0.7480 C.3     6  DT6         0.1811
    104  C4'       18.1110    9.2810    1.2490 C.3     6  DT6         0.1746
    105  O4'       16.8880    8.5030    1.2850 O.3     6  DT6        -0.3327
    106  C3'       18.2330    9.8640    2.6500 C.3     6  DT6         0.1558
    107  O3'       19.0030   11.0610    2.6750 O.3     6  DT6        -0.3138
    108  C2'       16.7800   10.1230    3.0360 C.3     6  DT6         0.0866
    109  C1'       16.0530    8.9750    2.3300 C.3     6  DT6         0.2106
    110  N1        15.7640    7.8930    3.2590 N.ar    6  DT6        -0.2559
    111  C2        14.5700    7.9430    3.9540 C.ar    6  DT6         0.3545
    112  O2        13.7600    8.8420    3.8170 O.2     6  DT6        -0.2443
    113  N3        14.3580    6.8980    4.8200 N.ar    6  DT6        -0.1533
    114  C4        15.2000    5.8310    5.0570 C.ar    6  DT6         0.2804
    115  O4        14.8700    4.9680    5.8660 O.2     6  DT6        -0.2654
    116  C5        16.4190    5.8510    4.2980 C.ar    6  DT6         0.0534
    117  C6        16.6510    6.8560    3.4490 C.ar    6  DT6         0.0824
    118  C7        17.4020    4.7330    4.4850 C.3     6  DT6         0.0377
    119  P         19.6270   11.5160    3.8280 P.3     7  DC7         0.2141
    120  OP1       20.4010   12.7300    3.4480 O.2     7  DC7        -0.5172
    121  OP2       20.1160   10.6330    4.9220 O.3     7  DC7        -0.4373
    122  O5'       18.1150   11.8510    4.2010 O.3     7  DC7        -0.3114
    123  C5'       17.7590   11.9380    5.5630 C.3     7  DC7         0.1811
    124  C4'       16.3710   12.4920    5.7400 C.3     7  DC7         0.1746
    125  O4'       15.3830   11.4700    5.4350 O.3     7  DC7        -0.3327
    126  C3'       16.2240   12.7610    7.2240 C.3     7  DC7         0.1558
    127  O3'       16.5680   14.1110    7.4370 O.3     7  DC7        -0.3138
    128  C2'       14.7840   12.4080    7.5360 C.3     7  DC7         0.0866
    129  C1'       14.5580   11.2450    6.5640 C.3     7  DC7         0.2106
    130  N1        14.8870    9.8840    7.0490 N.ar    7  DC7        -0.2556
    131  C2        14.0780    9.3430    8.0550 C.ar    7  DC7         0.3531
    132  O2        13.0660    9.9710    8.4110 O.2     7  DC7        -0.2443
    133  N3        14.4210    8.1560    8.6110 N.ar    7  DC7        -0.1739
    134  C4        15.5170    7.5180    8.1980 C.ar    7  DC7         0.1759
    135  N4        15.8150    6.3520    8.7740 N.pl3   7  DC7        -0.1070
    136  C5        16.3500    8.0490    7.1800 C.ar    7  DC7         0.0566
    137  C6        16.0080    9.2210    6.6340 C.ar    7  DC7         0.0849
    138  P         17.8630   14.5330    8.6450 P.3     8  DA8         0.2141
    139  OP1       18.1790   15.9650    8.8910 O.3     8  DA8        -0.4373
    140  OP2       18.9280   13.5160    8.8160 O.2     8  DA8        -0.5172
    141  O5'       16.6230   14.1170    9.5520 O.3     8  DA8        -0.3114
    142  C5'       15.3840   14.8420    9.4860 C.3     8  DA8         0.1811
    143  C4'       14.3350   14.1330   10.3050 C.3     8  DA8         0.1746
    144  O4'       14.1880   12.7860    9.8000 O.3     8  DA8        -0.3327
    145  C3'       14.6800   13.9640   11.7760 C.3     8  DA8         0.1558
    146  O3'       14.2200   15.1140   12.4830 O.3     8  DA8        -0.3138
    147  C2'       13.8790   12.7260   12.1690 C.3     8  DA8         0.0865
    148  C1'       13.9000   11.9110   10.8740 C.3     8  DA8         0.2094
    149  N9        14.8200   10.8030   10.8000 N.ar    8  DA8        -0.2714
    150  C8        16.0120   10.6540   10.1400 C.ar    8  DA8         0.1815
    151  N7        16.7080    9.6140   10.5330 N.ar    8  DA8        -0.2193
    152  C5        15.9200    9.0410   11.5190 C.ar    8  DA8         0.1518
    153  C6        16.0970    7.9070   12.3300 C.ar    8  DA8         0.1919
    154  N6        17.1700    7.1150   12.2700 N.pl3   8  DA8        -0.1054
    155  N1        15.1210    7.6110   13.2150 N.ar    8  DA8        -0.2040
    156  C2        14.0460    8.4050   13.2740 C.ar    8  DA8         0.2016
    157  N3        13.7660    9.4960   12.5640 N.ar    8  DA8        -0.2048
    158  C4        14.7550    9.7630   11.6950 C.ar    8  DA8         0.1691
    159  P         15.1580   15.8670   13.7340 P.3     9  DC9         0.2141
    160  OP1       14.7850   17.2770   14.0110 O.3     9  DC9        -0.4373
    161  OP2       16.4340   15.5790   13.0320 O.2     9  DC9        -0.5172
    162  O5'       15.0480   14.9990   15.0620 O.3     9  DC9        -0.3114
    163  C5'       13.9060   15.0930   15.9090 C.3     9  DC9         0.1811
    164  C4'       13.9750   14.0150   16.9570 C.3     9  DC9         0.1746
    165  O4'       13.9790   12.7060   16.3320 O.3     9  DC9        -0.3327
    166  C3'       15.2340   14.0290   17.8040 C.3     9  DC9         0.1558
    167  O3'       15.1530   14.9810   18.8480 O.3     9  DC9        -0.3138
    168  C2'       15.3270   12.5810   18.2780 C.3     9  DC9         0.0866
    169  C1'       14.8180   11.8260   17.0500 C.3     9  DC9         0.2106
    170  N1        15.8480   11.3820   16.1260 N.ar    9  DC9        -0.2556
    171  C2        16.5960   10.2810   16.5570 C.ar    9  DC9         0.3531
    172  O2        16.2160    9.6550   17.5610 O.2     9  DC9        -0.2443
    173  N3        17.7100    9.9310   15.8710 N.ar    9  DC9        -0.1739
    174  C4        18.0810   10.6330   14.8000 C.ar    9  DC9         0.1759
    175  N4        19.1870   10.2520   14.1550 N.pl3   9  DC9        -0.1070
    176  C5        17.3370   11.7520   14.3470 C.ar    9  DC9         0.0566
    177  C6        16.2370   12.0940   15.0270 C.ar    9  DC9         0.0849
    178  P         16.5620   15.6650   19.5010 P.3    10  DA10        0.2141
    179  OP1       16.0390   16.7670   20.3640 O.3    10  DA10       -0.4373
    180  OP2       17.9220   15.7530   18.9100 O.2    10  DA10       -0.5172
    181  O5'       16.5060   14.3060   20.3110 O.3    10  DA10       -0.3114
    182  C5'       16.5480   14.3020   21.7100 C.3    10  DA10        0.1811
    183  C4'       17.2730   13.0850   22.1800 C.3    10  DA10        0.1746
    184  O4'       17.2680   12.1030   21.1210 O.3    10  DA10       -0.3327
    185  C3'       18.7480   13.2450   22.3950 C.3    10  DA10        0.1558
    186  O3'       18.9810   13.9320   23.5690 O.3    10  DA10       -0.3138
    187  C2'       19.2300   11.8160   22.3780 C.3    10  DA10        0.0865
    188  C1'       18.4250   11.2890   21.2110 C.3    10  DA10        0.2094
    189  N9        19.1810   11.3980   20.1070 N.ar   10  DA10       -0.2714
    190  C8        18.8090   12.2290   19.0830 C.ar   10  DA10        0.1815
    191  N7        19.5740   12.1360   18.0220 N.ar   10  DA10       -0.2193
    192  C5        20.5130   11.1790   18.3730 C.ar   10  DA10        0.1518
    193  C6        21.6040   10.6260   17.6810 C.ar   10  DA10        0.1919
    194  N6        21.9450   10.9750   16.4380 N.pl3  10  DA10       -0.1054
    195  N1        22.3420    9.6920   18.3180 N.ar   10  DA10       -0.2040
    196  C2        22.0000    9.3420   19.5630 C.ar   10  DA10        0.2016
    197  N3        20.9970    9.7890   20.3160 N.ar   10  DA10       -0.2048
    198  C4        20.2840   10.7160   19.6550 C.ar   10  DA10        0.1691
    199  P         19.8690   15.0070   23.4720 P.3    11  DC11        0.2141
    200  OP1       19.3360   15.7920   24.5740 O.3    11  DC11       -0.4373
    201  OP2       20.5420   15.6880   22.3250 O.2    11  DC11       -0.5172
    202  O5'       20.8510   13.8230   23.9730 O.3    11  DC11       -0.3114
    203  C5'       21.0260   13.1740   25.2020 C.3    11  DC11        0.1811
    204  C4'       22.0600   12.0500   25.0520 C.3    11  DC11        0.1746
    205  O4'       21.7360   11.2210   23.9100 O.3    11  DC11       -0.3327
    206  C3'       23.4460   12.4800   24.7020 C.3    11  DC11        0.1558
    207  O3'       23.9690   13.0400   25.8740 O.3    11  DC11       -0.3138
    208  C2'       24.0440   11.1490   24.2230 C.3    11  DC11        0.0866
    209  C1'       22.9120   10.7110   23.2790 C.3    11  DC11        0.2106
    210  N1        23.0610   11.1740   22.0030 N.ar   11  DC11       -0.2556
    211  C2        24.0510   10.7120   21.1270 C.ar   11  DC11        0.3531
    212  O2        24.8480    9.8470   21.5290 O.2    11  DC11       -0.2443
    213  N3        24.1100   11.2190   19.8730 N.ar   11  DC11       -0.1739
    214  C4        23.2340   12.1460   19.4850 C.ar   11  DC11        0.1759
    215  N4        23.3320   12.6160   18.2390 N.pl3  11  DC11       -0.1070
    216  C5        22.2240   12.6280   20.3570 C.ar   11  DC11        0.0566
    217  C6        22.1680   12.1250   21.5950 C.ar   11  DC11        0.0849
    218  P         25.0410   14.1550   25.7760 P.3    12  DC12        0.2141
    219  OP1       25.5300   14.7690   27.0290 O.3    12  DC12       -0.4373
    220  OP2       24.2320   14.9380   24.8150 O.2    12  DC12       -0.5172
    221  O5'       26.3020   13.5820   24.9950 O.3    12  DC12       -0.3114
    222  C5'       27.4110   13.1120   25.7320 C.3    12  DC12        0.1811
    223  C4'       28.2480   12.2290   24.8390 C.3    12  DC12        0.1746
    224  O4'       27.3870   11.5250   23.9090 O.3    12  DC12       -0.3327
    225  C3'       29.1620   12.9800   23.8970 C.3    12  DC12        0.1558
    226  O3'       30.2850   13.4710   24.5800 O.3    12  DC12       -0.3138
    227  C2'       29.5030   11.8630   22.9240 C.3    12  DC12        0.0866
    228  C1'       28.1050   11.2910   22.7040 C.3    12  DC12        0.2106
    229  N1        27.4240   11.9810   21.6070 N.ar   12  DC12       -0.2556
    230  C2        27.6900   11.6490   20.2740 C.ar   12  DC12        0.3531
    231  O2        28.6080   10.8490   20.0290 O.2    12  DC12       -0.2443
    232  N3        26.9420   12.2090   19.2930 N.ar   12  DC12       -0.1739
    233  C4        25.9670   13.0650   19.6040 C.ar   12  DC12        0.1759
    234  N4        25.2560   13.5910   18.6040 N.pl3  12  DC12       -0.1070
    235  C5        25.6820   13.4140   20.9480 C.ar   12  DC12        0.0566
    236  C6        26.4230   12.8590   21.9140 C.ar   12  DC12        0.0849
    237  P         30.5360   14.8870   24.3580 P.3    13  DT13        0.2141
    238  OP1       30.9290   15.0640   25.7780 O.3    13  DT13       -0.4373
    239  OP2       29.1980   15.3250   23.9040 O.2    13  DT13       -0.5172
    240  O5'       31.5520   15.6530   23.3870 O.3    13  DT13       -0.3114
    241  C5'       32.8640   15.1750   23.1650 C.3    13  DT13        0.1811
    242  C4'       33.0430   14.7310   21.7260 C.3    13  DT13        0.1746
    243  O4'       31.8540   14.0080   21.3010 O.3    13  DT13       -0.3327
    244  C3'       33.1960   15.7530   20.5990 C.3    13  DT13        0.1558
    245  O3'       34.5130   16.2950   20.5290 O.3    13  DT13       -0.3138
    246  C2'       32.9830   14.8420   19.3980 C.3    13  DT13        0.0866
    247  C1'       31.8120   13.9900   19.8820 C.3    13  DT13        0.2106
    248  N1        30.6180   14.4350   19.3290 N.ar   13  DT13       -0.2559
    249  C2        30.2460   14.1390   18.0320 C.ar   13  DT13        0.3545
    250  O2        30.9820   13.5760   17.2410 O.2    13  DT13       -0.2443
    251  N3        28.9730   14.5280   17.6890 N.ar   13  DT13       -0.1533
    252  C4        28.0570   15.1690   18.4960 C.ar   13  DT13        0.2804
    253  O4        26.9500   15.4550   18.0460 O.2    13  DT13       -0.2654
    254  C5        28.5180   15.4430   19.8280 C.ar   13  DT13        0.0534
    255  C6        29.7510   15.0750   20.1870 C.ar   13  DT13        0.0824
    256  C7        27.5930   16.1390   20.7830 C.3    13  DT13        0.0377
    257  P         34.5860   17.4960   20.0200 P.3    14  DG14        0.2141
    258  OP1       35.9800   17.5750   20.5240 O.3    14  DG14       -0.4373
    259  OP2       33.6000   18.5300   20.4270 O.2    14  DG14       -0.5172
    260  O5'       34.6220   17.4850   18.4210 O.3    14  DG14       -0.3114
    261  C5'       35.6800   16.8300   17.7190 C.3    14  DG14        0.1811
    262  C4'       35.2620   16.4950   16.3050 C.3    14  DG14        0.1746
    263  O4'       33.9740   15.8300   16.3580 O.3    14  DG14       -0.3327
    264  C3'       35.0670   17.6550   15.3390 C.3    14  DG14        0.1558
    265  O3'       36.2790   17.9680   14.6490 O.3    14  DG14       -0.3138
    266  C2'       34.0350   17.1130   14.3530 C.3    14  DG14        0.0865
    267  C1'       33.2070   16.1780   15.2240 C.3    14  DG14        0.2093
    268  N9        31.9960   16.6090   15.7930 N.ar   14  DG14       -0.2728
    269  C8        31.7590   17.0130   17.0850 C.ar   14  DG14        0.1814
    270  N7        30.5700   17.5220   17.2550 N.ar   14  DG14       -0.2177
    271  C5        29.9830   17.4490   16.0060 C.ar   14  DG14        0.1711
    272  C6        28.6950   17.8490   15.5660 C.2    14  DG14        0.2985
    273  O6        27.7870   18.3680   16.2270 O.2    14  DG14       -0.2655
    274  N1        28.5050   17.5960   14.2100 N.am   14  DG14       -0.1042
    275  C2        29.4410   17.0260   13.3810 C.1    14  DG14        0.1460
    276  N2        29.0750   16.8590   12.1030 N.2    14  DG14       -0.0024
    277  N3        30.6420   16.6490   13.7750 N.pl3  14  DG14       -0.1259
    278  C4        30.8480   16.8870   15.0870 C.ar   14  DG14        0.1688
    279  P         36.3920   19.3660   13.5110 P.3    15  DC15        0.2141
    280  OP1       37.7190   19.1760   12.8310 O.2    15  DC15       -0.5172
    281  OP2       35.9470   20.7550   13.8570 O.3    15  DC15       -0.4373
    282  O5'       35.2550   18.6750   12.6170 O.3    15  DC15       -0.3114
    283  C5'       35.4570   18.4670   11.2190 C.3    15  DC15        0.1811
    284  C4'       34.2920   18.9930   10.4140 C.3    15  DC15        0.1746
    285  O4'       33.0640   18.4780   10.9970 O.3    15  DC15       -0.3327
    286  C3'       34.0550   20.5040   10.3300 C.3    15  DC15        0.1558
    287  O3'       34.8350   21.1470    9.3090 O.3    15  DC15       -0.3138
    288  C2'       32.5750   20.5610    9.9640 C.3    15  DC15        0.0866
    289  C1'       32.0020   19.4000   10.7790 C.3    15  DC15        0.2106
    290  N1        31.3620   19.7140   12.0260 N.ar   15  DC15       -0.2556
    291  C2        30.0600   20.2250   11.9600 C.ar   15  DC15        0.3531
    292  O2        29.5150   20.3290   10.8480 O.2    15  DC15       -0.2443
    293  N3        29.4360   20.5890   13.1050 N.ar   15  DC15       -0.1739
    294  C4        30.0600   20.4600   14.2760 C.ar   15  DC15        0.1759
    295  N4        29.4050   20.8320   15.3780 N.pl3  15  DC15       -0.1070
    296  C5        31.3790   19.9450   14.3650 C.ar   15  DC15        0.0566
    297  C6        31.9920   19.5860   13.2320 C.ar   15  DC15        0.0849
    298  P         35.1590   22.7760    9.3860 P.3    16  DT16        0.2141
    299  OP1       36.1600   23.1530    8.3510 O.2    16  DT16       -0.5172
    300  OP2       35.5900   22.6880   10.8040 O.3    16  DT16       -0.4373
    301  O5'       33.9270   23.8000    9.3370 O.3    16  DT16       -0.3114
    302  C5'       33.6260   24.5930    8.1580 C.3    16  DT16        0.1811
    303  C4'       32.2500   25.2310    8.2760 C.3    16  DT16        0.1746
    304  O4'       31.3830   24.2970    8.9680 O.3    16  DT16       -0.3327
    305  C3'       32.1060   26.5350    9.0570 C.3    16  DT16        0.1558
    306  O3'       32.3360   27.6730    8.2190 O.3    16  DT16       -0.3138
    307  C2'       30.6500   26.4780    9.5040 C.3    16  DT16        0.0866
    308  C1'       30.4700   24.9930    9.7880 C.3    16  DT16        0.2106
    309  N1        30.9040   24.5600   11.3610 N.ar   16  DT16       -0.2559
    310  C2        29.9590   24.8620   12.3230 C.ar   16  DT16        0.3545
    311  O2        28.8800   25.3620   12.0600 O.2    16  DT16       -0.2443
    312  N3        30.3240   24.5580   13.6120 N.ar   16  DT16       -0.1533
    313  C4        31.5130   23.9950   14.0270 C.ar   16  DT16        0.2804
    314  O4        31.6960   23.7790   15.2220 O.2    16  DT16       -0.2654
    315  C5        32.4420   23.7110   12.9700 C.ar   16  DT16        0.0534
    316  C6        32.1130   23.9970   11.7070 C.ar   16  DT16        0.0824
    317  C7        33.7650   23.0970   13.3200 C.3    16  DT16        0.0377
    318  P         32.5570   28.8660    8.8180 P.3    17  DC17        0.2141
    319  OP1       32.9010   29.6070    7.5740 O.2    17  DC17       -0.5172
    320  OP2       33.6000   28.6260    9.8460 O.3    17  DC17       -0.4373
    321  O5'       31.3340   29.6170    9.4990 O.3    17  DC17       -0.3114
    322  C5'       30.2080   29.9990    8.7260 C.3    17  DC17        0.1811
    323  C4'       29.0890   30.4470    9.6250 C.3    17  DC17        0.1746
    324  O4'       28.7250   29.3580   10.5250 O.3    17  DC17       -0.3327
    325  C3'       29.3910   31.6420   10.5290 C.3    17  DC17        0.1558
    326  O3'       28.1560   32.3210   10.7010 O.3    17  DC17       -0.3138
    327  C2'       29.7830   30.9480   11.8300 C.3    17  DC17        0.0866
    328  C1'       28.7410   29.8360   11.8500 C.3    17  DC17        0.2106
    329  N1        29.0300   28.9090   12.6490 N.ar   17  DC17       -0.2556
    330  C2        28.4160   28.7030   13.8900 C.ar   17  DC17        0.3531
    331  O2        27.1960   28.9180   13.9970 O.2    17  DC17       -0.2443
    332  N3        29.1660   28.2780   14.9350 N.ar   17  DC17       -0.1739
    333  C4        30.4720   28.0620   14.7740 C.ar   17  DC17        0.1759
    334  N4        31.1710   27.6430   15.8320 N.pl3  17  DC17       -0.1070
    335  C5        31.1130   28.2640   13.5250 C.ar   17  DC17        0.0566
    336  C6        30.3690   28.6840   12.4960 C.ar   17  DC17        0.0849
    337  P         28.3000   33.5940   10.7890 P.3    18  DT18        0.2141
    338  OP1       27.7290   34.6750    9.9540 O.2    18  DT18       -0.5172
    339  OP2       29.7040   33.6550   11.2550 O.3    18  DT18       -0.4373
    340  O5'       27.4490   33.4650   12.1410 O.3    18  DT18       -0.3114
    341  C5'       26.0390   33.6240   12.1140 C.3    18  DT18        0.1811
    342  C4'       25.3640   32.9630   13.2920 C.3    18  DT18        0.1746
    343  O4'       26.0310   31.7170   13.6120 O.3    18  DT18       -0.3327
    344  C3'       25.3690   33.7250   14.6060 C.3    18  DT18        0.1558
    345  O3'       24.3620   34.7190   14.6540 O.3    18  DT18       -0.3138
    346  C2'       25.1360   32.6060   15.6090 C.3    18  DT18        0.0866
    347  C1'       25.9270   31.4620   14.9890 C.3    18  DT18        0.2106
    348  N1        27.2840   31.2530   15.5290 N.ar   18  DT18       -0.2559
    349  C2        27.4230   30.6560   16.7670 C.ar   18  DT18        0.3545
    350  O2        26.4740   30.3210   17.4530 O.2    18  DT18       -0.2443
    351  N3        28.7200   30.4650   17.1780 N.ar   18  DT18       -0.1533
    352  C4        29.8670   30.8040   16.4900 C.ar   18  DT18        0.2804
    353  O4        30.9640   30.5680   16.9900 O.2    18  DT18       -0.2654
    354  C5        29.6400   31.4200   15.2130 C.ar   18  DT18        0.0534
    355  C6        28.3880   31.6170   14.7890 C.ar   18  DT18        0.0824
    356  C7        30.8250   31.8260   14.3880 C.3    18  DT18        0.0377
    357  P         24.2360   35.8190   15.6600 P.3    19  DA19        0.2141
    358  OP1       23.1000   35.9030   14.7120 O.2    19  DA19       -0.5172
    359  OP2       24.5920   36.9960   16.4730 O.3    19  DA19       -0.4373
    360  O5'       23.9670   34.5970   16.6430 O.3    19  DA19       -0.3114
    361  C5'       25.0600   33.9040   17.2810 C.3    19  DA19        0.1811
    362  C4'       24.8270   33.8330   18.7690 C.3    19  DA19        0.1746
    363  O4'       24.7170   35.1880   19.2670 O.3    19  DA19       -0.3327
    364  C3'       23.5300   33.1600   19.1970 C.3    19  DA19        0.1558
    365  O3'       23.7250   31.7550   19.3750 O.3    19  DA19       -0.3138
    366  C2'       23.2520   33.8080   20.5470 C.3    19  DA19        0.0865
    367  C1'       23.7880   35.2270   20.3330 C.3    19  DA19        0.2094
    368  N9        22.4860   36.1720   20.0220 N.ar   19  DA19       -0.2714
    369  C8        21.1690   36.5470   19.9710 C.ar   19  DA19        0.1815
    370  N7        20.9800   37.8380   20.1060 N.ar   19  DA19       -0.2193
    371  C5        22.2610   38.3460   20.2590 C.ar   19  DA19        0.1518
    372  C6        22.7440   39.6540   20.4450 C.ar   19  DA19        0.1919
    373  N6        21.9570   40.7300   20.5100 N.pl3  19  DA19       -0.1054
    374  N1        24.0790   39.8170   20.5620 N.ar   19  DA19       -0.2040
    375  C2        24.8660   38.7380   20.4950 C.ar   19  DA19        0.2016
    376  N3        24.5310   37.4620   20.3220 N.ar   19  DA19       -0.2048
    377  C4        23.1980   37.3320   20.2100 C.ar   19  DA19        0.1691
    378  P         22.8380   30.3860   18.5180 P.3    20  DT20        0.2141
    379  OP1       21.4120   30.1600   18.8640 O.2    20  DT20       -0.5172
    380  OP2       23.8930   29.6150   19.2220 O.3    20  DT20       -0.4373
    381  O5'       23.0100   30.1760   16.9520 O.3    20  DT20       -0.3114
    382  C5'       22.1320   30.8310   16.0200 C.3    20  DT20        0.1811
    383  C4'       22.1650   30.1190   14.6920 C.3    20  DT20        0.1746
    384  O4'       23.4900   30.2440   14.1160 O.3    20  DT20       -0.3327
    385  C3'       21.9240   28.6190   14.7710 C.3    20  DT20        0.1558
    386  O3'       20.5360   28.3270   14.7600 O.3    20  DT20       -0.3138
    387  C2'       22.6210   28.1170   13.5180 C.3    20  DT20        0.0866
    388  C1'       23.8500   29.0280   13.4810 C.3    20  DT20        0.2106
    389  N1        24.9210   28.3230   14.1420 N.ar   20  DT20       -0.2559
    390  C2        25.6030   27.3630   13.4170 C.ar   20  DT20        0.3545
    391  O2        25.4290   27.1830   12.2250 O.2    20  DT20       -0.2443
    392  N3        26.5000   26.6160   14.1420 N.ar   20  DT20       -0.1533
    393  C4        26.7770   26.7300   15.4880 C.ar   20  DT20        0.2804
    394  O4        27.6110   25.9870   15.9990 O.2    20  DT20       -0.2654
    395  C5        26.0280   27.7480   16.1710 C.ar   20  DT20        0.0534
    396  C6        25.1500   28.4880   15.4900 C.ar   20  DT20        0.0824
    397  C7        26.2580   27.9500   17.6400 C.3    20  DT20        0.0377
    398  P         19.9930   26.9540   15.4730 P.3    21  DT21        0.2141
    399  OP1       18.5720   27.2680   15.3640 O.2    21  DT21       -0.5172
    400  OP2       20.6070   26.3840   16.7040 O.3    21  DT21       -0.4373
    401  O5'       20.5370   26.0660   14.2690 O.3    21  DT21       -0.3114
    402  C5'       19.7620   26.0600   13.1190 C.3    21  DT21        0.1811
    403  C4'       20.6890   25.7460   11.9770 C.3    21  DT21        0.1746
    404  O4'       21.9400   26.2420   12.3990 O.3    21  DT21       -0.3327
    405  C3'       21.0320   24.3070   11.7320 C.3    21  DT21        0.1558
    406  O3'       20.0540   23.6080   10.9430 O.3    21  DT21       -0.3138
    407  C2'       22.2920   24.5620   10.9650 C.3    21  DT21        0.0866
    408  C1'       22.9890   25.4660   11.8690 C.3    21  DT21        0.2106
    409  N1        23.7800   24.6880   12.8190 N.ar   21  DT21       -0.2559
    410  C2        24.9990   24.0920   12.5570 C.ar   21  DT21        0.3545
    411  O2        25.3980   23.8630   11.4280 O.2    21  DT21       -0.2443
    412  N3        25.7390   23.7690   13.6680 N.ar   21  DT21       -0.1533
    413  C4        25.3910   23.9780   14.9860 C.ar   21  DT21        0.2804
    414  O4        26.1630   23.6350   15.8780 O.2    21  DT21       -0.2654
    415  C5        24.1110   24.6010   15.1760 C.ar   21  DT21        0.0534
    416  C6        23.3700   24.9250   14.1130 C.ar   21  DT21        0.0824
    417  C7        23.6420   24.8710   16.5750 C.3    21  DT21        0.0377
    418  P         19.5010   22.2810   11.5520 P.3    22  DC22        0.2141
    419  OP1       18.1760   22.3120   10.8830 O.2    22  DC22       -0.5172
    420  OP2       19.5810   21.8490   12.9680 O.3    22  DC22       -0.4373
    421  O5'       20.4750   21.3640   10.6800 O.3    22  DC22       -0.3114
    422  C5'       20.6000   21.5720    9.2680 C.3    22  DC22        0.1811
    423  C4'       21.9150   21.0330    8.7530 C.3    22  DC22        0.1746
    424  O4'       23.0070   21.6830    9.4610 O.3    22  DC22       -0.3327
    425  C3'       22.1690   19.5480    8.9550 C.3    22  DC22        0.1558
    426  O3'       21.5990   18.7500    7.9270 O.3    22  DC22       -0.3138
    427  C2'       23.6910   19.4640    8.9480 C.3    22  DC22        0.0866
    428  C1'       24.0800   20.7710    9.6390 C.3    22  DC22        0.2106
    429  N1        24.3350   20.6050   11.0870 N.ar   22  DC22       -0.2556
    430  C2        25.5020   19.9540   11.5010 C.ar   22  DC22        0.3531
    431  O2        26.2750   19.5060   10.6370 O.2    22  DC22       -0.2443
    432  N3        25.7550   19.8310   12.8260 N.ar   22  DC22       -0.1739
    433  C4        24.8960   20.3270   13.7180 C.ar   22  DC22        0.1759
    434  N4        25.1870   20.1820   15.0130 N.pl3  22  DC22       -0.1070
    435  C5        23.7080   20.9900   13.3190 C.ar   22  DC22        0.0566
    436  C6        23.4620   21.1090   12.0100 C.ar   22  DC22        0.0849
    437  P         21.2210   17.6760    8.3040 P.3    23  DC23        0.2141
    438  OP1       20.3180   17.9830    7.1780 O.2    23  DC23       -0.5172
    439  OP2       20.6370   17.2430    9.5970 O.3    23  DC23       -0.4373
    440  O5'       22.2220   16.5490    7.8030 O.3    23  DC23       -0.3114
    441  C5'       23.2380   16.8950    6.8590 C.3    23  DC23        0.1811
    442  C4'       24.6190   16.5010    7.3510 C.3    23  DC23        0.1744
    443  O4'       25.1560   17.4160    8.3410 O.3    23  DC23       -0.3348
    444  C3'       24.7730   15.1600    8.0310 C.3    23  DC23        0.1555
    445  O3'       24.7070   14.1090    7.0940 O.3    23  DC23       -0.3139
    446  C2'       26.1720   15.2850    8.6150 C.3    23  DC23        0.0836
    447  C1'       26.1690   16.7400    9.0820 C.3    23  DC23        0.1999
    448  N1        25.8080   16.7380   10.4820 N.pl3  23  DC23       -0.2132
    449  C2        26.7420   16.4220   11.4750 C.2    23  DC23        0.4331
    450  O2        27.8640   16.0140   11.1310 O.2    23  DC23       -0.2850
    451  N3        26.3960   16.5690   12.7760 N.2    23  DC23        0.0237
    452  C4        25.1790   17.0090   13.0980 C.2    23  DC23        0.4172
    453  N4        24.8840   17.1370   14.3940 N.pl3  23  DC23        0.2162
    454  C5        24.2180   17.3350   12.1070 C.2    23  DC23        0.0937
    455  C6        24.5640   17.1880   10.8230 C.3    23  DC23        0.1340
    456  P         24.0650   12.6610    7.5460 P.3    24  DT24        0.2141
    457  OP1       23.7100   11.8710    6.3470 O.2    24  DT24       -0.5172
    458  OP2       23.1520   12.7290    8.7100 O.3    24  DT24       -0.4373
    459  O5'       25.4230   12.1070    8.1750 O.3    24  DT24       -0.3114
    460  C5'       26.6380   12.3790    7.5090 C.3    24  DT24        0.1811
    461  C4'       27.7780   12.4490    8.4860 C.3    24  DT24        0.1746
    462  O4'       27.6820   13.6500    9.2970 O.3    24  DT24       -0.3327
    463  C3'       27.8620   11.3430    9.5240 C.3    24  DT24        0.1558
    464  O3'       28.3100   10.1030    9.0010 O.3    24  DT24       -0.3138
    465  C2'       28.8080   11.9710   10.5390 C.3    24  DT24        0.0866
    466  C1'       28.3460   13.4280   10.5210 C.3    24  DT24        0.2106
    467  N1        27.3990   13.8200   11.5800 N.ar   24  DT24       -0.2559
    468  C2        27.9280   13.9090   12.8540 C.ar   24  DT24        0.3545
    469  O2        29.1090   13.7330   13.0960 O.2    24  DT24       -0.2443
    470  N3        27.0210   14.2120   13.8400 N.ar   24  DT24       -0.1533
    471  C4        25.6680   14.4290   13.6850 C.ar   24  DT24        0.2804
    472  O4        24.9810   14.6940   14.6680 O.2    24  DT24       -0.2654
    473  C5        25.1950   14.3180   12.3340 C.ar   24  DT24        0.0534
    474  C6        26.0550   14.0250   11.3550 C.ar   24  DT24        0.0824
    475  C7        23.7360   14.5370   12.0620 C.3    24  DT24        0.0377
    476  P         28.4110    8.7690    9.8250 P.3    25  DC25        0.2141
    477  OP1       29.3080    8.0850    8.8320 O.2    25  DC25       -0.5172
    478  OP2       27.3360    7.9710   10.5020 O.3    25  DC25       -0.4373
    479  O5'       29.3220    9.4530   10.9530 O.3    25  DC25       -0.3114
    480  C5'       30.6420    8.9730   11.2100 C.3    25  DC25        0.1811
    481  C4'       30.8550    8.7180   12.6830 C.3    25  DC25        0.1746
    482  O4'       30.4150    9.8920   13.4190 O.3    25  DC25       -0.3327
    483  C3'       30.1170    7.5600   13.3610 C.3    25  DC25        0.1558
    484  O3'       30.7860    6.2960   13.2170 O.3    25  DC25       -0.3138
    485  C2'       30.1440    7.9950   14.8240 C.3    25  DC25        0.0866
    486  C1'       29.9480    9.5080   14.7070 C.3    25  DC25        0.2106
    487  N1        28.5950    9.9030   14.8620 N.ar   25  DC25       -0.2556
    488  C2        28.0670    9.9580   16.1570 C.ar   25  DC25        0.3533
    489  O2        28.8290    9.7770   17.1220 O.2    25  DC25       -0.2443
    490  N3        26.7450   10.2050   16.3200 N.ar   25  DC25       -0.1698
    491  C4        25.9640   10.3910   15.2550 C.ar   25  DC25        0.2067
    492  N4        24.6680   10.6310   15.4650 N.4    25  DC25       -0.0555
    493  C5        26.4800   10.3390   13.9350 C.ar   25  DC25        0.0610
    494  C6        27.7860   10.0950   13.7780 C.ar   25  DC25        0.0852
    495  P         29.9760    4.8570   13.1630 P.3    26  DT26        0.2141
    496  OP1       30.6370    3.5810   12.7990 O.3    26  DT26       -0.4373
    497  OP2       28.9890    5.4960   12.2590 O.2    26  DT26       -0.5172
    498  O5'       29.1500    4.6710   14.5250 O.3    26  DT26       -0.3114
    499  C5'       29.7950    4.0990   15.6540 C.3    26  DT26        0.1811
    500  C4'       29.0070    4.2840   16.9280 C.3    26  DT26        0.1746
    501  O4'       28.7490    5.6930   17.1770 O.3    26  DT26       -0.3327
    502  C3'       27.6170    3.6730   16.9630 C.3    26  DT26        0.1558
    503  O3'       27.6040    2.2670   17.1200 O.3    26  DT26       -0.3138
    504  C2'       26.9960    4.4140   18.1350 C.3    26  DT26        0.0866
    505  C1'       27.5340    5.8240   17.8910 C.3    26  DT26        0.2106
    506  N1        26.5800    6.6090   17.0860 N.ar   26  DT26       -0.2559
    507  C2        25.5050    7.2150   17.7090 C.ar   26  DT26        0.3545
    508  O2        25.2440    7.0540   18.8880 O.2    26  DT26       -0.2443
    509  N3        24.7420    8.0190   16.8980 N.ar   26  DT26       -0.1548
    510  C4        24.9410    8.2730   15.5570 C.ar   26  DT26        0.2598
    511  O4        24.1690    9.0210   14.9620 O.3    26  DT26       -0.3326
    512  C5        26.0760    7.6070   14.9830 C.ar   26  DT26        0.0516
    513  C6        26.8350    6.8190   15.7490 C.ar   26  DT26        0.0824
    514  C7        26.3760    7.8190   13.5290 C.3    26  DT26        0.0376
    515  P         26.5460    1.5420   16.2910 P.3    27  DG27        0.2141
    516  OP1       26.9500    0.1320   16.4710 O.3    27  DG27       -0.4373
    517  OP2       26.5260    2.1250   14.9300 O.2    27  DG27       -0.5172
    518  O5'       25.0990    1.7440   16.9540 O.3    27  DG27       -0.3114
    519  C5'       24.9310    1.4920   18.3440 C.3    27  DG27        0.1811
    520  C4'       23.7280    2.2100   18.9260 C.3    27  DG27        0.1746
    521  O4'       23.8890    3.6440   18.8350 O.3    27  DG27       -0.3327
    522  C3'       22.4030    1.9610   18.2350 C.3    27  DG27        0.1558
    523  O3'       21.8860    0.7340   18.6400 O.3    27  DG27       -0.3138
    524  C2'       21.5710    3.1070   18.7950 C.3    27  DG27        0.0865
    525  C1'       22.5960    4.2310   18.8520 C.3    27  DG27        0.2094
    526  N9        22.3930    5.0980   17.8740 N.ar   27  DG27       -0.2713
    527  C8        23.0990    5.0920   16.6960 C.ar   27  DG27        0.1816
    528  N7        22.5970    5.8860   15.7900 N.ar   27  DG27       -0.2173
    529  C5        21.4960    6.4540   16.4040 C.ar   27  DG27        0.1748
    530  C6        20.5520    7.3950   15.9190 C.ar   27  DG27        0.3023
    531  O6        20.5070    7.9310   14.8040 O.2    27  DG27       -0.2633
    532  N1        19.5860    7.7030   16.8730 N.ar   27  DG27       -0.1709
    533  C2        19.5370    7.1700   18.1390 C.ar   27  DG27        0.2606
    534  N2        18.5310    7.5900   18.9180 N.pl3  27  DG27       -0.0859
    535  N3        20.4070    6.2950   18.6040 N.ar   27  DG27       -0.1918
    536  C4        21.3530    5.9800   17.6940 C.ar   27  DG27        0.1722
    537  P         21.3740   -0.3090   17.5870 P.3    28  DT28        0.2141
    538  OP1       21.3020   -1.6390   18.2600 O.3    28  DT28       -0.4373
    539  OP2       21.6560   -0.2390   16.1190 O.2    28  DT28       -0.5172
    540  O5'       20.0120    0.4810   17.8460 O.3    28  DT28       -0.3114
    541  C5'       19.4570    0.6090   19.1750 C.3    28  DT28        0.1811
    542  C4'       18.2960    1.5850   19.1810 C.3    28  DT28        0.1746
    543  O4'       18.7670    2.9350   18.9030 O.3    28  DT28       -0.3327
    544  C3'       17.1940    1.3350   18.1600 C.3    28  DT28        0.1558
    545  O3'       16.2620    0.3530   18.6250 O.3    28  DT28       -0.3138
    546  C2'       16.5690    2.7230   18.0020 C.3    28  DT28        0.0866
    547  C1'       17.7800    3.6460   18.1790 C.3    28  DT28        0.2106
    548  N1        18.3170    4.0670   16.9980 N.ar   28  DT28       -0.2559
    549  C2        17.7230    5.1630   16.4020 C.ar   28  DT28        0.3545
    550  O2        16.8760    5.8420   16.9540 O.2    28  DT28       -0.2443
    551  N3        18.1590    5.4390   15.1290 N.ar   28  DT28       -0.1533
    552  C4        19.1070    4.7430   14.4080 C.ar   28  DT28        0.2804
    553  O4        19.3950    5.1130   13.2720 O.2    28  DT28       -0.2654
    554  C5        19.6760    3.6180   15.0940 C.ar   28  DT28        0.0534
    555  C6        19.2700    3.3270   16.3330 C.ar   28  DT28        0.0824
    556  C7        20.7170    2.7970   14.3920 C.3    28  DT28        0.0377
    557  P         15.1820   -0.3540   17.5660 P.3    29  DT29        0.2141
    558  OP1       14.4340   -1.4640   18.2070 O.3    29  DT29       -0.4373
    559  OP2       15.5330   -0.4850   16.1310 O.2    29  DT29       -0.5172
    560  O5'       14.3780    1.0170   17.7140 O.3    29  DT29       -0.3114
    561  C5'       13.3140    1.1720   18.6390 C.3    29  DT29        0.1811
    562  C4'       12.9040    2.6270   18.7040 C.3    29  DT29        0.1746
    563  O4'       14.0600    3.4870   18.4830 O.3    29  DT29       -0.3327
    564  C3'       11.9390    3.0630   17.6190 C.3    29  DT29        0.1558
    565  O3'       10.6420    2.6360   17.9460 O.3    29  DT29       -0.3138
    566  C2'       12.1260    4.5660   17.7610 C.3    29  DT29        0.0866
    567  C1'       13.6550    4.6590   17.7840 C.3    29  DT29        0.2106
    568  N1        14.2420    4.7430   16.4060 N.ar   29  DT29       -0.2559
    569  C2        14.1520    5.9730   15.7840 C.ar   29  DT29        0.3545
    570  O2        13.4860    6.8930   16.2260 O.2    29  DT29       -0.2443
    571  N3        14.8720    6.0900   14.6200 N.ar   29  DT29       -0.1533
    572  C4        15.6550    5.1210   14.0290 C.ar   29  DT29        0.2804
    573  O4        16.2440    5.3760   12.9810 O.2    29  DT29       -0.2654
    574  C5        15.6970    3.8710   14.7340 C.ar   29  DT29        0.0534
    575  C6        15.0060    3.7300   15.8680 C.ar   29  DT29        0.0824
    576  C7        16.5220    2.7520   14.1700 C.3    29  DT29        0.0377
    577  P          9.6430    1.9970   16.8520 P.3    30  DG30        0.2141
    578  OP1        8.4400    1.3410   17.4060 O.3    30  DG30       -0.4373
    579  OP2       10.6120    1.2040   16.0430 O.2    30  DG30       -0.5172
    580  O5'        9.1680    3.2350   15.9660 O.3    30  DG30       -0.3114
    581  C5'        8.0590    4.0360   16.3690 C.3    30  DG30        0.1811
    582  C4'        8.0430    5.3520   15.6210 C.3    30  DG30        0.1746
    583  O4'        9.4000    5.8620   15.5040 O.3    30  DG30       -0.3327
    584  C3'        7.5550    5.3690   14.1800 C.3    30  DG30        0.1558
    585  O3'        6.1290    5.3650   14.1080 O.3    30  DG30       -0.3138
    586  C2'        8.1110    6.7030   13.7070 C.3    30  DG30        0.0865
    587  C1'        9.4930    6.6910   14.3590 C.3    30  DG30        0.2094
    588  N9        10.5770    6.1270   13.4800 N.ar   30  DG30       -0.2713
    589  C8        11.1830    4.9000   13.6010 C.ar   30  DG30        0.1816
    590  N7        12.1610    4.7230   12.7560 N.ar   30  DG30       -0.2173
    591  C5        12.2080    5.9010   12.0340 C.ar   30  DG30        0.1748
    592  C6        13.0620    6.3010   10.9740 C.ar   30  DG30        0.3023
    593  O6        13.9820    5.6610   10.4490 O.2    30  DG30       -0.2633
    594  N1        12.7660    7.5840   10.5220 N.ar   30  DG30       -0.1709
    595  C2        11.7690    8.3830   11.0290 C.ar   30  DG30        0.2606
    596  N2        11.6360    9.5910   10.4640 N.pl3  30  DG30       -0.0859
    597  N3        10.9680    8.0250   12.0130 N.ar   30  DG30       -0.1918
    598  C4        11.2360    6.7830   12.4660 C.ar   30  DG30        0.1722
    599  P          5.3590    4.9850   12.6490 P.3    31  DA31        0.2141
    600  OP1        3.9530    4.8590   13.0960 O.3    31  DA31       -0.4373
    601  OP2        6.1250    3.7630   12.3130 O.2    31  DA31       -0.5172
    602  O5'        5.4060    5.9600   11.3770 O.3    31  DA31       -0.3114
    603  C5'        4.7210    7.2110   11.4250 C.3    31  DA31        0.1811
    604  C4'        5.4470    8.2830   10.6340 C.3    31  DA31        0.1746
    605  O4'        6.8710    8.2300   10.8830 O.3    31  DA31       -0.3327
    606  C3'        5.3620    8.1150    9.1290 C.3    31  DA31        0.1558
    607  O3'        4.1250    8.5830    8.6180 O.3    31  DA31       -0.3138
    608  C2'        6.5580    8.9350    8.6390 C.3    31  DA31        0.0865
    609  C1'        7.5840    8.6300    9.7220 C.3    31  DA31        0.2094
    610  N9         8.5090    7.6050    9.3510 N.ar   31  DA31       -0.2714
    611  C8         8.5320    6.3640    9.9310 C.ar   31  DA31        0.1815
    612  N7         9.5010    5.5940    9.4950 N.ar   31  DA31       -0.2193
    613  C5        10.1580    6.3830    8.5650 C.ar   31  DA31        0.1518
    614  C6        11.2770    6.1480    7.7460 C.ar   31  DA31        0.1919
    615  N6        11.9580    4.9990    7.7370 N.pl3  31  DA31       -0.1054
    616  N1        11.6770    7.1460    6.9290 N.ar   31  DA31       -0.2040
    617  C2        10.9950    8.2970    6.9400 C.ar   31  DA31        0.2016
    618  N3         9.9310    8.6370    7.6640 N.ar   31  DA31       -0.2048
    619  C4         9.5580    7.6240    8.4640 C.ar   31  DA31        0.1691
    620  P          3.5980    7.9830    7.4800 P.3    32  DA32        0.2141
    621  OP1        2.1420    8.3220    7.4230 O.2    32  DA32       -0.5172
    622  OP2        3.8980    6.5610    7.8320 O.3    32  DA32       -0.4373
    623  O5'        4.5790    8.3640    6.2810 O.3    32  DA32       -0.3114
    624  C5'        4.4240    9.7070    5.7980 C.3    32  DA32        0.1811
    625  C4'        5.6900   10.0020    5.0240 C.3    32  DA32        0.1746
    626  O4'        6.7650    9.6530    5.8580 O.3    32  DA32       -0.3327
    627  C3'        5.9240    9.2060    3.7640 C.3    32  DA32        0.1558
    628  O3'        5.1350    9.5960    2.6510 O.3    32  DA32       -0.3138
    629  C2'        7.4300    9.2810    3.5840 C.3    32  DA32        0.0865
    630  C1'        7.8750    9.3110    5.0090 C.3    32  DA32        0.2094
    631  N9         8.3850    8.0360    5.5040 N.ar   32  DA32       -0.2714
    632  C8         7.8070    7.3060    6.5100 C.ar   32  DA32        0.1815
    633  N7         8.4510    6.2000    6.7980 N.ar   32  DA32       -0.2193
    634  C5         9.5250    6.2030    5.9220 C.ar   32  DA32        0.1518
    635  C6        10.5850    5.3010    5.7210 C.ar   32  DA32        0.1919
    636  N6        10.7420    4.1770    6.4230 N.pl3  32  DA32       -0.1054
    637  N1        11.4890    5.6000    4.7640 N.ar   32  DA32       -0.2040
    638  C2        11.3310    6.7280    4.0620 C.ar   32  DA32        0.2016
    639  N3        10.3790    7.6520    4.1580 N.ar   32  DA32       -0.2048
    640  C4         9.4960    7.3260    5.1170 C.ar   32  DA32        0.1691
    641  P          4.3060    8.3900    2.2070 P.3    33  DG33        0.2141
    642  OP1        3.2750    8.9610    1.3230 O.2    33  DG33       -0.5172
    643  OP2        3.9470    7.1900    3.0080 O.3    33  DG33       -0.4373
    644  O5'        5.4730    7.9310    1.2340 O.3    33  DG33       -0.3114
    645  C5'        5.7810    8.8640    0.2280 C.3    33  DG33        0.1811
    646  C4'        7.0930    8.5070   -0.4310 C.3    33  DG33        0.1746
    647  O4'        8.0330    8.0990    0.5700 O.3    33  DG33       -0.3327
    648  C3'        7.0330    7.2510   -1.2440 C.3    33  DG33        0.1558
    649  O3'        6.2750    7.4050   -2.4140 O.3    33  DG33       -0.3138
    650  C2'        8.5310    7.0020   -1.4230 C.3    33  DG33        0.0865
    651  C1'        8.9510    7.2160    0.0170 C.3    33  DG33        0.2094
    652  N9         8.9030    5.9560    0.8030 N.ar   33  DG33       -0.2713
    653  C8         8.0470    5.7230    1.8520 C.ar   33  DG33        0.1816
    654  N7         8.2650    4.5840    2.4520 N.ar   33  DG33       -0.2173
    655  C5         9.3280    4.0310    1.7620 C.ar   33  DG33        0.1748
    656  C6        10.0110    2.8020    1.9490 C.ar   33  DG33        0.3023
    657  O6         9.7960    1.9280    2.7980 O.2    33  DG33       -0.2633
    658  N1        11.0350    2.6290    1.0220 N.ar   33  DG33       -0.1709
    659  C2        11.3630    3.5300    0.0380 C.ar   33  DG33        0.2606
    660  N2        12.3830    3.1890   -0.7610 N.pl3  33  DG33       -0.0859
    661  N3        10.7380    4.6760   -0.1490 N.ar   33  DG33       -0.1918
    662  C4         9.7380    4.8650    0.7390 C.ar   33  DG33        0.1722
    663  P          5.5770    6.0560   -2.9690 P.3    34  DA34        0.2141
    664  OP1        4.7290    6.6330   -4.0380 O.2    34  DA34       -0.5172
    665  OP2        4.9410    5.4450   -1.7760 O.3    34  DA34       -0.4373
    666  O5'        6.5720    5.0010   -3.6360 O.3    34  DA34       -0.3114
    667  C5'        7.6940    5.4790   -4.3610 C.3    34  DA34        0.1811
    668  C4'        8.5180    4.3520   -4.9440 C.3    34  DA34        0.1746
    669  O4'        9.2360    3.6540   -3.8850 O.3    34  DA34       -0.3327
    670  C3'        7.6520    3.3000   -5.6250 C.3    34  DA34        0.1558
    671  O3'        7.9000    3.1110   -7.0190 O.3    34  DA34       -0.3138
    672  C2'        7.5320    2.1310   -4.6450 C.3    34  DA34        0.0865
    673  C1'        8.7700    2.3270   -3.7710 C.3    34  DA34        0.2094
    674  N9         8.7390    1.9800   -2.6030 N.ar   34  DA34       -0.2714
    675  C8         7.6450    2.4660   -1.9360 C.ar   34  DA34        0.1815
    676  N7         7.2210    1.6810   -0.9730 N.ar   34  DA34       -0.2193
    677  C5         8.0960    0.6070   -1.0120 C.ar   34  DA34        0.1518
    678  C6         8.1850   -0.5680   -0.2450 C.ar   34  DA34        0.1919
    679  N6         7.3490   -0.8650    0.7520 N.pl3  34  DA34       -0.1054
    680  N1         9.1750   -1.4360   -0.5420 N.ar   34  DA34       -0.2040
    681  C2        10.0130   -1.1370   -1.5410 C.ar   34  DA34        0.2016
    682  N3        10.0310   -0.0660   -2.3310 N.ar   34  DA34       -0.2048
    683  C4         9.0350    0.7760   -2.0110 C.ar   34  DA34        0.1691
    684  P          7.2000    1.8550   -7.8730 P.3    35  DA35        0.2141
    685  OP1        7.0680    2.3480   -9.2680 O.2    35  DA35       -0.5172
    686  OP2        5.9990    1.7730   -7.0020 O.3    35  DA35       -0.4373
    687  O5'        7.8580    0.4050   -7.9070 O.3    35  DA35       -0.3114
    688  C5'        8.9820    0.1370   -8.7370 C.3    35  DA35        0.1811
    689  C4'        9.6190   -1.1690   -8.3380 C.3    35  DA35        0.1746
    690  O4'        9.9690   -1.1050   -6.9320 O.3    35  DA35       -0.3327
    691  C3'        8.7400   -2.4050   -8.4540 C.3    35  DA35        0.1558
    692  O3'        8.8380   -2.9170   -9.7820 O.3    35  DA35       -0.3138
    693  C2'        9.4000   -3.3520   -7.4570 C.3    35  DA35        0.0865
    694  C1'        9.8370   -2.3860   -6.3510 C.3    35  DA35        0.2094
    695  N9         8.9410   -2.3080   -5.2270 N.ar   35  DA35       -0.2714
    696  C8         7.8690   -1.4600   -5.1260 C.ar   35  DA35        0.1815
    697  N7         7.1830   -1.6040   -4.0170 N.ar   35  DA35       -0.2193
    698  C5         7.8490   -2.6160   -3.3440 C.ar   35  DA35        0.1518
    699  C6         7.6200   -3.2370   -2.1030 C.ar   35  DA35        0.1919
    700  N6         6.6140   -2.9120   -1.2890 N.pl3  35  DA35       -0.1054
    701  N1         8.4710   -4.2150   -1.7260 N.ar   35  DA35       -0.2040
    702  C2         9.4800   -4.5390   -2.5430 C.ar   35  DA35        0.2016
    703  N3         9.7980   -4.0280   -3.7300 N.ar   35  DA35       -0.2048
    704  C4         8.9330   -3.0600   -4.0770 C.ar   35  DA35        0.1691
    705  P          7.6230   -3.8750  -10.4600 P.3    36  DC36        0.2141
    706  OP1        7.7470   -4.2950  -11.8680 O.2    36  DC36       -0.5172
    707  OP2        6.2790   -3.8420   -9.8460 O.3    36  DC36       -0.4373
    708  O5'        8.5790   -4.7810   -9.5790 O.3    36  DC36       -0.3114
    709  C5'        9.3840   -5.7520  -10.1300 C.3    36  DC36        0.1811
    710  C4'        9.3040   -6.9220   -9.2100 C.3    36  DC36        0.1746
    711  O4'        9.3430   -6.4820   -7.8380 O.3    36  DC36       -0.3327
    712  C3'        7.9870   -7.6350   -9.2520 C.3    36  DC36        0.1558
    713  O3'        7.8680   -8.3870  -10.4530 O.3    36  DC36       -0.3138
    714  C2'        8.0830   -8.4660   -7.9780 C.3    36  DC36        0.0866
    715  C1'        8.6920   -7.4500   -7.0360 C.3    36  DC36        0.2106
    716  N1         7.7610   -6.6810   -6.2580 N.ar   36  DC36       -0.2556
    717  C2         7.1790   -7.3220   -5.1580 C.ar   36  DC36        0.3531
    718  O2         7.6200   -8.4310   -4.8100 O.2    36  DC36       -0.2443
    719  N3         6.1550   -6.7190   -4.5090 N.ar   36  DC36       -0.1739
    720  C4         5.7140   -5.5290   -4.9180 C.ar   36  DC36        0.1759
    721  N4         4.7030   -4.9720   -4.2470 N.pl3  36  DC36       -0.1070
    722  C5         6.2900   -4.8630   -6.0300 C.ar   36  DC36        0.0566
    723  C6         7.3010   -5.4620   -6.6690 C.ar   36  DC36        0.0849
    724  P          6.4900   -8.9930  -10.7710 P.3    37  DC37        0.2141
    725  OP1        5.8240   -9.7340  -11.8690 O.2    37  DC37       -0.5172
    726  OP2        5.9280   -7.7100  -10.3010 O.3    37  DC37       -0.4373
    727  O5'        6.5850   -9.9730   -9.5240 O.3    37  DC37       -0.3114
    728  C5'        7.0580  -11.3250   -9.6690 C.3    37  DC37        0.1811
    729  C4'        6.2000  -12.2520   -8.8460 C.3    37  DC37        0.1746
    730  O4'        6.1730  -11.7560   -7.4830 O.3    37  DC37       -0.3327
    731  C3'        4.7390  -12.3190   -9.2640 C.3    37  DC37        0.1558
    732  O3'        4.5820  -13.3400  -10.2490 O.3    37  DC37       -0.3138
    733  C2'        4.0350  -12.6840   -7.9630 C.3    37  DC37        0.0866
    734  C1'        4.8830  -11.9360   -6.9330 C.3    37  DC37        0.2106
    735  N1         4.2870  -10.8340   -6.5280 N.ar   37  DC37       -0.2556
    736  C2         3.2730  -10.9170   -5.5660 C.ar   37  DC37        0.3531
    737  O2         3.0680  -12.0070   -5.0060 O.2    37  DC37       -0.2443
    738  N3         2.5480   -9.8100   -5.2750 N.ar   37  DC37       -0.1739
    739  C4         2.8030   -8.6610   -5.9020 C.ar   37  DC37        0.1759
    740  N4         2.0620   -7.5980   -5.5830 N.pl3  37  DC37       -0.1070
    741  C5         3.8260   -8.5570   -6.8800 C.ar   37  DC37        0.0566
    742  C6         4.5400   -9.6510   -7.1640 C.ar   37  DC37        0.0849
    743  P          3.1930  -13.5130  -11.1880 P.3    38  DA38        0.2141
    744  OP1        3.1300  -13.6760  -12.6640 O.2    38  DA38       -0.5172
    745  OP2        2.4780  -12.3740  -10.5430 O.3    38  DA38       -0.4373
    746  O5'        2.6840  -14.8680  -10.5170 O.3    38  DA38       -0.3114
    747  C5'        3.3970  -16.0990  -10.7410 C.3    38  DA38        0.1812
    748  C4'        2.8720  -17.1980   -9.8440 C.3    38  DA38        0.1775
    749  O4'        3.2330  -16.9570   -8.4590 O.3    38  DA38       -0.3326
    750  C3'        1.3680  -17.3890   -9.8090 C.3    38  DA38        0.1864
    751  O3'        0.9090  -18.1190  -10.9320 O.3    38  DA38       -0.2133
    752  C2'        1.1580  -18.1350   -8.4940 C.3    38  DA38        0.0894
    753  C1'        2.2560  -17.5380   -7.6120 C.3    38  DA38        0.2095
    754  N9         1.7180  -16.5210   -6.7150 N.ar   38  DA38       -0.2714
    755  C8         1.6010  -15.1680   -6.8970 C.ar   38  DA38        0.1815
    756  N7         1.0450  -14.5440   -5.8860 N.ar   38  DA38       -0.2193
    757  C5         0.7790  -15.5570   -4.9770 C.ar   38  DA38        0.1518
    758  C6         0.1930  -15.5510   -3.6990 C.ar   38  DA38        0.1919
    759  N6        -0.2470  -14.4460   -3.0930 N.pl3  38  DA38       -0.1054
    760  N1         0.0730  -16.7330   -3.0590 N.ar   38  DA38       -0.2040
    761  C2         0.5150  -17.8400   -3.6680 C.ar   38  DA38        0.2016
    762  N3         1.0830  -17.9720   -4.8640 N.ar   38  DA38       -0.2048
    763  C4         1.1860  -16.7800   -5.4740 C.ar   38  DA38        0.1691
    764  P         -0.6500  -18.0340  -11.3740 P.3    39  DC39        0.3939
    765  OP1        0.3920  -18.7270  -12.1710 O.3    39  DC39       -0.1496
    766  OP2       -1.8260  -17.3840  -12.0040 O.3    39  DC39       -0.1425
    767  O5'       -1.2360  -19.0270  -10.2520 O.3    39  DC39       -0.2925
    768  C5'       -1.4230  -20.4000  -10.5270 C.3    39  DC39        0.1854
    769  C4'       -2.0520  -21.0910   -9.3430 C.3    39  DC39        0.1992
    770  O4'       -1.3550  -20.7900   -8.1090 O.3    39  DC39       -0.3301
    771  C3'       -3.4490  -20.6040   -9.0800 C.3    39  DC39        0.2381
    772  O3'       -4.3570  -21.2210   -9.9640 O.3    39  DC39       -0.2491
    773  C2'       -3.6690  -20.9830   -7.6230 C.3    39  DC39        0.1137
    774  C1'       -2.2940  -20.6450   -7.0580 C.3    39  DC39        0.2132
    775  N1        -2.2080  -19.3040   -6.5350 N.ar   39  DC39       -0.2555
    776  C2        -2.6850  -19.0800   -5.2380 C.ar   39  DC39        0.3533
    777  O2        -3.0590  -20.0530   -4.5620 O.2    39  DC39       -0.2443
    778  N3        -2.7260  -17.8130   -4.7610 N.ar   39  DC39       -0.1698
    779  C4        -2.3150  -16.7990   -5.5230 C.ar   39  DC39        0.2067
    780  N4        -2.3740  -15.5680   -5.0100 N.4    39  DC39       -0.0555
    781  C5        -1.8280  -17.0050   -6.8390 C.ar   39  DC39        0.0610
    782  C6        -1.7890  -18.2580   -7.3070 C.ar   39  DC39        0.0852
    783  P         -5.6430  -20.3290  -10.2170 P.3    40  DT40        0.4833
    784  OP1       -6.4450  -20.3490  -11.4800 O.2    40  DT40       -0.2269
    785  OP2       -4.3780  -19.5210  -10.1370 O.3    40  DT40       -0.2491
    786  O5'       -6.6220  -19.8750   -9.0400 O.3    40  DT40       -0.2704
    787  C5'       -7.8000  -20.6080   -8.7780 C.3    40  DT40        0.1856
    788  C4'       -7.9290  -20.8350   -7.3060 C.3    40  DT40        0.1748
    789  O4'       -6.6210  -20.7220   -6.6950 O.3    40  DT40       -0.3327
    790  C3'       -8.7740  -19.8110   -6.5760 C.3    40  DT40        0.1558
    791  O3'      -10.1280  -20.2060   -6.6180 O.3    40  DT40       -0.3138
    792  C2'       -8.2300  -19.8800   -5.1590 C.3    40  DT40        0.0866
    793  C1'       -6.7400  -20.1080   -5.4200 C.3    40  DT40        0.2106
    794  N1        -6.0250  -18.7200   -5.4080 N.ar   40  DT40       -0.2559
    795  C2        -5.8600  -18.0460   -4.2130 C.ar   40  DT40        0.3545
    796  O2        -6.2920  -18.4600   -3.1520 O.2    40  DT40       -0.2443
    797  N3        -5.1690  -16.8620   -4.3040 N.ar   40  DT40       -0.1548
    798  C4        -4.6380  -16.2970   -5.4450 C.ar   40  DT40        0.2598
    799  O4        -4.0400  -15.2270   -5.3680 O.3    40  DT40       -0.3326
    800  C5        -4.8520  -17.0560   -6.6450 C.ar   40  DT40        0.0516
    801  C6        -5.5210  -18.2110   -6.5850 C.ar   40  DT40        0.0824
    802  C7        -4.3130  -16.5240   -7.9400 C.3    40  DT40        0.0376
    803  P        -11.0810  -19.2230   -6.8610 P.3    41  DT41        0.2141
    804  OP1      -12.2780  -20.0280   -7.1940 O.3    41  DT41       -0.4373
    805  OP2      -10.7380  -18.0090   -7.6360 O.2    41  DT41       -0.5172
    806  O5'      -11.2460  -18.6960   -5.3620 O.3    41  DT41       -0.3114
    807  C5'      -11.3840  -19.6210   -4.3020 C.3    41  DT41        0.1811
    808  C4'      -11.0080  -18.9750   -2.9970 C.3    41  DT41        0.1746
    809  O4'       -9.5980  -18.6310   -2.9870 O.3    41  DT41       -0.3327
    810  C3'      -11.6810  -17.6480   -2.7170 C.3    41  DT41        0.1558
    811  O3'      -13.0300  -17.7820   -2.3160 O.3    41  DT41       -0.3138
    812  C2'      -10.7680  -17.0480   -1.6570 C.3    41  DT41        0.0866
    813  C1'       -9.4020  -17.4790   -2.1920 C.3    41  DT41        0.2106
    814  N1        -8.8490  -16.3500   -2.9780 N.ar   41  DT41       -0.2559
    815  C2        -8.4680  -15.1670   -2.3740 C.ar   41  DT41        0.3545
    816  O2        -8.7290  -14.9000   -1.2140 O.2    41  DT41       -0.2443
    817  N3        -7.7670  -14.3030   -3.1800 N.ar   41  DT41       -0.1533
    818  C4        -7.4180  -14.4980   -4.5000 C.ar   41  DT41        0.2804
    819  O4        -6.7850  -13.6280   -5.0930 O.2    41  DT41       -0.2654
    820  C5        -7.8500  -15.7490   -5.0560 C.ar   41  DT41        0.0534
    821  C6        -8.5330  -16.6080   -4.2940 C.ar   41  DT41        0.0824
    822  C7        -7.5190  -16.0550   -6.4870 C.3    41  DT41        0.0377
    823  P        -14.1060  -16.9900   -3.2220 P.3    42  DC42        0.2141
    824  OP1      -15.2910  -17.8870   -3.2470 O.3    42  DC42       -0.4373
    825  OP2      -13.5950  -16.3170   -4.4370 O.2    42  DC42       -0.5172
    826  O5'      -14.3380  -15.7840   -2.1970 O.3    42  DC42       -0.3114
    827  C5'      -14.2450  -15.9980   -0.7970 C.3    42  DC42        0.1811
    828  C4'      -13.8530  -14.7370   -0.0710 C.3    42  DC42        0.1746
    829  O4'      -12.4130  -14.5540   -0.1020 O.3    42  DC42       -0.3327
    830  C3'      -14.4060  -13.4540   -0.6600 C.3    42  DC42        0.1558
    831  O3'      -15.7330  -13.2100   -0.2620 O.3    42  DC42       -0.3138
    832  C2'      -13.4480  -12.4300   -0.0980 C.3    42  DC42        0.0866
    833  C1'      -12.1220  -13.1770   -0.2230 C.3    42  DC42        0.2106
    834  N1       -11.4920  -12.8410   -1.5560 N.ar   42  DC42       -0.2556
    835  C2       -10.7970  -11.6310   -1.6650 C.ar   42  DC42        0.3531
    836  O2       -10.7130  -10.8980   -0.6640 O.2    42  DC42       -0.2443
    837  N3       -10.2400  -11.2940   -2.8530 N.ar   42  DC42       -0.1739
    838  C4       -10.3580  -12.1110   -3.9000 C.ar   42  DC42        0.1759
    839  N4        -9.7920  -11.7380   -5.0500 N.pl3  42  DC42       -0.1070
    840  C5       -11.0580  -13.3420   -3.8110 C.ar   42  DC42        0.0566
    841  C6       -11.6060  -13.6700   -2.6360 C.ar   42  DC42        0.0849
    842  P        -16.6610  -12.5060   -1.3450 P.3    43  DC43        0.2141
    843  OP1      -18.1230  -12.5360   -1.1310 O.3    43  DC43       -0.4373
    844  OP2      -16.0870  -13.1320   -2.5580 O.2    43  DC43       -0.5172
    845  O5'      -16.1920  -10.9830   -1.3090 O.3    43  DC43       -0.3114
    846  C5'      -16.3180  -10.2040   -0.1090 C.3    43  DC43        0.1811
    847  C4'      -15.7000   -8.8450   -0.3050 C.3    43  DC43        0.1746
    848  O4'      -14.2830   -8.9850   -0.5630 O.3    43  DC43       -0.3327
    849  C3'      -16.2380   -8.0540   -1.4860 C.3    43  DC43        0.1558
    850  O3'      -17.4200   -7.3700   -1.0640 O.3    43  DC43       -0.3138
    851  C2'      -15.0850   -7.0970   -1.7900 C.3    43  DC43        0.0866
    852  C1'      -13.8630   -7.9480   -1.4220 C.3    43  DC43        0.2106
    853  N1       -13.2210   -8.4590   -2.1830 N.ar   43  DC43       -0.2556
    854  C2       -12.4360   -7.6440   -3.0080 C.ar   43  DC43        0.3531
    855  O2       -12.0500   -6.5470   -2.5710 O.2    43  DC43       -0.2443
    856  N3       -12.1230   -8.0740   -4.2530 N.ar   43  DC43       -0.1739
    857  C4       -12.5600   -9.2590   -4.6800 C.ar   43  DC43        0.1759
    858  N4       -12.2260   -9.6410   -5.9150 N.pl3  43  DC43       -0.1070
    859  C5       -13.3560  -10.0990   -3.8600 C.ar   43  DC43        0.0566
    860  C6       -13.6640   -9.6710   -2.6310 C.ar   43  DC43        0.0849
    861  P        -18.7270   -7.1800   -2.0160 P.3    44  DG44        0.2141
    862  OP1      -19.9510   -6.6330   -1.3560 O.3    44  DG44       -0.4373
    863  OP2      -18.6790   -8.3290   -2.9880 O.2    44  DG44       -0.5172
    864  O5'      -17.8690   -5.9910   -2.6820 O.3    44  DG44       -0.3114
    865  C5'      -17.9580   -4.7200   -2.0330 C.3    44  DG44        0.1811
    866  C4'      -16.9920   -3.6980   -2.5740 C.3    44  DG44        0.1746
    867  O4'      -15.7040   -4.3160   -2.6950 O.3    44  DG44       -0.3327
    868  C3'      -17.1880   -3.2370   -3.9890 C.3    44  DG44        0.1558
    869  O3'      -18.1060   -2.2200   -4.0130 O.3    44  DG44       -0.3138
    870  C2'      -15.8510   -2.6490   -4.3430 C.3    44  DG44        0.0865
    871  C1'      -15.0030   -3.7880   -3.8110 C.3    44  DG44        0.2094
    872  N9       -14.7470   -4.8450   -4.7410 N.ar   44  DG44       -0.2713
    873  C8       -15.2960   -6.1040   -4.7790 C.ar   44  DG44        0.1816
    874  N7       -14.8850   -6.8140   -5.7940 N.ar   44  DG44       -0.2173
    875  C5       -14.0130   -5.9790   -6.4670 C.ar   44  DG44        0.1748
    876  C6       -13.2570   -6.1920   -7.6490 C.ar   44  DG44        0.3023
    877  O6       -13.2110   -7.2070   -8.3560 O.2    44  DG44       -0.2633
    878  N1       -12.4980   -5.0760   -7.9900 N.ar   44  DG44       -0.1709
    879  C2       -12.4710   -3.9000   -7.2800 C.ar   44  DG44        0.2606
    880  N2       -11.6760   -2.9350   -7.7650 N.pl3  44  DG44       -0.0859
    881  N3       -13.1680   -3.6860   -6.1820 N.ar   44  DG44       -0.1918
    882  C4       -13.9140   -4.7560   -5.8320 C.ar   44  DG44        0.1722
    883  P        -19.0790   -2.3790   -5.1560 P.3    45  DG45        0.2141
    884  OP1      -20.2690   -1.5380   -4.8870 O.3    45  DG45       -0.4373
    885  OP2      -19.2250   -3.7460   -5.7070 O.2    45  DG45       -0.5172
    886  O5'      -18.1280   -1.6340   -6.2030 O.3    45  DG45       -0.3114
    887  C5'      -17.5210   -0.4110   -5.8160 C.3    45  DG45        0.1811
    888  C4'      -16.4550   -0.0020   -6.7950 C.3    45  DG45        0.1746
    889  O4'      -15.3040   -0.8740   -6.6660 O.3    45  DG45       -0.3327
    890  C3'      -16.8230   -0.1270   -8.2620 C.3    45  DG45        0.1558
    891  O3'      -17.6530    0.9180   -8.7310 O.3    45  DG45       -0.3138
    892  C2'      -15.4550   -0.1740   -8.9240 C.3    45  DG45        0.0865
    893  C1'      -14.6980   -1.0500   -7.9290 C.3    45  DG45        0.2094
    894  N9       -14.8250   -2.4630   -8.3750 N.ar   45  DG45       -0.2713
    895  C8       -15.5290   -3.4450   -7.7230 C.ar   45  DG45        0.1816
    896  N7       -15.4090   -4.6200   -8.2790 N.ar   45  DG45       -0.2173
    897  C5       -14.5760   -4.4050   -9.3610 C.ar   45  DG45        0.1748
    898  C6       -14.0850   -5.3040  -10.3420 C.ar   45  DG45        0.3023
    899  O6       -14.3020   -6.5180  -10.4450 O.2    45  DG45       -0.2633
    900  N1       -13.2640   -4.6670  -11.2680 N.ar   45  DG45       -0.1709
    901  C2       -12.9540   -3.3280  -11.2510 C.ar   45  DG45        0.2606
    902  N2       -12.1450   -2.8970  -12.2280 N.pl3  45  DG45       -0.0859
    903  N3       -13.4030   -2.4800  -10.3470 N.ar   45  DG45       -0.1918
    904  C4       -14.2030   -3.0770   -9.4380 C.ar   45  DG45        0.1722
    905  P        -18.9230    0.4640   -9.3960 P.3    46  DA46        0.2141
    906  OP1      -19.8260    1.5820   -8.9810 O.2    46  DA46       -0.5172
    907  OP2      -19.3450   -0.8910   -8.9240 O.3    46  DA46       -0.4373
    908  O5'      -18.4770    0.2880  -10.9190 O.3    46  DA46       -0.3114
    909  C5'      -18.0460    1.5040  -11.5480 C.3    46  DA46        0.1811
    910  C4'      -17.2680    1.0670  -12.7700 C.3    46  DA46        0.1746
    911  O4'      -16.3380    0.1090  -12.3360 O.3    46  DA46       -0.3327
    912  C3'      -18.0400    0.3670  -13.8610 C.3    46  DA46        0.1558
    913  O3'      -18.8510    1.2120  -14.6610 O.3    46  DA46       -0.3138
    914  C2'      -16.9690   -0.4280  -14.5860 C.3    46  DA46        0.0865
    915  C1'      -16.0540   -0.7530  -13.4520 C.3    46  DA46        0.2094
    916  N9       -16.2520   -2.1930  -13.0390 N.ar   46  DA46       -0.2714
    917  C8       -16.8400   -2.6160  -11.8760 C.ar   46  DA46        0.1815
    918  N7       -16.7790   -3.9140  -11.6930 N.ar   46  DA46       -0.2193
    919  C5       -16.1070   -4.3750  -12.8140 C.ar   46  DA46        0.1518
    920  C6       -15.7220   -5.6650  -13.2220 C.ar   46  DA46        0.1919
    921  N6       -15.9720   -6.7690  -12.5140 N.pl3  46  DA46       -0.1054
    922  N1       -15.0650   -5.7800  -14.3950 N.ar   46  DA46       -0.2040
    923  C2       -14.8140   -4.6730  -15.1030 C.ar   46  DA46        0.2016
    924  N3       -15.1230   -3.4090  -14.8230 N.ar   46  DA46       -0.2048
    925  C4       -15.7770   -3.3280  -13.6520 C.ar   46  DA46        0.1691
    926  P        -20.3050    0.7230  -14.8610 P.3    47  DA47        0.2141
    927  OP1      -21.0420    1.8970  -15.3880 O.2    47  DA47       -0.5172
    928  OP2      -20.9130   -0.2840  -13.9610 O.3    47  DA47       -0.4373
    929  O5'      -19.7670   -0.1000  -16.1160 O.3    47  DA47       -0.3114
    930  C5'      -18.9300    0.4990  -17.0750 C.3    47  DA47        0.1811
    931  C4'      -18.4350   -0.5630  -18.0340 C.3    47  DA47        0.1746
    932  O4'      -17.4230   -1.3910  -17.4090 O.3    47  DA47       -0.3327
    933  C3'      -19.4860   -1.5710  -18.4560 C.3    47  DA47        0.1558
    934  O3'      -20.3140   -1.0430  -19.4520 O.3    47  DA47       -0.3138
    935  C2'      -18.6130   -2.7030  -18.9570 C.3    47  DA47        0.0865
    936  C1'      -17.5590   -2.7320  -17.8530 C.3    47  DA47        0.2094
    937  N9       -17.9320   -3.6060  -16.7380 N.ar   47  DA47       -0.2714
    938  C8       -18.5500   -3.2580  -15.5650 C.ar   47  DA47        0.1815
    939  N7       -18.7660   -4.2720  -14.7600 N.ar   47  DA47       -0.2193
    940  C5       -18.2560   -5.3590  -15.4520 C.ar   47  DA47        0.1518
    941  C6       -18.1780   -6.7270  -15.1380 C.ar   47  DA47        0.1919
    942  N6       -18.6330   -7.2520  -13.9980 N.pl3  47  DA47       -0.1054
    943  N1       -17.6090   -7.5470  -16.0480 N.ar   47  DA47       -0.2040
    944  C2       -17.1530   -7.0200  -17.1900 C.ar   47  DA47        0.2016
    945  N3       -17.1680   -5.7530  -17.5970 N.ar   47  DA47       -0.2048
    946  C4       -17.7400   -4.9650  -16.6720 C.ar   47  DA47        0.1691
    947  P        -21.8520   -1.4720  -19.4930 P.3    48  DA48        0.2141
    948  OP1      -22.4610   -0.4870  -20.4160 O.2    48  DA48       -0.5172
    949  OP2      -22.3720   -1.6540  -18.1180 O.3    48  DA48       -0.4373
    950  O5'      -21.9980   -2.9340  -20.1170 O.3    48  DA48       -0.3114
    951  C5'      -21.9290   -2.9840  -21.5310 C.3    48  DA48        0.1811
    952  C4'      -21.3500   -4.2720  -22.0500 C.3    48  DA48        0.1746
    953  O4'      -20.2800   -4.7010  -21.1640 O.3    48  DA48       -0.3327
    954  C3'      -22.3360   -5.4280  -22.0950 C.3    48  DA48        0.1558
    955  O3'      -22.9080   -5.6470  -23.3800 O.3    48  DA48       -0.3138
    956  C2'      -21.5310   -6.6500  -21.6650 C.3    48  DA48        0.0865
    957  C1'      -20.3300   -6.0900  -20.9210 C.3    48  DA48        0.2094
    958  N9       -20.6590   -6.3340  -19.4880 N.ar   48  DA48       -0.2714
    959  C8       -21.1790   -5.4720  -18.5580 C.ar   48  DA48        0.1817
    960  N7       -21.3060   -5.9980  -17.3630 N.ar   48  DA48       -0.2146
    961  C5       -20.8390   -7.2930  -17.5190 C.ar   48  DA48        0.2068
    962  C6       -20.7100   -8.3670  -16.6200 C.2    48  DA48        0.4343
    963  N6       -21.0550   -8.2980  -15.3320 N.pl3  48  DA48        0.2176
    964  N1       -20.2080   -9.5260  -17.0960 N.4    48  DA48        0.0138
    965  C2       -19.8620   -9.5930  -18.3870 C.3    48  DA48        0.4722
    966  N3       -19.9350   -8.6540  -19.3270 N.2    48  DA48       -0.1713
    967  C4       -20.4380   -7.5160  -18.8220 C.ar   48  DA48        0.1747
    968  P        -24.3800   -6.0570  -23.2540 P.3    49  DT49        0.2141
    969  OP1      -25.4420   -5.1800  -23.8010 O.2    49  DT49       -0.5172
    970  OP2      -24.5890   -6.7370  -21.9550 O.3    49  DT49       -0.4373
    971  O5'      -23.9830   -7.1530  -24.3560 O.3    49  DT49       -0.3114
    972  C5'      -24.7010   -8.3790  -24.4330 C.3    49  DT49        0.1811
    973  C4'      -23.9160   -9.5150  -23.8000 C.3    49  DT49        0.1746
    974  O4'      -23.1870   -9.0350  -22.6460 O.3    49  DT49       -0.3327
    975  C3'      -24.7550  -10.6490  -23.2320 C.3    49  DT49        0.1558
    976  O3'      -25.1670  -11.5340  -24.2570 O.3    49  DT49       -0.3138
    977  C2'      -23.7650  -11.3200  -22.2830 C.3    49  DT49        0.0866
    978  C1'      -22.9390  -10.1340  -21.7860 C.3    49  DT49        0.2106
    979  N1       -23.4840   -9.8980  -20.4900 N.ar   49  DT49       -0.2559
    980  C2       -23.4460  -10.7390  -19.3940 C.ar   49  DT49        0.3545
    981  O2       -23.1510  -11.9190  -19.4720 O.2    49  DT49       -0.2443
    982  N3       -23.7680  -10.1480  -18.1960 N.ar   49  DT49       -0.1533
    983  C4       -24.1170   -8.8300  -17.9880 C.ar   49  DT49        0.2804
    984  O4       -24.3790   -8.4460  -16.8510 O.2    49  DT49       -0.2654
    985  C5       -24.1350   -8.0210  -19.1740 C.ar   49  DT49        0.0534
    986  C6       -23.8260   -8.5700  -20.3520 C.ar   49  DT49        0.0824
    987  C7       -24.5030   -6.5720  -19.0520 C.3    49  DT49        0.0377
    988  P        -26.6500  -12.2230  -24.2070 P.3    50  DA50        0.2141
    989  OP1      -27.1000  -12.4670  -25.5970 O.2    50  DA50       -0.5172
    990  OP2      -27.3540  -11.2440  -23.3590 O.3    50  DA50       -0.4373
    991  O5'      -26.6160  -13.6250  -23.4480 O.3    50  DA50       -0.3114
    992  C5'      -25.4380  -14.3890  -23.5060 C.3    50  DA50        0.1811
    993  C4'      -25.2660  -15.1440  -22.2110 C.3    50  DA50        0.1746
    994  O4'      -24.5960  -14.3180  -21.2310 O.3    50  DA50       -0.3327
    995  C3'      -26.5680  -15.4900  -21.5310 C.3    50  DA50        0.1558
    996  O3'      -27.1720  -16.6080  -22.1650 O.3    50  DA50       -0.3138
    997  C2'      -26.0670  -15.7990  -20.1240 C.3    50  DA50        0.0865
    998  C1'      -24.9930  -14.7290  -19.9360 C.3    50  DA50        0.2094
    999  N9       -25.5300  -13.6380  -19.2360 N.ar   50  DA50       -0.2714
   1000  C8       -26.1220  -12.5390  -19.8010 C.ar   50  DA50        0.1815
   1001  N7       -26.7240  -11.7590  -18.9340 N.ar   50  DA50       -0.2193
   1002  C5       -26.5130  -12.3880  -17.7180 C.ar   50  DA50        0.1518
   1003  C6       -26.8980  -12.0640  -16.4050 C.ar   50  DA50        0.1919
   1004  N6       -27.6070  -10.9770  -16.0900 N.pl3  50  DA50       -0.1054
   1005  N1       -26.5260  -12.9050  -15.4170 N.ar   50  DA50       -0.2040
   1006  C2       -25.8160  -13.9940  -15.7340 C.ar   50  DA50        0.2016
   1007  N3       -25.3930  -14.4040  -16.9280 N.ar   50  DA50       -0.2048
   1008  C4       -25.7800  -13.5470  -17.8880 C.ar   50  DA50        0.1691
   1009  P        -28.7670  -16.7900  -22.0510 P.3    51  DA51        0.2141
   1010  OP1      -29.3820  -18.0350  -22.5010 O.2    51  DA51       -0.5172
   1011  OP2      -29.5380  -15.5220  -22.1860 O.3    51  DA51       -0.4373
   1012  O5'      -28.2350  -16.9400  -20.5680 O.3    51  DA51       -0.3114
   1013  C5'      -27.6070  -18.1460  -20.1410 C.3    51  DA51        0.1811
   1014  C4'      -27.9510  -18.4580  -18.7040 C.3    51  DA51        0.1746
   1015  O4'      -27.3600  -17.4650  -17.8230 O.3    51  DA51       -0.3327
   1016  C3'      -29.4220  -18.3930  -18.3480 C.3    51  DA51        0.1558
   1017  O3'      -30.0550  -19.5790  -18.7550 O.3    51  DA51       -0.3138
   1018  C2'      -29.3290  -18.2450  -16.8350 C.3    51  DA51        0.0865
   1019  C1'      -28.2320  -17.2120  -16.7400 C.3    51  DA51        0.2094
   1020  N9       -28.6410  -15.7360  -16.8130 N.ar   51  DA51       -0.2714
   1021  C8       -28.8010  -14.9300  -17.9100 C.ar   51  DA51        0.1815
   1022  N7       -29.2290  -13.7240  -17.6220 N.ar   51  DA51       -0.2193
   1023  C5       -29.3580  -13.7380  -16.2430 C.ar   51  DA51        0.1518
   1024  C6       -29.7710  -12.7590  -15.3210 C.ar   51  DA51        0.1919
   1025  N6       -30.1440  -11.5260  -15.6700 N.pl3  51  DA51       -0.1054
   1026  N1       -29.7880  -13.0970  -14.0140 N.ar   51  DA51       -0.2040
   1027  C2       -29.4130  -14.3330  -13.6650 C.ar   51  DA51        0.2016
   1028  N3       -29.0050  -15.3370  -14.4380 N.ar   51  DA51       -0.2048
   1029  C4       -29.0010  -14.9700  -15.7300 C.ar   51  DA51        0.1691
   1030  P        -31.4150  -19.5700  -19.0490 P.3    52  DG52        0.2141
   1031  OP1      -31.8650  -20.8900  -19.5420 O.3    52  DG52       -0.4373
   1032  OP2      -31.6500  -18.3180  -19.8080 O.2    52  DG52       -0.5172
   1033  O5'      -32.1310  -19.3370  -17.6430 O.3    52  DG52       -0.3114
   1034  C5'      -32.3610  -20.4710  -16.8220 C.3    52  DG52        0.1811
   1035  C4'      -32.6360  -20.0580  -15.4020 C.3    52  DG52        0.1746
   1036  O4'      -31.8190  -18.9020  -15.0820 O.3    52  DG52       -0.3327
   1037  C3'      -34.0560  -19.6030  -15.1060 C.3    52  DG52        0.1558
   1038  O3'      -34.9360  -20.6850  -14.8560 O.3    52  DG52       -0.3138
   1039  C2'      -33.8730  -18.6960  -13.8970 C.3    52  DG52        0.0865
   1040  C1'      -32.4930  -18.0860  -14.1510 C.3    52  DG52        0.2093
   1041  N9       -32.5730  -16.7150  -14.7610 N.ar   52  DG52       -0.2728
   1042  C8       -32.2160  -16.3390  -16.0330 C.ar   52  DG52        0.1814
   1043  N7       -32.3770  -15.0640  -16.2580 N.ar   52  DG52       -0.2177
   1044  C5       -32.8670  -14.5640  -15.0650 C.ar   52  DG52        0.1711
   1045  C6       -33.2350  -13.2440  -14.6990 C.2    52  DG52        0.2985
   1046  O6       -33.1950  -12.2180  -15.3900 O.2    52  DG52       -0.2655
   1047  N1       -33.6870  -13.1760  -13.3840 N.am   52  DG52       -0.1054
   1048  C2       -33.7740  -14.2470  -12.5280 C.1    52  DG52        0.1294
   1049  N2       -34.2330  -13.9840  -11.2970 N.2    52  DG52       -0.0697
   1050  N3       -33.4360  -15.4790  -12.8540 N.pl3  52  DG52       -0.1270
   1051  C4       -32.9950  -15.5700  -14.1270 C.ar   52  DG52        0.1688
   1052  P        -36.4830  -20.5650  -15.2890 P.3    53  DA53        0.2141
   1053  OP1      -37.0410  -21.9310  -15.1810 O.3    53  DA53       -0.4373
   1054  OP2      -36.6530  -19.8040  -16.5500 O.2    53  DA53       -0.5172
   1055  O5'      -37.1440  -19.6240  -14.1660 O.3    53  DA53       -0.3114
   1056  C5'      -37.2890  -20.0570  -12.8160 C.3    53  DA53        0.1811
   1057  C4'      -37.7150  -18.9540  -11.8670 C.3    53  DA53        0.1746
   1058  O4'      -36.6650  -17.9620  -11.7100 O.3    53  DA53       -0.3327
   1059  C3'      -38.9290  -18.1370  -12.2760 C.3    53  DA53        0.1558
   1060  O3'      -40.1550  -18.7960  -12.0120 O.3    53  DA53       -0.3138
   1061  C2'      -38.7460  -16.8290  -11.5090 C.3    53  DA53        0.0865
   1062  C1'      -37.2280  -16.6810  -11.5190 C.3    53  DA53        0.2094
   1063  N9       -36.8690  -15.7520  -12.6460 N.ar   53  DA53       -0.2714
   1064  C8       -36.2630  -16.0190  -13.8460 C.ar   53  DA53        0.1815
   1065  N7       -36.0640  -14.9540  -14.5860 N.ar   53  DA53       -0.2193
   1066  C5       -36.5750  -13.9180  -13.8210 C.ar   53  DA53        0.1518
   1067  C6       -36.6670  -12.5330  -14.0440 C.ar   53  DA53        0.1919
   1068  N6       -36.2260  -11.9310  -15.1510 N.pl3  53  DA53       -0.1054
   1069  N1       -37.2340  -11.7790  -13.0780 N.ar   53  DA53       -0.2040
   1070  C2       -37.6750  -12.3820  -11.9680 C.ar   53  DA53        0.2016
   1071  N3       -37.6440  -13.6720  -11.6440 N.ar   53  DA53       -0.2048
   1072  C4       -37.0760  -14.3940  -12.6240 C.ar   53  DA53        0.1691
   1073  P        -41.2560  -18.8720  -13.1300 P.3    54  DG54        0.2141
   1074  OP1      -42.4290  -19.3830  -12.3860 O.3    54  DG54       -0.4373
   1075  OP2      -40.9690  -19.2170  -14.5440 O.2    54  DG54       -0.5172
   1076  O5'      -41.3560  -17.2860  -13.1210 O.3    54  DG54       -0.3114
   1077  C5'      -41.7770  -16.7470  -11.8860 C.3    54  DG54        0.1811
   1078  C4'      -41.7830  -15.2450  -11.9230 C.3    54  DG54        0.1746
   1079  O4'      -40.4650  -14.7430  -12.2440 O.3    54  DG54       -0.3327
   1080  C3'      -42.7000  -14.6060  -12.9470 C.3    54  DG54        0.1558
   1081  O3'      -44.0260  -14.5720  -12.4550 O.3    54  DG54       -0.3138
   1082  C2'      -42.0910  -13.2240  -13.0650 C.3    54  DG54        0.0865
   1083  C1'      -40.5960  -13.5250  -12.9340 C.3    54  DG54        0.2094
   1084  N9       -39.7700  -13.8420  -14.1750 N.ar   54  DG54       -0.2713
   1085  C8       -39.6300  -15.0430  -14.8270 C.ar   54  DG54        0.1816
   1086  N7       -39.1710  -14.9190  -16.0430 N.ar   54  DG54       -0.2173
   1087  C5       -38.9940  -13.5570  -16.2050 C.ar   54  DG54        0.1748
   1088  C6       -38.5220  -12.8140  -17.3170 C.ar   54  DG54        0.3023
   1089  O6       -38.1530  -13.2360  -18.4200 O.2    54  DG54       -0.2633
   1090  N1       -38.5020  -11.4460  -17.0580 N.ar   54  DG54       -0.1709
   1091  C2       -38.8880  -10.8660  -15.8740 C.ar   54  DG54        0.2606
   1092  N2       -38.7970   -9.5310  -15.8120 N.pl3  54  DG54       -0.0859
   1093  N3       -39.3290  -11.5440  -14.8320 N.ar   54  DG54       -0.1918
   1094  C4       -39.3590  -12.8740  -15.0610 C.ar   54  DG54        0.1722
   1095  P        -45.3130  -14.3060  -13.3280 P.3    55  DT55        0.2141
   1096  OP1      -46.5590  -14.4480  -12.5380 O.3    55  DT55       -0.4373
   1097  OP2      -45.0800  -15.1720  -14.5070 O.2    55  DT55       -0.5172
   1098  O5'      -45.1510  -12.8220  -13.9120 O.3    55  DT55       -0.3114
   1099  C5'      -44.9250  -11.7210  -13.0430 C.3    55  DT55        0.1812
   1100  C4'      -44.7300  -10.4280  -13.7980 C.3    55  DT55        0.1775
   1101  O4'      -43.3220  -10.1960  -14.0530 O.3    55  DT55       -0.3326
   1102  C3'      -45.3970  -10.3290  -15.1620 C.3    55  DT55        0.1859
   1103  O3'      -46.7560   -9.9400  -15.0620 O.3    55  DT55       -0.2202
   1104  C2'      -44.5520   -9.2890  -15.8850 C.3    55  DT55        0.0895
   1105  C1'      -43.1760   -9.4440  -15.2360 C.3    55  DT55        0.2107
   1106  N1       -42.2640  -10.1250  -15.9170 N.ar   55  DT55       -0.2559
   1107  C2       -41.5750   -9.4370  -16.8980 C.ar   55  DT55        0.3545
   1108  O2       -41.4010   -8.2320  -16.8660 O.2    55  DT55       -0.2443
   1109  N3       -41.0960  -10.2130  -17.9250 N.ar   55  DT55       -0.1533
   1110  C4       -41.2330  -11.5790  -18.0670 C.ar   55  DT55        0.2804
   1111  O4       -40.7460  -12.1370  -19.0470 O.2    55  DT55       -0.2654
   1112  C5       -41.9610  -12.2210  -17.0090 C.ar   55  DT55        0.0534
   1113  C6       -42.4380  -11.4900  -15.9980 C.ar   55  DT55        0.0824
   1114  C7       -42.1640  -13.7060  -17.0730 C.3    55  DT55        0.0377
   1115  P        -48.0680  -10.7830  -15.9010 P.3    56  DG56        0.4149
   1116  OP1      -49.4060  -10.3800  -15.3820 O.2    56  DG56       -0.2668
   1117  OP2      -47.9670  -11.8510  -16.9340 O.3    56  DG56       -0.1481
   1118  O5'      -47.3230   -9.4920  -16.4570 O.3    56  DG56       -0.2177
   1119  C5'      -47.7210   -8.8860  -17.6950 C.3    56  DG56        0.2140
   1120  C4'      -47.7260   -7.3850  -17.5580 C.3    56  DG56        0.1776
   1121  O4'      -48.6920   -7.0150  -16.5440 O.3    56  DG56       -0.3326
   1122  C3'      -46.4130   -6.7790  -17.0910 C.3    56  DG56        0.1559
   1123  O3'      -45.5330   -6.5240  -18.1860 O.3    56  DG56       -0.3138
   1124  C2'      -46.8590   -5.4970  -16.3970 C.3    56  DG56        0.0865
   1125  C1'      -48.2010   -5.9190  -15.7900 C.3    56  DG56        0.2094
   1126  N9       -48.1100   -6.4590  -14.4180 N.ar   56  DG56       -0.2713
   1127  C8       -48.6910   -7.6550  -14.0730 C.ar   56  DG56        0.1816
   1128  N7       -48.6480   -7.8990  -12.7920 N.ar   56  DG56       -0.2173
   1129  C5       -48.0030   -6.8010  -12.2550 C.ar   56  DG56        0.1748
   1130  C6       -47.6620   -6.4950  -10.9120 C.ar   56  DG56        0.3023
   1131  O6       -47.8770   -7.1670   -9.8960 O.2    56  DG56       -0.2633
   1132  N1       -47.0080   -5.2710  -10.8070 N.ar   56  DG56       -0.1709
   1133  C2       -46.7180   -4.4430  -11.8650 C.ar   56  DG56        0.2606
   1134  N2       -46.0820   -3.3020  -11.5650 N.pl3  56  DG56       -0.0859
   1135  N3       -47.0270   -4.7140  -13.1180 N.ar   56  DG56       -0.1918
   1136  C4       -47.6620   -5.8980  -13.2440 C.ar   56  DG56        0.1722
   1137  P        -43.7670   -7.0200  -18.1810 P.3    57  DG57        0.2141
   1138  OP1      -43.2930   -6.5570  -19.5070 O.2    57  DG57       -0.5172
   1139  OP2      -43.1770   -8.2410  -17.5720 O.3    57  DG57       -0.4373
   1140  O5'      -43.6580   -5.8180  -17.1450 O.3    57  DG57       -0.3114
   1141  C5'      -43.8830   -4.4780  -17.5770 C.3    57  DG57        0.1812
   1142  C4'      -43.7410   -3.5110  -16.4220 C.3    57  DG57        0.1775
   1143  O4'      -44.8390   -3.6980  -15.4780 O.3    57  DG57       -0.3326
   1144  C3'      -42.4800   -3.6170  -15.5710 C.3    57  DG57        0.1864
   1145  O3'      -41.3630   -3.0490  -16.2690 O.3    57  DG57       -0.2133
   1146  C2'      -42.9520   -2.9360  -14.2910 C.3    57  DG57        0.0894
   1147  C1'      -44.3510   -3.5510  -14.1550 C.3    57  DG57        0.2095
   1148  N9       -44.3000   -4.9580  -13.4880 N.ar   57  DG57       -0.2713
   1149  C8       -44.5490   -6.1980  -14.0240 C.ar   57  DG57        0.1816
   1150  N7       -44.4450   -7.1660  -13.1540 N.ar   57  DG57       -0.2173
   1151  C5       -44.1090   -6.5300  -11.9730 C.ar   57  DG57        0.1748
   1152  C6       -43.8610   -7.0570  -10.6800 C.ar   57  DG57        0.3023
   1153  O6       -43.8930   -8.2390  -10.3150 O.2    57  DG57       -0.2633
   1154  N1       -43.5480   -6.0580   -9.7620 N.ar   57  DG57       -0.1709
   1155  C2       -43.4830   -4.7170  -10.0540 C.ar   57  DG57        0.2606
   1156  N2       -43.1680   -3.9050   -9.0360 N.pl3  57  DG57       -0.0859
   1157  N3       -43.7110   -4.2130  -11.2510 N.ar   57  DG57       -0.1918
   1158  C4       -44.0150   -5.1640  -12.1590 C.ar   57  DG57        0.1722
   1159  P        -40.0710   -2.2740  -15.3460 P.3    58  DT58        0.3939
   1160  OP1      -39.5550   -0.9220  -15.6550 O.3    58  DT58       -0.1425
   1161  OP2      -39.8630   -3.3980  -16.2860 O.3    58  DT58       -0.1496
   1162  O5'      -39.4110   -2.7900  -13.9840 O.3    58  DT58       -0.2926
   1163  C5'      -39.9390   -2.3260  -12.7540 C.3    58  DT58        0.1829
   1164  C4'      -39.8960   -3.3990  -11.6960 C.3    58  DT58        0.1775
   1165  O4'      -40.3790   -4.6600  -12.2350 O.3    58  DT58       -0.3326
   1166  C3'      -38.5190   -3.7700  -11.1790 C.3    58  DT58        0.1864
   1167  O3'      -37.9520   -2.8150  -10.3020 O.3    58  DT58       -0.2133
   1168  C2'      -38.7970   -5.1220  -10.5360 C.3    58  DT58        0.0895
   1169  C1'      -39.7240   -5.7340  -11.5860 C.3    58  DT58        0.2107
   1170  N1       -38.9150   -6.5570  -12.5080 N.ar   58  DT58       -0.2559
   1171  C2       -38.5720   -7.8720  -12.2560 C.ar   58  DT58        0.3545
   1172  O2       -38.8160   -8.4320  -11.2020 O.2    58  DT58       -0.2443
   1173  N3       -37.9290   -8.5120  -13.2870 N.ar   58  DT58       -0.1533
   1174  C4       -37.6010   -7.9820  -14.5170 C.ar   58  DT58        0.2804
   1175  O4       -37.0220   -8.6830  -15.3440 O.2    58  DT58       -0.2654
   1176  C5       -37.9890   -6.6120  -14.7020 C.ar   58  DT58        0.0534
   1177  C6       -38.6160   -5.9650  -13.7150 C.ar   58  DT58        0.0824
   1178  C7       -37.6760   -5.9440  -16.0080 C.3    58  DT58        0.0377
   1179  P        -36.1710   -2.6200  -10.2860 P.3    59  DG59        0.3939
   1180  OP1      -37.2420   -1.7040   -9.6970 O.3    59  DG59       -0.1496
   1181  OP2      -35.0190   -2.0140  -10.9900 O.3    59  DG59       -0.1425
   1182  O5'      -35.3770   -3.5620   -9.2900 O.3    59  DG59       -0.2926
   1183  C5'      -35.9300   -4.1810   -8.1970 C.3    59  DG59        0.1828
   1184  C4'      -35.5560   -5.6590   -8.1620 C.3    59  DG59        0.1747
   1185  O4'      -36.2060   -6.3310   -9.2850 O.3    59  DG59       -0.3327
   1186  C3'      -34.1670   -6.3490   -8.1680 C.3    59  DG59        0.1558
   1187  O3'      -33.4180   -6.3090   -6.9590 O.3    59  DG59       -0.3138
   1188  C2'      -34.6750   -7.7850   -8.2420 C.3    59  DG59        0.0865
   1189  C1'      -35.8080   -7.6650   -9.2690 C.3    59  DG59        0.2093
   1190  N9       -35.3230   -7.9790  -10.5520 N.ar   59  DG59       -0.2728
   1191  C8       -35.1600   -7.1000  -11.5950 C.ar   59  DG59        0.1814
   1192  N7       -34.7170   -7.6680  -12.6830 N.ar   59  DG59       -0.2177
   1193  C5       -34.5810   -9.0010  -12.3430 C.ar   59  DG59        0.1711
   1194  C6       -34.1390  -10.1090  -13.1100 C.2    59  DG59        0.2985
   1195  O6       -33.7670  -10.1240  -14.2900 O.2    59  DG59       -0.2655
   1196  N1       -34.1530  -11.2910  -12.3740 N.am   59  DG59       -0.1054
   1197  C2       -34.5450  -11.3930  -11.0610 C.1    59  DG59        0.1294
   1198  N2       -34.4910  -12.6180  -10.5210 N.2    59  DG59       -0.0697
   1199  N3       -34.9580  -10.3720  -10.3350 N.pl3  59  DG59       -0.1270
   1200  C4       -34.9510   -9.2140  -11.0290 C.ar   59  DG59        0.1688
   1201  P        -31.8150   -6.6830   -6.9070 P.3    60  DT60        0.2141
   1202  OP1      -31.7080   -6.4370   -5.4500 O.3    60  DT60       -0.4373
   1203  OP2      -30.8800   -6.0080   -7.8460 O.2    60  DT60       -0.5172
   1204  O5'      -31.7350   -8.2570   -7.1510 O.3    60  DT60       -0.3114
   1205  C5'      -31.9470   -9.1580   -6.0800 C.3    60  DT60        0.1811
   1206  C4'      -31.5730  -10.5510   -6.4990 C.3    60  DT60        0.1746
   1207  O4'      -32.2330  -10.8280   -7.7580 O.3    60  DT60       -0.3327
   1208  C3'      -30.1080  -10.8320   -6.7840 C.3    60  DT60        0.1558
   1209  O3'      -29.3350  -11.0240   -5.5920 O.3    60  DT60       -0.3138
   1210  C2'      -30.2080  -12.0680   -7.6850 C.3    60  DT60        0.0866
   1211  C1'      -31.4780  -11.7780   -8.4880 C.3    60  DT60        0.2106
   1212  N1       -31.1520  -11.2290   -9.8220 N.ar   60  DT60       -0.2559
   1213  C2       -30.5790  -12.0390  -10.7840 C.ar   60  DT60        0.3545
   1214  O2       -30.1720  -13.1630  -10.5500 O.2    60  DT60       -0.2443
   1215  N3       -30.4960  -11.4820  -12.0380 N.ar   60  DT60       -0.1533
   1216  C4       -30.9200  -10.2260  -12.4180 C.ar   60  DT60        0.2804
   1217  O4       -30.7790   -9.8670  -13.5840 O.2    60  DT60       -0.2654
   1218  C5       -31.5030   -9.4460  -11.3630 C.ar   60  DT60        0.0534
   1219  C6       -31.5960   -9.9620  -10.1340 C.ar   60  DT60        0.0824
   1220  C7       -31.9940   -8.0640  -11.6760 C.3    60  DT60        0.0377
   1221  P        -27.7800  -10.3360   -5.4210 P.3    61  DT61        0.2141
   1222  OP1      -27.3540  -10.5390   -4.0140 O.3    61  DT61       -0.4373
   1223  OP2      -27.5870   -9.0060   -6.0640 O.2    61  DT61       -0.5172
   1224  O5'      -27.1410  -11.4800   -6.3170 O.3    61  DT61       -0.3114
   1225  C5'      -27.6860  -12.7860   -6.2370 C.3    61  DT61        0.1811
   1226  C4'      -27.0800  -13.6730   -7.2700 C.3    61  DT61        0.1746
   1227  O4'      -27.8980  -13.7630   -8.4610 O.3    61  DT61       -0.3327
   1228  C3'      -25.7260  -13.2720   -7.7920 C.3    61  DT61        0.1558
   1229  O3'      -24.7130  -13.4710   -6.8150 O.3    61  DT61       -0.3138
   1230  C2'      -25.6310  -14.1430   -9.0450 C.3    61  DT61        0.0866
   1231  C1'      -27.0690  -14.0910   -9.5610 C.3    61  DT61        0.2106
   1232  N1       -27.2270  -12.9890  -10.6100 N.ar   61  DT61       -0.2559
   1233  C2       -27.0360  -13.3200  -11.9380 C.ar   61  DT61        0.3545
   1234  O2       -26.7630  -14.4480  -12.3090 O.2    61  DT61       -0.2443
   1235  N3       -27.1770  -12.2780  -12.8230 N.ar   61  DT61       -0.1533
   1236  C4       -27.4810  -10.9670  -12.5190 C.ar   61  DT61        0.2804
   1237  O4       -27.5750  -10.1420  -13.4240 O.2    61  DT61       -0.2654
   1238  C5       -27.6630  -10.7030  -11.1190 C.ar   61  DT61        0.0534
   1239  C6       -27.5320  -11.6980  -10.2380 C.ar   61  DT61        0.0824
   1240  C7       -27.9970   -9.3060  -10.6870 C.3    61  DT61        0.0377
   1241  P        -23.1120  -13.4650   -7.3350 P.3    62  DG62        0.2141
   1242  OP1      -22.2330  -13.8210   -6.1920 O.3    62  DG62       -0.4373
   1243  OP2      -23.2050  -12.0510   -7.7890 O.2    62  DG62       -0.5172
   1244  O5'      -22.7050  -14.3630   -8.5870 O.3    62  DG62       -0.3114
   1245  C5'      -22.4080  -15.7620   -8.4420 C.3    62  DG62        0.1811
   1246  C4'      -22.0330  -16.3530   -9.7850 C.3    62  DG62        0.1746
   1247  O4'      -23.1120  -16.1030  -10.7210 O.3    62  DG62       -0.3327
   1248  C3'      -20.8100  -15.7580  -10.4700 C.3    62  DG62        0.1558
   1249  O3'      -19.6150  -16.3770  -10.0120 O.3    62  DG62       -0.3138
   1250  C2'      -21.0700  -16.0840  -11.9310 C.3    62  DG62        0.0865
   1251  C1'      -22.5800  -15.8770  -12.0140 C.3    62  DG62        0.2094
   1252  N9       -22.9920  -14.5240  -12.3980 N.ar   62  DG62       -0.2713
   1253  C8       -23.2940  -13.4270  -11.6270 C.ar   62  DG62        0.1816
   1254  N7       -23.4090  -12.3270  -12.3190 N.ar   62  DG62       -0.2173
   1255  C5       -23.1720  -12.7150  -13.6240 C.ar   62  DG62        0.1748
   1256  C6       -23.1570  -11.9590  -14.8250 C.ar   62  DG62        0.3023
   1257  O6       -23.3600  -10.7480  -14.9690 O.2    62  DG62       -0.2633
   1258  N1       -22.8700  -12.7500  -15.9340 N.ar   62  DG62       -0.1709
   1259  C2       -22.6270  -14.1020  -15.8920 C.ar   62  DG62        0.2606
   1260  N2       -22.3690  -14.6930  -17.0670 N.pl3  62  DG62       -0.0859
   1261  N3       -22.6370  -14.8170  -14.7850 N.ar   62  DG62       -0.1918
   1262  C4       -22.9120  -14.0710  -13.6950 C.ar   62  DG62        0.1722
   1263  P        -18.0750  -15.6210  -10.2110 P.3    63  DG63        0.2141
   1264  OP1      -16.8240  -16.4020  -10.0800 O.3    63  DG63       -0.4373
   1265  OP2      -18.0540  -14.1410  -10.1560 O.2    63  DG63       -0.5172
   1266  O5'      -18.7380  -15.9530  -11.6250 O.3    63  DG63       -0.3114
   1267  C5'      -18.6090  -17.2450  -12.1930 C.3    63  DG63        0.1811
   1268  C4'      -18.4530  -17.1140  -13.6810 C.3    63  DG63        0.1744
   1269  O4'      -19.6180  -16.4310  -14.2080 O.3    63  DG63       -0.3348
   1270  C3'      -17.2720  -16.2660  -14.1220 C.3    63  DG63        0.1555
   1271  O3'      -16.0720  -17.0180  -14.2290 O.3    63  DG63       -0.3139
   1272  C2'      -17.7300  -15.6530  -15.4410 C.3    63  DG63        0.0836
   1273  C1'      -19.2510  -15.5750  -15.2680 C.3    63  DG63        0.1985
   1274  N9       -19.6710  -14.2410  -14.9380 N.pl3  63  DG63       -0.2313
   1275  C8       -19.6650  -13.5230  -13.7670 C.2    63  DG63        0.1680
   1276  N7       -19.6950  -12.2310  -13.9550 N.2    63  DG63       -0.2207
   1277  C5       -19.7250  -12.0850  -15.3290 C.2    63  DG63        0.1897
   1278  C6       -19.7630  -10.9170  -16.1330 C.2    63  DG63        0.3367
   1279  O6       -19.7790   -9.7350  -15.7660 O.2    63  DG63       -0.2584
   1280  N1       -19.7830  -11.2190  -17.4910 N.pl3  63  DG63       -0.0752
   1281  C2       -19.7680  -12.4910  -18.0120 C.cat  63  DG63        0.4557
   1282  N2       -19.7920  -12.5830  -19.3480 N.pl3  63  DG63        0.1442
   1283  N3       -19.7310  -13.5860  -17.2780 N.2    63  DG63       -0.0708
   1284  C4       -19.7110  -13.3170  -15.9560 C.3    63  DG63        0.3067
   1285  P        -14.6890  -16.2670  -14.5690 P.3    64  DC64        0.2141
   1286  OP1      -13.6220  -17.2220  -14.9620 O.2    64  DC64       -0.5172
   1287  OP2      -14.3990  -15.1830  -13.6010 O.3    64  DC64       -0.4373
   1288  O5'      -15.2740  -15.5950  -15.8760 O.3    64  DC64       -0.3114
   1289  C5'      -15.1600  -16.2540  -17.1130 C.3    64  DC64        0.1811
   1290  C4'      -14.9580  -15.2440  -18.1940 C.3    64  DC64        0.1746
   1291  O4'      -16.1980  -14.5060  -18.3110 O.3    64  DC64       -0.3327
   1292  C3'      -13.8600  -14.2060  -17.9480 C.3    64  DC64        0.1558
   1293  O3'      -12.5660  -14.6110  -18.4490 O.3    64  DC64       -0.3138
   1294  C2'      -14.3850  -13.0320  -18.7380 C.3    64  DC64        0.0866
   1295  C1'      -15.9040  -13.1540  -18.5360 C.3    64  DC64        0.2106
   1296  N1       -16.4310  -12.3550  -17.4160 N.ar   64  DC64       -0.2556
   1297  C2       -16.7290  -11.0090  -17.6590 C.ar   64  DC64        0.3531
   1298  O2       -16.6930  -10.5910  -18.8290 O.2    64  DC64       -0.2443
   1299  N3       -17.0470  -10.2050  -16.6160 N.ar   64  DC64       -0.1739
   1300  C4       -17.0720  -10.6970  -15.3770 C.ar   64  DC64        0.1759
   1301  N4       -17.3910   -9.8670  -14.3810 N.pl3  64  DC64       -0.1070
   1302  C5       -16.7730  -12.0580  -15.1100 C.ar   64  DC64        0.0566
   1303  C6       -16.4600  -12.8490  -16.1420 C.ar   64  DC64        0.0849
   1304  P        -11.2100  -13.7860  -18.1060 P.3    65  DT65        0.2141
   1305  OP1      -10.3280  -14.5230  -19.0410 O.2    65  DT65       -0.5172
   1306  OP2      -10.8260  -13.9150  -16.6500 O.3    65  DT65       -0.4373
   1307  O5'      -11.4040  -12.2520  -18.3700 O.3    65  DT65       -0.3114
   1308  C5'      -10.9730  -11.7650  -19.6640 C.3    65  DT65        0.1811
   1309  C4'      -11.1520  -10.2780  -19.6180 C.3    65  DT65        0.1746
   1310  O4'      -12.4810   -9.9410  -19.2940 O.3    65  DT65       -0.3327
   1311  C3'      -10.3190   -9.5110  -18.6050 C.3    65  DT65        0.1558
   1312  O3'       -8.9600   -9.3650  -18.9620 O.3    65  DT65       -0.3138
   1313  C2'      -11.0780   -8.1860  -18.6080 C.3    65  DT65        0.0866
   1314  C1'      -12.5090   -8.6620  -18.6340 C.3    65  DT65        0.2106
   1315  N1       -13.1370   -8.8210  -17.3250 N.ar   65  DT65       -0.2559
   1316  C2       -13.7140   -7.7130  -16.7340 C.ar   65  DT65        0.3545
   1317  O2       -13.7600   -6.6210  -17.2730 O.2    65  DT65       -0.2443
   1318  N3       -14.2370   -7.9280  -15.4820 N.ar   65  DT65       -0.1533
   1319  C4       -14.2410   -9.1130  -14.7770 C.ar   65  DT65        0.2804
   1320  O4       -14.7510   -9.1510  -13.6600 O.2    65  DT65       -0.2654
   1321  C5       -13.6230  -10.2170  -15.4570 C.ar   65  DT65        0.0534
   1322  C6       -13.1060  -10.0350  -16.6750 C.ar   65  DT65        0.0824
   1323  C7       -13.5770  -11.5510  -14.7720 C.3    65  DT65        0.0377
   1324  P         -7.7980   -8.8390  -17.8780 P.3    66  DC66        0.2141
   1325  OP1       -6.4820   -8.6870  -18.5360 O.2    66  DC66       -0.5172
   1326  OP2       -7.9220   -9.7110  -16.6860 O.3    66  DC66       -0.4373
   1327  O5'       -8.3720   -7.3850  -17.5300 O.3    66  DC66       -0.3114
   1328  C5'       -7.9950   -6.2680  -18.3120 C.3    66  DC66        0.1811
   1329  C4'       -8.4880   -4.9900  -17.6640 C.3    66  DC66        0.1746
   1330  O4'       -9.9250   -5.0490  -17.4750 O.3    66  DC66       -0.3327
   1331  C3'       -7.9740   -4.7190  -16.2580 C.3    66  DC66        0.1558
   1332  O3'       -6.6800   -4.1700  -16.2960 O.3    66  DC66       -0.3138
   1333  C2'       -8.9790   -3.6680  -15.8270 C.3    66  DC66        0.0866
   1334  C1'      -10.2610   -4.3440  -16.2890 C.3    66  DC66        0.2106
   1335  N1       -10.8200   -5.3030  -15.2860 N.ar   66  DC66       -0.2556
   1336  C2       -11.5400   -4.8220  -14.1860 C.ar   66  DC66        0.3531
   1337  O2       -11.6400   -3.5940  -14.0280 O.2    66  DC66       -0.2443
   1338  N3       -12.1030   -5.7070  -13.3290 N.ar   66  DC66       -0.1739
   1339  C4       -11.9680   -7.0170  -13.5370 C.ar   66  DC66        0.1759
   1340  N4       -12.5410   -7.8500  -12.6660 N.pl3  66  DC66       -0.1070
   1341  C5       -11.2430   -7.5240  -14.6460 C.ar   66  DC66        0.0566
   1342  C6       -10.6880   -6.6480  -15.4900 C.ar   66  DC66        0.0849
   1343  P         -5.7170   -4.5960  -15.1840 P.3    67  DC67        0.2141
   1344  OP1       -4.4730   -3.9600  -15.6710 O.2    67  DC67       -0.5172
   1345  OP2       -5.6940   -6.0200  -14.7620 O.3    67  DC67       -0.4373
   1346  O5'       -6.3470   -3.7210  -13.9950 O.3    67  DC67       -0.3114
   1347  C5'       -6.2530   -2.3010  -14.0090 C.3    67  DC67        0.1811
   1348  C4'       -6.9430   -1.6840  -12.8020 C.3    67  DC67        0.1746
   1349  O4'       -8.3480   -2.0350  -12.8030 O.3    67  DC67       -0.3327
   1350  C3'       -6.4780   -2.1640  -11.4380 C.3    67  DC67        0.1558
   1351  O3'       -5.2950   -1.5180  -11.0340 O.3    67  DC67       -0.3138
   1352  C2'       -7.6460   -1.7570  -10.5590 C.3    67  DC67        0.0866
   1353  C1'       -8.8160   -2.1080  -11.4650 C.3    67  DC67        0.2106
   1354  N1        -9.3550   -3.5130  -11.2030 N.ar   67  DC67       -0.2556
   1355  C2       -10.2110   -3.7620  -10.1240 C.ar   67  DC67        0.3531
   1356  O2       -10.4850   -2.8290   -9.3510 O.2    67  DC67       -0.2443
   1357  N3       -10.7140   -5.0090   -9.9550 N.ar   67  DC67       -0.1739
   1358  C4       -10.3910   -5.9800  -10.8100 C.ar   67  DC67        0.1759
   1359  N4       -10.9100   -7.1920  -10.6030 N.pl3  67  DC67       -0.1070
   1360  C5        -9.5250   -5.7480  -11.9090 C.ar   67  DC67        0.0566
   1361  C6        -9.0310   -4.5160  -12.0730 C.ar   67  DC67        0.0849
   1362  P         -4.3010   -2.4290  -10.7240 P.3    68  DC68        0.2141
   1363  OP1       -2.8910   -2.0410  -10.9800 O.3    68  DC68       -0.4373
   1364  OP2       -4.8040   -3.7310  -11.2010 O.2    68  DC68       -0.5172
   1365  O5'       -4.6520   -2.4350   -9.1610 O.3    68  DC68       -0.3114
   1366  C5'       -4.4730   -1.2430   -8.4100 C.3    68  DC68        0.1811
   1367  C4'       -5.3670   -1.1710   -7.1970 C.3    68  DC68        0.1746
   1368  O4'       -6.7290   -1.5270   -7.5460 O.3    68  DC68       -0.3327
   1369  C3'       -5.0220   -2.0970   -6.0420 C.3    68  DC68        0.1558
   1370  O3'       -3.9490   -1.5940   -5.2600 O.3    68  DC68       -0.3138
   1371  C2'       -6.3520   -2.1740   -5.2930 C.3    68  DC68        0.0866
   1372  C1'       -7.3640   -2.1220   -6.4360 C.3    68  DC68        0.2106
   1373  N1        -7.8120   -3.5000   -6.8360 N.ar   68  DC68       -0.2556
   1374  C2        -8.6080   -4.2710   -5.9810 C.ar   68  DC68        0.3531
   1375  O2        -8.9090   -3.8100   -4.8670 O.2    68  DC68       -0.2443
   1376  N3        -9.0250   -5.4920   -6.3920 N.ar   68  DC68       -0.1739
   1377  C4        -8.6760   -5.9460   -7.5960 C.ar   68  DC68        0.1759
   1378  N4        -9.1110   -7.1560   -7.9580 N.pl3  68  DC68       -0.1070
   1379  C5        -7.8700   -5.1810   -8.4770 C.ar   68  DC68        0.0566
   1380  C6        -7.4600   -3.9750   -8.0680 C.ar   68  DC68        0.0849
   1381  P         -2.9970   -2.5730   -4.2040 P.3    69  DG69        0.2141
   1382  OP1       -1.6890   -1.9810   -3.8280 O.3    69  DG69       -0.4373
   1383  OP2       -3.0650   -3.6400   -5.2280 O.2    69  DG69       -0.5172
   1384  O5'       -3.7170   -3.2400   -2.9370 O.3    69  DG69       -0.3114
   1385  C5'       -4.1020   -2.4900   -1.7930 C.3    69  DG69        0.1811
   1386  C4'       -5.1450   -3.2080   -0.9690 C.3    69  DG69        0.1746
   1387  O4'       -6.3050   -3.4980   -1.7890 O.3    69  DG69       -0.3327
   1388  C3'       -4.7620   -4.5620   -0.3870 C.3    69  DG69        0.1558
   1389  O3'       -3.9660   -4.4630    0.7850 O.3    69  DG69       -0.3138
   1390  C2'       -6.1230   -5.2170   -0.1550 C.3    69  DG69        0.0865
   1391  C1'       -6.9150   -4.7000   -1.3550 C.3    69  DG69        0.2094
   1392  N9        -6.9590   -5.5930   -2.4370 N.ar   69  DG69       -0.2713
   1393  C8        -6.1090   -5.6040   -3.5160 C.ar   69  DG69        0.1816
   1394  N7        -6.3230   -6.6000   -4.3310 N.ar   69  DG69       -0.2173
   1395  C5        -7.3770   -7.2890   -3.7610 C.ar   69  DG69        0.1748
   1396  C6        -8.0520   -8.4620   -4.1870 C.ar   69  DG69        0.3023
   1397  O6        -7.8370   -9.1450   -5.1960 O.2    69  DG69       -0.2633
   1398  N1        -9.0690   -8.8260   -3.3090 N.ar   69  DG69       -0.1709
   1399  C2        -9.3950   -8.1440   -2.1610 C.ar   69  DG69        0.2606
   1400  N2       -10.4080   -8.6480   -1.4420 N.pl3  69  DG69       -0.0859
   1401  N3        -8.7770   -7.0540   -1.7520 N.ar   69  DG69       -0.1918
   1402  C4        -7.7850   -6.6820   -2.5890 C.ar   69  DG69        0.1722
   1403  P         -3.2410   -5.8920    1.5500 P.3    70  DT70        0.2141
   1404  OP1       -2.4940   -5.2930    2.6880 O.3    70  DT70       -0.4373
   1405  OP2       -2.4920   -6.4310    0.3880 O.2    70  DT70       -0.5172
   1406  O5'       -4.1590   -7.0510    2.1440 O.3    70  DT70       -0.3114
   1407  C5'       -5.0490   -6.7870    3.2410 C.3    70  DT70        0.1811
   1408  C4'       -6.0970   -7.8650    3.3260 C.3    70  DT70        0.1746
   1409  O4'       -6.8600   -7.8800    2.0920 O.3    70  DT70       -0.3327
   1410  C3'       -5.5550   -9.2790    3.4580 C.3    70  DT70        0.1558
   1411  O3'       -5.2670   -9.5690    4.8240 O.3    70  DT70       -0.3138
   1412  C2'       -6.6980  -10.1120    2.8920 C.3    70  DT70        0.0866
   1413  C1'       -7.1790   -9.2180    1.7420 C.3    70  DT70        0.2106
   1414  N1        -6.5810   -9.4420    0.3820 N.ar   70  DT70       -0.2559
   1415  C2        -7.0180  -10.5390   -0.3380 C.ar   70  DT70        0.3545
   1416  O2        -7.8970  -11.2840    0.0570 O.2    70  DT70       -0.2443
   1417  N3        -6.3850  -10.7340   -1.5410 N.ar   70  DT70       -0.1533
   1418  C4        -5.3810   -9.9600   -2.0860 C.ar   70  DT70        0.2804
   1419  O4        -4.9110  -10.2610   -3.1800 O.2    70  DT70       -0.2654
   1420  C5        -4.9820   -8.8410   -1.2790 C.ar   70  DT70        0.0534
   1421  C6        -5.5810   -8.6280   -0.1040 C.ar   70  DT70        0.0824
   1422  C7        -3.8960   -7.9390   -1.7850 C.3    70  DT70        0.0377
   1423  P         -3.9000  -11.1070    5.4850 P.3    71  DA71        0.2141
   1424  OP1       -3.7410  -10.9880    6.9600 O.3    71  DA71       -0.4373
   1425  OP2       -2.7180  -11.0360    4.5870 O.2    71  DA71       -0.5172
   1426  O5'       -4.6820  -12.4530    5.0800 O.3    71  DA71       -0.3114
   1427  C5'       -5.3190  -13.2710    6.0590 C.3    71  DA71        0.1811
   1428  C4'       -6.1750  -14.3200    5.3830 C.3    71  DA71        0.1767
   1429  O4'       -6.7120  -13.7680    4.1650 O.3    71  DA71       -0.3327
   1430  C3'       -5.4200  -15.5300    4.8740 C.3    71  DA71        0.2208
   1431  O3'       -5.2400  -16.4950    5.8840 O.3    71  DA71       -0.0346
   1432  C2'       -6.2950  -16.0510    3.7390 C.3    71  DA71        0.0586
   1433  C1'       -6.7250  -14.7340    3.1260 C.3    71  DA71        0.2070
   1434  N9        -5.9480  -14.3430    2.0290 N.ar   71  DA71       -0.2715
   1435  C8        -5.2280  -13.1770    2.0080 C.ar   71  DA71        0.1815
   1436  N7        -4.7140  -12.8940    0.8340 N.ar   71  DA71       -0.2193
   1437  C5        -5.1250  -13.9460    0.0300 C.ar   71  DA71        0.1518
   1438  C6        -4.9110  -14.2380   -1.3280 C.ar   71  DA71        0.1919
   1439  N6        -4.2000  -13.4610   -2.1480 N.pl3  71  DA71       -0.1054
   1440  N1        -5.4590  -15.3690   -1.8200 N.ar   71  DA71       -0.2040
   1441  C2        -6.1730  -16.1470   -0.9980 C.ar   71  DA71        0.2016
   1442  N3        -6.4440  -15.9790    0.2940 N.ar   71  DA71       -0.2048
   1443  C4        -5.8850  -14.8470    0.7530 C.ar   71  DA71        0.1691
   1444  P         -3.8260  -16.1250    4.6390 P.3    72  DT72        0.2954
   1445  OP1       -5.0900  -16.2710    5.4090 O.3    72  DT72       -0.1862
   1446  OP2       -2.5660  -15.7740    5.3510 O.3    72  DT72       -0.1680
   1447  O5'       -3.5550  -17.4570    3.8060 O.3    72  DT72       -0.3089
   1448  C5'       -3.5040  -18.7120    4.4670 C.3    72  DT72        0.1810
   1449  C4'       -3.6700  -19.8460    3.4840 C.3    72  DT72        0.1753
   1450  O4'       -2.4070  -20.0940    2.8030 O.3    72  DT72       -0.3510
   1451  C3'       -3.9860  -21.1590    4.1790 C.3    72  DT72        0.1839
   1452  O3'       -5.3780  -21.2830    4.4320 O.3    72  DT72       -0.2204
   1453  C2'       -3.4200  -22.2000    3.2240 C.3    72  DT72        0.0676
   1454  C1'       -2.1570  -21.4910    2.7320 C.3    72  DT72        0.1450
   1455  N1        -2.6910  -17.9660    0.8960 N.2    72  DT72       -0.1608
   1456  C2        -2.1830  -17.8180   -0.3800 C.1    72  DT72        0.2395
   1457  O2        -2.2150  -18.7050   -1.2150 O.2    72  DT72       -0.2041
   1458  N3        -1.6320  -16.5880   -0.6470 N.am   72  DT72       -0.0881
   1459  C4        -1.5400  -15.5150    0.2150 C.2    72  DT72        0.2768
   1460  O4        -1.0180  -14.4720   -0.1710 O.2    72  DT72       -0.2676
   1461  C5        -2.0890  -15.7480    1.5210 C.2    72  DT72        0.0541
   1462  C6        -2.6300  -16.9340    1.8080 C.2    72  DT72        0.1126
   1463  C7        -2.0370  -14.6410    2.5320 C.3    72  DT72        0.0376
@<TRIPOS>BOND
     1   989   988    2
     2   972   971    1
     3   972   973    1
     4   971   968    1
     5   976   988    1
     6   976   975    1
     7   988   991    1
     8   988   990    1
     9   969   968    2
    10   973   975    1
    11   973   974    1
    12   992   991    1
    13   992   993    1
    14   955   968    1
    15   955   954    1
    16   968   970    1
    17   975   977    1
    18   974   978    1
    19  1010  1009    2
    20   977   978    1
    21   993   995    1
    22   993   994    1
    23  1011  1009    1
    24   996  1009    1
    25   996   995    1
    26   954   952    1
    27   954   956    1
    28  1009  1012    1
    29   952   951    1
    30   952   953    1
    31   978   979    1
    32   956   957    1
    33   995   997    1
    34   951   950    1
    35   994   998    1
    36   953   957    1
    37   957   958    1
    38  1012  1013    1
    39   979   986   ar
    40   979   980   ar
    41   948   947    2
    42   986   985   ar
    43  1013  1014    1
    44   997   998    1
    45   950   947    1
    46   998   999    1
    47  1032  1030    2
    48  1000   999   ar
    49  1000  1001   ar
    50  1308  1309    1
    51  1308  1307    1
    52  1309  1310    1
    53  1309  1311    1
    54  1031  1030    1
    55  1138  1137    2
    56   947   934    1
    57   947   949    1
    58   958   967   ar
    59   958   959   ar
    60   981   980    2
    61   934   933    1
    62   980   982   ar
    63  1282  1281    1
    64   966   967    2
    65   966   965    1
    66  1310  1314    1
    67   999  1008   ar
    68   985   987    1
    69   985   983   ar
    70  1030  1017    1
    71  1030  1033    1
    72  1111  1110    2
    73  1305  1304    2
    74  1312  1311    1
    75  1312  1324    1
    76   935   933    1
    77   935   936    1
    78  1001  1002   ar
    79  1298  1297    2
    80   967   961   ar
    81  1017  1016    1
    82  1294  1295    1
    83  1294  1292    1
    84  1014  1016    1
    85  1014  1015    1
    86  1314  1313    1
    87  1314  1315    1
    88  1313  1311    1
    89   959   960   ar
    90  1325  1324    2
    91  1295  1291    1
    92  1295  1296    1
    93   933   931    1
    94  1293  1304    1
    95  1293  1292    1
    96  1089  1088    2
    97   965  1280    1
    98   965   964    1
    99  1307  1304    1
   100  1016  1018    1
   101  1328  1329    1
   102  1328  1327    1
   103  1291  1290    1
   104   982   983   ar
   105  1290  1292    1
   106  1290  1289    1
   107  1123  1137    1
   108  1123  1122    1
   109  1137  1139    1
   110  1137  1140    1
   111  1304  1306    1
   112  1110  1109   ar
   113  1110  1112   ar
   114   931   932    1
   115   931   930    1
   116  1281  1280    1
   117  1281  1283    2
   118   983   984    2
   119  1109  1107   ar
   120  1021  1022   ar
   121  1021  1020   ar
   122  1008  1002   ar
   123  1008  1007   ar
   124  1324  1327    1
   125  1324  1326    1
   126   936   932    1
   127   936   937    1
   128  1015  1019    1
   129  1002  1003   ar
   130  1119  1120    1
   131  1119  1118    1
   132  1329  1330    1
   133  1329  1331    1
   134  1297  1296   ar
   135  1297  1299   ar
   136  1033  1034    1
   137  1022  1023   ar
   138   945   944   ar
   139   945   946   ar
   140  1141  1140    1
   141  1141  1142    1
   142  1120  1122    1
   143  1120  1121    1
   144   961   960   ar
   145   961   962    2
   146  1280  1278    1
   147  1330  1334    1
   148  1296  1303   ar
   149  1315  1316   ar
   150  1315  1322   ar
   151  1088  1090   ar
   152  1088  1087   ar
   153  1283  1284    1
   154  1317  1316    2
   155   944   943   ar
   156  1289  1288    1
   157   964   962    1
   158   964  1279    1
   159  1122  1124    1
   160   930   929    1
   161  1114  1112    1
   162  1260  1259    1
   163  1090  1091   ar
   164  1112  1113   ar
   165  1117  1115    1
   166  1007  1006   ar
   167  1107  1108    2
   168  1107  1106   ar
   169  1018  1019    1
   170  1034  1035    1
   171  1020  1019    1
   172  1020  1029   ar
   173   937   946   ar
   174   937   938   ar
   175  1316  1318   ar
   176  1322  1321   ar
   177   946   940   ar
   178   962   963    1
   179  1299  1300   ar
   180  1054  1052    2
   181  1121  1125    1
   182  1118  1103    1
   183  1142  1144    1
   184  1142  1143    1
   185  1003  1004    1
   186  1003  1005   ar
   187  1124  1125    1
   188  1332  1331    1
   189  1332  1343    1
   190  1334  1333    1
   191  1334  1335    1
   192  1161  1145    1
   193  1161  1159    1
   194  1145  1144    1
   195  1043  1042   ar
   196  1043  1044   ar
   197  1331  1333    1
   198  1023  1029   ar
   199  1023  1024   ar
   200  1087  1086   ar
   201  1087  1094   ar
   202  1303  1302   ar
   203  1278  1279    1
   204  1278  1277    2
   205   929   926    1
   206   943   941   ar
   207  1086  1085   ar
   208  1042  1041   ar
   209  1178  1176    1
   210  1113  1106   ar
   211  1284  1277    1
   212  1284  1274    1
   213  1258  1259   ar
   214  1258  1256   ar
   215  1106  1105    1
   216  1115  1116    2
   217  1259  1261   ar
   218  1104  1105    1
   219  1104  1102    1
   220  1288  1285    1
   221  1091  1092    1
   222  1091  1093   ar
   223  1125  1126    1
   224  1006  1005   ar
   225  1029  1028   ar
   226  1344  1343    2
   227  1025  1024    1
   228  1160  1159    1
   229  1144  1146    1
   230   938   939   ar
   231  1342  1335   ar
   232  1342  1341   ar
   233  1318  1319   ar
   234  1143  1147    1
   235  1321  1319   ar
   236  1321  1323    1
   237   940   941   ar
   238   940   939   ar
   239  1272  1273    1
   240  1272  1270    1
   241  1035  1037    1
   242  1035  1036    1
   243  1046  1045    2
   244   927   926    2
   245  1300  1302   ar
   246  1300  1301    1
   247  1159  1162    1
   248  1175  1174    2
   249  1277  1276    1
   250  1024  1026   ar
   251  1052  1053    1
   252  1052  1038    1
   253  1052  1055    1
   254  1335  1336   ar
   255  1273  1274    1
   256  1273  1269    1
   257  1105  1101    1
   258  1343  1345    1
   259  1343  1346    1
   260  1102  1103    1
   261  1102  1100    1
   262  1068  1067    1
   263   941   942    1
   264  1037  1038    1
   265  1037  1039    1
   266   923   924   ar
   267   923   922   ar
   268  1036  1040    1
   269  1044  1045    1
   270  1044  1051   ar
   271  1094  1093   ar
   272  1094  1084   ar
   273  1257  1256    2
   274  1286  1285    2
   275  1274  1275    1
   276   926   913    1
   277   926   928    1
   278  1085  1084   ar
   279  1256  1255   ar
   280   924   925   ar
   281  1261  1262   ar
   282  1319  1320    2
   283  1041  1040    1
   284  1041  1051   ar
   285  1176  1174   ar
   286  1176  1177   ar
   287  1045  1047    1
   288   913   912    1
   289  1341  1339   ar
   290   914   912    1
   291   914   915    1
   292  1065  1064   ar
   293  1065  1066   ar
   294  1285  1271    1
   295  1285  1287    1
   296  1075  1073    2
   297  1174  1173   ar
   298  1097  1095    2
   299  1028  1027   ar
   300  1126  1127   ar
   301  1126  1136   ar
   302   922   920   ar
   303  1146  1147    1
   304  1195  1194    2
   305  1271  1270    1
   306  1269  1268    1
   307  1336  1337    2
   308  1336  1338   ar
   309  1084  1083    1
   310  1055  1056    1
   311  1147  1148    1
   312  1040  1039    1
   313  1051  1050    1
   314  1270  1268    1
   315  1127  1128   ar
   316  1101  1100    1
   317  1067  1066   ar
   318  1067  1069   ar
   319  1149  1148   ar
   320  1149  1150   ar
   321  1026  1027   ar
   322  1347  1346    1
   323  1347  1348    1
   324  1162  1163    1
   325  1276  1275    2
   326  1098  1095    1
   327  1098  1099    1
   328   912   910    1
   329  1064  1063   ar
   330  1066  1072   ar
   331  1100  1099    1
   332  1177  1170   ar
   333  1262  1255   ar
   334  1262  1252   ar
   335  1268  1267    1
   336   925   916   ar
   337   925   919   ar
   338  1255  1254   ar
   339  1217  1216    2
   340  1339  1338   ar
   341  1339  1340    1
   342  1148  1158   ar
   343   915   916    1
   344   915   911    1
   345  1237  1236    2
   346  1047  1048    2
   347  1095  1096    1
   348  1095  1081    1
   349  1173  1171   ar
   350  1136  1135   ar
   351  1136  1129   ar
   352   920   919   ar
   353   920   921    1
   354  1150  1151   ar
   355  1073  1076    1
   356  1073  1074    1
   357  1073  1060    1
   358  1076  1077    1
   359  1135  1133   ar
   360  1194  1196    1
   361  1194  1193    1
   362  1069  1070   ar
   363  1082  1080    1
   364  1082  1083    1
   365   916   917   ar
   366  1080  1081    1
   367  1080  1078    1
   368  1083  1079    1
   369  1050  1048    1
   370  1235  1236   ar
   371  1235  1233   ar
   372  1056  1057    1
   373   919   918   ar
   374  1349  1348    1
   375  1349  1353    1
   376  1348  1350    1
   377  1128  1129   ar
   378   910   911    1
   379   910   909    1
   380  1163  1164    1
   381  1192  1193   ar
   382  1192  1191   ar
   383   744   743    2
   384  1063  1072   ar
   385  1063  1062    1
   386  1072  1071   ar
   387  1048  1049    2
   388  1236  1238   ar
   389  1170  1171   ar
   390  1170  1169    1
   391  1216  1215   ar
   392  1216  1218   ar
   393  1252  1251    1
   394  1252  1253   ar
   395  1196  1197    2
   396  1193  1200   ar
   397  1254  1253   ar
   398  1234  1233    2
   399  1059  1060    1
   400  1059  1057    1
   401  1059  1061    1
   402  1171  1172    2
   403  1129  1130   ar
   404  1079  1078    1
   405  1165  1164    1
   406  1165  1169    1
   407   902   901    1
   408  1267  1266    1
   409   765   764    1
   410   765   751    1
   411  1158  1151   ar
   412  1158  1157   ar
   413  1361  1360   ar
   414  1361  1354   ar
   415  1215  1213   ar
   416  1251  1250    1
   417  1251  1247    1
   418   766   764    1
   419  1151  1152   ar
   420  1070  1071   ar
   421  1233  1232   ar
   422  1250  1248    1
   423  1078  1077    1
   424  1360  1358   ar
   425   917   918   ar
   426   725   724    2
   427   706   705    2
   428  1057  1058    1
   429  1133  1134    1
   430  1133  1132   ar
   431  1058  1062    1
   432  1164  1166    1
   433  1220  1218    1
   434  1266  1263    1
   435  1191  1190   ar
   436  1169  1168    1
   437   909   908    1
   438  1062  1061    1
   439   784   783    2
   440  1353  1354    1
   441  1353  1352    1
   442  1350  1351    1
   443  1350  1352    1
   444   764   767    1
   445  1218  1219   ar
   446  1049  1198    1
   447   900   901   ar
   448   900   898   ar
   449  1157  1155   ar
   450   901   903   ar
   451  1354  1355   ar
   452  1364  1362    2
   453   743   745    1
   454   743   746    1
   455   743   732    1
   456  1166  1168    1
   457  1166  1167    1
   458  1238  1240    1
   459  1238  1239   ar
   460  1197  1198    2
   461  1197  1199    1
   462  1351  1362    1
   463  1200  1190   ar
   464  1200  1199    1
   465  1181  1179    1
   466  1363  1362    1
   467   751   750    1
   468   908   905    1
   469  1130  1132   ar
   470  1130  1131    2
   471  1358  1359    1
   472  1358  1357   ar
   473  1213  1214    2
   474  1213  1212   ar
   475   724   713    1
   476   724   726    1
   477   724   727    1
   478   747   746    1
   479   747   748    1
   480  1362  1365    1
   481  1247  1246    1
   482  1152  1153    2
   483  1152  1154   ar
   484  1232  1239   ar
   485  1232  1231    1
   486  1190  1189    1
   487   768   767    1
   488   768   769    1
   489  1248  1249    1
   490  1248  1246    1
   491   705   707    1
   492   705   692    1
   493   705   708    1
   494   713   712    1
   495   899   898    2
   496   903   904   ar
   497   898   897   ar
   498  1167  1180    1
   499  1179  1180    1
   500  1179  1182    1
   501   732   731    1
   502   783   785    1
   503   783   772    1
   504   783   786    1
   505  1263  1265    2
   506  1263  1264    1
   507  1263  1249    1
   508   785   771    1
   509  1219  1212   ar
   510   709   708    1
   511   709   710    1
   512  1355  1357   ar
   513  1355  1356    2
   514  1155  1154   ar
   515  1155  1156    1
   516   772   771    1
   517   748   750    1
   518   748   749    1
   519  1212  1211    1
   520   750   752    1
   521  1246  1245    1
   522   692   691    1
   523   728   727    1
   524   728   729    1
   525  1231  1230    1
   526  1231  1227    1
   527   904   897   ar
   528   904   894   ar
   529   905   906    2
   530   905   907    1
   531   905   891    1
   532   897   896   ar
   533   769   771    1
   534   769   770    1
   535  1182  1183    1
   536  1185  1189    1
   537  1185  1184    1
   538  1189  1188    1
   539   685   684    2
   540   731   729    1
   541   731   733    1
   542   712   710    1
   543   712   714    1
   544   710   711    1
   545  1365  1366    1
   546   771   773    1
   547  1230  1228    1
   548   786   787    1
   549   892   890    1
   550   892   893    1
   551   729   730    1
   552   787   788    1
   553   688   689    1
   554   688   687    1
   555   891   890    1
   556  1244  1245    1
   557  1244  1241    1
   558   752   753    1
   559  1211  1207    1
   560  1211  1210    1
   561  1379  1380   ar
   562  1379  1377   ar
   563  1227  1226    1
   564   749   753    1
   565   691   689    1
   566   691   693    1
   567  1366  1367    1
   568   894   893    1
   569   894   895   ar
   570   877   876    2
   571   689   690    1
   572   896   895   ar
   573   890   888    1
   574  1188  1186    1
   575  1183  1184    1
   576  1186  1184    1
   577  1186  1187    1
   578   770   774    1
   579  1380  1373   ar
   580   878   876   ar
   581   878   879   ar
   582   714   715    1
   583   733   734    1
   584  1378  1377    1
   585   802   800    1
   586   893   889    1
   587   687   684    1
   588   684   671    1
   589   684   686    1
   590  1203  1201    2
   591   711   715    1
   592  1228  1226    1
   593  1228  1229    1
   594  1243  1241    2
   595   880   879    1
   596  1207  1206    1
   597  1210  1208    1
   598   876   875   ar
   599   805   803    2
   600   773   774    1
   601   753   754    1
   602  1377  1376   ar
   603  1368  1367    1
   604  1368  1372    1
   605   730   734    1
   606   693   694    1
   607  1241  1229    1
   608  1241  1242    1
   609   782   781   ar
   610   782   775   ar
   611   788   789    1
   612   788   790    1
   613   879   881   ar
   614  1226  1225    1
   615  1367  1369    1
   616   804   803    1
   617   742   741   ar
   618   742   735   ar
   619  1204  1201    1
   620  1204  1205    1
   621   774   775    1
   622   715   716    1
   623   671   670    1
   624  1187  1201    1
   625   734   735    1
   626   690   694    1
   627  1201  1202    1
   628   755   754   ar
   629   755   756   ar
   630   741   739   ar
   631   803   791    1
   632   803   806    1
   633   781   779   ar
   634  1373  1372    1
   635  1373  1374   ar
   636   888   889    1
   637   888   887    1
   638  1208  1206    1
   639  1208  1209    1
   640   754   763   ar
   641   789   793    1
   642   723   716   ar
   643   723   722   ar
   644   800   801   ar
   645   800   798   ar
   646   791   790    1
   647   801   794   ar
   648   790   792    1
   649   775   776   ar
   650   735   736   ar
   651  1206  1205    1
   652   822   820    1
   653   875   882   ar
   654   875   874   ar
   655  1372  1371    1
   656  1376  1374   ar
   657   694   695    1
   658  1224  1225    1
   659  1224  1221    1
   660   716   717   ar
   661   886   887    1
   662   886   883    1
   663   881   882   ar
   664  1223  1221    2
   665  1369  1371    1
   666  1369  1370    1
   667   722   720   ar
   668  1374  1375    2
   669   858   857    1
   670   739   740    1
   671   739   738   ar
   672   756   757   ar
   673   882   872   ar
   674   874   873   ar
   675   885   883    2
   676   670   668    1
   677   670   672    1
   678  1209  1221    1
   679   736   738   ar
   680   736   737    2
   681   779   780    1
   682   779   778   ar
   683   763   757   ar
   684   763   762   ar
   685   798   799    1
   686   798   797   ar
   687  1221  1222    1
   688   793   794    1
   689   793   792    1
   690   794   795   ar
   691   799   780    1
   692   806   807    1
   693  1370  1381    1
   694   776   778   ar
   695   776   777    2
   696  1383  1381    2
   697   695   696   ar
   698   695   704   ar
   699  1397  1396    2
   700   717   718    2
   701   717   719   ar
   702   883   884    1
   703   883   869    1
   704   696   697   ar
   705   819   818    2
   706   820   818   ar
   707   820   821   ar
   708   839   838    1
   709   757   758   ar
   710   668   667    1
   711   668   669    1
   712   720   719   ar
   713   720   721    1
   714   762   761   ar
   715   873   872   ar
   716   872   871    1
   717   857   856   ar
   718   857   859   ar
   719   672   673    1
   720   818   817   ar
   721   825   823    2
   722   667   666    1
   723   870   868    1
   724   870   871    1
   725  1394  1395   ar
   726  1394  1393   ar
   727   797   795   ar
   728   807   808    1
   729   821   814   ar
   730   856   854   ar
   731   795   796    2
   732  1381  1382    1
   733  1381  1384    1
   734  1396  1395   ar
   735  1396  1398   ar
   736   704   703   ar
   737   704   698   ar
   738   664   663    2
   739   697   698   ar
   740   869   868    1
   741   868   866    1
   742   838   840   ar
   743   838   837   ar
   744   669   673    1
   745   859   860   ar
   746   871   867    1
   747   840   841   ar
   748   673   674    1
   749  1395  1402   ar
   750   703   702   ar
   751   758   759    1
   752   758   760   ar
   753   761   760   ar
   754   666   663    1
   755  1393  1392   ar
   756   698   699   ar
   757  1398  1399   ar
   758   824   823    1
   759   823   811    1
   760   823   826    1
   761   817   815   ar
   762  1419  1418    2
   763   854   855    2
   764   854   853   ar
   765   808   809    1
   766   808   810    1
   767   863   861    2
   768   809   813    1
   769   814   815   ar
   770   814   813    1
   771   663   649    1
   772   663   665    1
   773  1384  1385    1
   774   837   835   ar
   775   810   811    1
   776   810   812    1
   777   867   866    1
   778   864   865    1
   779   864   861    1
   780   841   834   ar
   781   860   853   ar
   782   674   683   ar
   783   674   675   ar
   784  1402  1392   ar
   785  1402  1401   ar
   786   866   865    1
   787   844   842    2
   788   702   701   ar
   789  1392  1391    1
   790   649   648    1
   791   815   816    2
   792   682   683   ar
   793   682   681   ar
   794   826   827    1
   795   813   812    1
   796   853   852    1
   797  1399  1401   ar
   798  1399  1400    1
   799  1439  1438    1
   800   699   701   ar
   801   699   700    1
   802  1418  1417   ar
   803  1418  1420   ar
   804   861   862    1
   805   861   850    1
   806   683   677   ar
   807   675   676   ar
   808  1440  1438   ar
   809  1440  1441   ar
   810  1385  1386    1
   811   851   849    1
   812   851   852    1
   813  1387  1391    1
   814  1387  1386    1
   815  1422  1420    1
   816   835   834   ar
   817   835   836    2
   818   834   833    1
   819  1417  1415   ar
   820   681   680   ar
   821   849   850    1
   822   849   847    1
   823   650   648    1
   824   650   651    1
   825   852   848    1
   826  1391  1390    1
   827   842   845    1
   828   842   843    1
   829   842   831    1
   830  1438  1437   ar
   831   845   846    1
   832  1420  1421   ar
   833   648   646    1
   834  1457  1456    2
   835   677   676   ar
   836   677   678   ar
   837  1441  1442   ar
   838  1386  1388    1
   839    71    70    2
   840   827   828    1
   841   660   659    1
   842   830   831    1
   843   830   832    1
   844   830   828    1
   845    82    83    1
   846    82    81    1
   847    82    84    1
   848  1458  1456   am
   849  1458  1459   am
   850    68    64    1
   851    68    67    1
   852    68    69    1
   853    64    63    1
   854   848   847    1
   855   680   678   ar
   856    83    87    1
   857    52    51    2
   858   646   645    1
   859   646   647    1
   860  1388  1390    1
   861  1388  1389    1
   862  1456  1455    2
   863    67    65    1
   864  1415  1416    2
   865  1415  1414   ar
   866    81    80    1
   867   847   846    1
   868   678   679    1
   869   833   829    1
   870   833   832    1
   871    63    65    1
   872    63    62    1
   873  1460  1459    2
   874   661   659   ar
   875   661   662   ar
   876  1421  1414   ar
   877   829   828    1
   878    85    84    1
   879    85    99    1
   880    87    86    1
   881    87    88    1
   882   651   647    1
   883   651   652    1
   884  1437  1443   ar
   885  1437  1436   ar
   886   659   658   ar
   887    32    31    2
   888    86    84    1
   889  1459  1461    1
   890   645   644    1
   891    70    69   ar
   892    70    72   ar
   893  1442  1443   ar
   894  1414  1413    1
   895  1405  1403    2
   896    69    76   ar
   897    65    66    1
   898    66    77    1
   899    51    53   ar
   900    51    50   ar
   901    62    61    1
   902   100    99    2
   903   662   652   ar
   904   662   655   ar
   905   103   104    1
   906   103   102    1
   907  1443  1434   ar
   908  1389  1403    1
   909   652   653   ar
   910  1436  1435   ar
   911    49    48    1
   912    49    50    1
   913    49    45    1
   914  1455  1462    1
   915    48    46    1
   916    33    31   ar
   917    33    34   ar
   918   658   656   ar
   919    53    54   ar
   920    31    30   ar
   921    80    77    1
   922   644   641    1
   923    72    73   ar
   924   104   105    1
   925   104   106    1
   926   105   109    1
   927    99   102    1
   928    99   101    1
   929    88    89   ar
   930    88    98   ar
   931   642   641    2
   932    50    57   ar
   933  1461  1462    2
   934  1461  1463    1
   935  1403  1406    1
   936  1403  1404    1
   937    76    75   ar
   938    77    78    2
   939    77    79    1
   940    97    98   ar
   941    97    95   ar
   942  1413  1409    1
   943  1413  1412    1
   944    45    44    1
   945   655   656   ar
   946   655   654   ar
   947   653   654   ar
   948    35    34    2
   949    61    58    1
   950   656   657    2
   951    89    90   ar
   952  1435  1434   ar
   953    98    91   ar
   954  1434  1433    1
   955    34    36   ar
   956  1409  1408    1
   957  1406  1407    1
   958    54    55    1
   959    54    56   ar
   960   641   628    1
   961   641   643    1
   962    30    29    1
   963    30    37   ar
   964    44    46    1
   965    44    43    1
   966   109   108    1
   967   109   110    1
   968    46    47    1
   969    73    75   ar
   970    73    74    1
   971    96    95    1
   972    29    28    1
   973    29    25    1
   974    57    56   ar
   975    47    58    1
   976    95    94   ar
   977   106   107    1
   978   106   108    1
   979   628   627    1
   980   107   119    1
   981  1454  1450    1
   982  1454  1453    1
   983    28    26    1
   984  1450  1449    1
   985  1412  1410    1
   986    90    91   ar
   987    91    92   ar
   988  1433  1432    1
   989  1433  1429    1
   990    59    58    2
   991  1453  1451    1
   992  1407  1408    1
   993   110   117   ar
   994   110   111   ar
   995    58    60    1
   996    36    37   ar
   997    36    38    1
   998  1408  1410    1
   999    25    24    1
  1000   120   119    2
  1001   117   116   ar
  1002  1410  1411    1
  1003  1449  1451    1
  1004  1449  1448    1
  1005   629   627    1
  1006   629   630    1
  1007    43    42    1
  1008    94    92   ar
  1009   627   625    1
  1010  1447  1448    1
  1011  1447  1444    1
  1012   112   111    2
  1013   119   122    1
  1014   119   121    1
  1015   111   113   ar
  1016    92    93    2
  1017   638   639   ar
  1018   638   637   ar
  1019   639   640   ar
  1020  1429  1428    1
  1021  1451  1452    1
  1022    24    26    1
  1023    24    23    1
  1024   122   123    1
  1025    26    27    1
  1026   116   118    1
  1027   116   114   ar
  1028    42    39    1
  1029  1425  1423    2
  1030    27    39    1
  1031  1444  1446    1
  1032     1     2    1
  1033   637   635   ar
  1034   113   114   ar
  1035  1411  1423    1
  1036  1430  1445    1
  1037   630   631    1
  1038   630   626    1
  1039   625   624    1
  1040   625   626    1
  1041   114   115    2
  1042  1426  1423    1
  1043  1426  1427    1
  1044   640   631   ar
  1045   640   634   ar
  1046     2     3    1
  1047  1428  1427    1
  1048  1445  1431    1
  1049    39    40    2
  1050    39    41    1
  1051   125   124    1
  1052   125   129    1
  1053  1423  1424    1
  1054   631   632   ar
  1055    23    22    1
  1056   123   124    1
  1057   635   634   ar
  1058   635   636    1
  1059   124   126    1
  1060   624   623    1
  1061   634   633   ar
  1062    22    19    1
  1063   623   620    1
  1064   457   456    2
  1065   632   633   ar
  1066   129   130    1
  1067   129   128    1
  1068   137   130   ar
  1069   137   136   ar
  1070     3     4    1
  1071     3     5    1
  1072   441   442    1
  1073   441   440    1
  1074   616   617   ar
  1075   616   614   ar
  1076   617   618   ar
  1077   130   131   ar
  1078   445   456    1
  1079   445   444    1
  1080    10    11   ar
  1081    10     9   ar
  1082   438   437    2
  1083   136   134   ar
  1084     4     8    1
  1085   126   127    1
  1086   126   128    1
  1087    11    12   ar
  1088   442   444    1
  1089   442   443    1
  1090     5     6    1
  1091     5     7    1
  1092   621   620    2
  1093   127   138    1
  1094    19     6    1
  1095    19    21    2
  1096    19    20    1
  1097   620   622    1
  1098   620   607    1
  1099   460   459    1
  1100   460   461    1
  1101   456   459    1
  1102   456   458    1
  1103   319   318    2
  1104   618   619   ar
  1105   615   614    1
  1106   614   613   ar
  1107   440   437    1
  1108   426   437    1
  1109   426   425    1
  1110   444   446    1
  1111   131   132    2
  1112   131   133   ar
  1113   302   303    1
  1114   302   301    1
  1115   134   133   ar
  1116   134   135    1
  1117   306   318    1
  1118   306   305    1
  1119     9     8    1
  1120     9    18   ar
  1121   303   304    1
  1122   303   305    1
  1123   437   439    1
  1124   443   447    1
  1125   299   298    2
  1126     8     7    1
  1127   619   613   ar
  1128   619   610   ar
  1129   461   462    1
  1130   461   463    1
  1131   613   612   ar
  1132   446   447    1
  1133   607   606    1
  1134   608   606    1
  1135   608   609    1
  1136   138   140    2
  1137   138   139    1
  1138   138   141    1
  1139    12    18   ar
  1140    12    13   ar
  1141   322   321    1
  1142   322   323    1
  1143   423   425    1
  1144   423   422    1
  1145   423   424    1
  1146   318   321    1
  1147   318   320    1
  1148   477   476    2
  1149   427   425    1
  1150   427   428    1
  1151   304   308    1
  1152   464   463    1
  1153   464   476    1
  1154    14    13    1
  1155   305   307    1
  1156   447   448    1
  1157   606   604    1
  1158    18    17   ar
  1159   422   421    1
  1160   462   466    1
  1161   287   298    1
  1162   287   286    1
  1163   301   298    1
  1164   610   609    1
  1165   610   611   ar
  1166   298   300    1
  1167   424   428    1
  1168    13    15   ar
  1169   142   141    1
  1170   142   143    1
  1171   612   611   ar
  1172   307   308    1
  1173   463   465    1
  1174   323   324    1
  1175   323   325    1
  1176   428   429    1
  1177   609   605    1
  1178   308   309    1
  1179   144   143    1
  1180   144   148    1
  1181   476   478    1
  1182   476   479    1
  1183   338   337    2
  1184   288   286    1
  1185   288   289    1
  1186   150   151   ar
  1187   150   149   ar
  1188   143   145    1
  1189   286   284    1
  1190   284   285    1
  1191   284   283    1
  1192   593   592    2
  1193   596   595    1
  1194   448   455    1
  1195   448   449    1
  1196   466   465    1
  1197   466   467    1
  1198   594   592   ar
  1199   594   595   ar
  1200   324   328    1
  1201   325   326    1
  1202   325   327    1
  1203   151   152   ar
  1204    17    16   ar
  1205   604   605    1
  1206   604   603    1
  1207   431   430    2
  1208   421   418    1
  1209   326   337    1
  1210    15    16   ar
  1211   289   285    1
  1212   289   290    1
  1213   337   339    1
  1214   337   340    1
  1215   149   148    1
  1216   149   158   ar
  1217   455   454    1
  1218   292   291    2
  1219   148   147    1
  1220   419   418    2
  1221   406   418    1
  1222   406   405    1
  1223   479   480    1
  1224   407   405    1
  1225   407   408    1
  1226   592   591   ar
  1227   595   597   ar
  1228   429   430   ar
  1229   429   436   ar
  1230   450   449    1
  1231   450   276    1
  1232   480   481    1
  1233   283   282    1
  1234   474   467   ar
  1235   474   473   ar
  1236   309   316   ar
  1237   309   310   ar
  1238   602   603    1
  1239   602   599    1
  1240   411   410    2
  1241   449   451    2
  1242   430   432   ar
  1243   152   158   ar
  1244   152   153   ar
  1245   418   420    1
  1246   467   468   ar
  1247   158   157   ar
  1248   316   315   ar
  1249   405   403    1
  1250   145   147    1
  1251   145   146    1
  1252   327   328    1
  1253   328   329    1
  1254   408   404    1
  1255   408   409    1
  1256   291   290   ar
  1257   291   293   ar
  1258   403   404    1
  1259   403   402    1
  1260   436   435   ar
  1261   597   598   ar
  1262   290   297   ar
  1263   591   598   ar
  1264   591   590   ar
  1265   311   310    2
  1266   475   473    1
  1267   276   275    2
  1268   454   452    2
  1269   341   340    1
  1270   341   342    1
  1271   391   390    2
  1272   497   495    2
  1273   154   153    1
  1274   601   599    2
  1275   310   312   ar
  1276   153   155   ar
  1277   473   471   ar
  1278   598   588   ar
  1279   146   159    1
  1280   336   329   ar
  1281   336   335   ar
  1282   410   409   ar
  1283   410   412   ar
  1284   157   156   ar
  1285   282   279    1
  1286   329   330   ar
  1287   599   600    1
  1288   599   585    1
  1289   481   483    1
  1290   481   482    1
  1291   590   589   ar
  1292   451   452    1
  1293   496   495    1
  1294   409   416   ar
  1295   432   433   ar
  1296   280   279    2
  1297   468   469    2
  1298   468   470   ar
  1299   315   317    1
  1300   315   313   ar
  1301   573   572    2
  1302   161   159    2
  1303   452   453    1
  1304   293   294   ar
  1305   402   401    1
  1306   495   484    1
  1307   495   498    1
  1308   155   156   ar
  1309   484   483    1
  1310   297   296   ar
  1311   553   552    2
  1312   342   343    1
  1313   342   344    1
  1314   435   433   ar
  1315   483   485    1
  1316   275   277    1
  1317   275   274    2
  1318   390   389   ar
  1319   390   392   ar
  1320   482   486    1
  1321   588   589   ar
  1322   588   587    1
  1323   388   387    1
  1324   388   384    1
  1325   388   389    1
  1326   279   281    1
  1327   279   265    1
  1328   387   385    1
  1329   335   333   ar
  1330   514   512    1
  1331   312   313   ar
  1332   343   347    1
  1333   412   413   ar
  1334   471   470   ar
  1335   471   472    2
  1336   586   584    1
  1337   586   587    1
  1338   433   434    1
  1339   159   160    1
  1340   159   162    1
  1341   277   278    1
  1342   494   493   ar
  1343   494   487   ar
  1344   330   331    2
  1345   330   332   ar
  1346   493   491   ar
  1347   313   314    2
  1348   572   571   ar
  1349   572   574   ar
  1350   585   584    1
  1351   416   415   ar
  1352   384   383    1
  1353   389   396   ar
  1354   392   393   ar
  1355   175   174    1
  1356   576   574    1
  1357   584   582    1
  1358   274   272    1
  1359   401   398    1
  1360   294   296   ar
  1361   294   295    1
  1362   176   174   ar
  1363   176   177   ar
  1364   266   267    1
  1365   266   264    1
  1366   587   583    1
  1367   356   354    1
  1368   556   554    1
  1369   552   554   ar
  1370   552   551   ar
  1371   498   499    1
  1372   344   345    1
  1373   344   346    1
  1374   571   569   ar
  1375   265   264    1
  1376   345   357    1
  1377   383   385    1
  1378   383   382    1
  1379   486   485    1
  1380   486   487    1
  1381   358   357    2
  1382   574   575   ar
  1383   386   385    1
  1384   386   398    1
  1385   333   332   ar
  1386   333   334    1
  1387   355   354   ar
  1388   355   348   ar
  1389   174   173   ar
  1390   531   530    2
  1391   487   488   ar
  1392   517   515    2
  1393   511   492    1
  1394   511   510    1
  1395   512   510   ar
  1396   512   513   ar
  1397   413   415   ar
  1398   413   414    2
  1399   347   348    1
  1400   347   346    1
  1401   177   170   ar
  1402   162   163    1
  1403   278   268   ar
  1404   278   271   ar
  1405   554   555   ar
  1406   551   549   ar
  1407   415   417    1
  1408   354   352   ar
  1409   267   268    1
  1410   267   263    1
  1411   491   492    1
  1412   491   490   ar
  1413   264   262    1
  1414   399   398    2
  1415   398   400    1
  1416   393   394    2
  1417   393   395   ar
  1418   396   395   ar
  1419   583   582    1
  1420   348   349   ar
  1421   510   509   ar
  1422   272   271    1
  1423   272   273    2
  1424   582   581    1
  1425   499   500    1
  1426   357   359    1
  1427   357   360    1
  1428   513   506   ar
  1429   569   570    2
  1430   569   568   ar
  1431   528   529   ar
  1432   528   527   ar
  1433   268   269   ar
  1434   575   568   ar
  1435   173   171   ar
  1436   163   164    1
  1437   530   529   ar
  1438   530   532   ar
  1439   580   581    1
  1440   580   577    1
  1441   271   270   ar
  1442   382   381    1
  1443   579   577    2
  1444   539   537    2
  1445   170   171   ar
  1446   170   169    1
  1447   559   557    2
  1448   488   490   ar
  1449   488   489    2
  1450   395   397    1
  1451   515   516    1
  1452   515   518    1
  1453   515   503    1
  1454   262   263    1
  1455   262   261    1
  1456   165   164    1
  1457   165   169    1
  1458   555   548   ar
  1459   549   550    2
  1460   549   548   ar
  1461   529   536   ar
  1462   568   567    1
  1463   194   193    1
  1464   352   353    2
  1465   352   351   ar
  1466   171   172    2
  1467   360   361    1
  1468   527   526   ar
  1469   349   351   ar
  1470   349   350    2
  1471   577   578    1
  1472   577   565    1
  1473   532   533   ar
  1474   509   507   ar
  1475   500   502    1
  1476   500   501    1
  1477   381   378    1
  1478   518   519    1
  1479   164   166    1
  1480   502   503    1
  1481   502   504    1
  1482   548   547    1
  1483   169   168    1
  1484   269   270   ar
  1485   506   507   ar
  1486   506   505    1
  1487   501   505    1
  1488   250   249    2
  1489   361   362    1
  1490   557   560    1
  1491   557   558    1
  1492   557   545    1
  1493   537   540    1
  1494   537   538    1
  1495   537   523    1
  1496   564   566    1
  1497   564   565    1
  1498   564   562    1
  1499   193   195   ar
  1500   193   192   ar
  1501   251   249   ar
  1502   251   252   ar
  1503   536   526   ar
  1504   536   535   ar
  1505   507   508    2
  1506   560   561    1
  1507   261   260    1
  1508   566   567    1
  1509   567   563    1
  1510   166   168    1
  1511   166   167    1
  1512   540   541    1
  1513   526   525    1
  1514   505   504    1
  1515   546   544    1
  1516   546   547    1
  1517   191   192   ar
  1518   191   190   ar
  1519   249   248   ar
  1520   253   252    2
  1521   533   535   ar
  1522   533   534    1
  1523   544   545    1
  1524   544   542    1
  1525   547   543    1
  1526   522   523    1
  1527   522   524    1
  1528   522   520    1
  1529   215   214    1
  1530   195   196   ar
  1531   519   520    1
  1532   192   198   ar
  1533   260   257    1
  1534   563   562    1
  1535   252   254   ar
  1536   378   379    2
  1537   378   380    1
  1538   378   365    1
  1539   234   233    1
  1540   561   562    1
  1541   362   364    1
  1542   362   363    1
  1543   524   525    1
  1544   521   525    1
  1545   521   520    1
  1546   167   178    1
  1547   543   542    1
  1548   180   178    2
  1549   190   189   ar
  1550   541   542    1
  1551   364   365    1
  1552   364   366    1
  1553   363   367    1
  1554   232   233   ar
  1555   232   230   ar
  1556   248   247    1
  1557   248   255   ar
  1558   246   247    1
  1559   246   244    1
  1560   214   213   ar
  1561   214   216   ar
  1562   178   181    1
  1563   178   179    1
  1564   196   197   ar
  1565   233   235   ar
  1566   198   189   ar
  1567   198   197   ar
  1568   254   255   ar
  1569   254   256    1
  1570   213   211   ar
  1571   247   243    1
  1572   369   368   ar
  1573   369   370   ar
  1574   257   259    2
  1575   257   258    1
  1576   257   245    1
  1577   368   377   ar
  1578   368   367    1
  1579   231   230    2
  1580   370   371   ar
  1581   189   188    1
  1582   377   371   ar
  1583   377   376   ar
  1584   371   372   ar
  1585   230   229   ar
  1586   181   182    1
  1587   376   375   ar
  1588   367   366    1
  1589   216   217   ar
  1590   372   373    1
  1591   372   374   ar
  1592   375   374   ar
  1593   245   244    1
  1594   244   242    1
  1595   235   236   ar
  1596   184   188    1
  1597   184   183    1
  1598   211   212    2
  1599   211   210   ar
  1600   188   187    1
  1601   243   242    1
  1602   217   210   ar
  1603   229   236   ar
  1604   229   228    1
  1605   182   183    1
  1606   242   241    1
  1607   210   209    1
  1608   183   185    1
  1609   201   199    2
  1610   187   185    1
  1611   185   186    1
  1612   228   227    1
  1613   228   224    1
  1614   227   225    1
  1615   241   240    1
  1616   209   205    1
  1617   209   208    1
  1618   240   237    1
  1619   199   186    1
  1620   199   202    1
  1621   199   200    1
  1622   225   226    1
  1623   225   223    1
  1624   239   237    2
  1625   224   223    1
  1626   205   204    1
  1627   202   203    1
  1628   208   206    1
  1629   237   226    1
  1630   237   238    1
  1631   206   204    1
  1632   206   207    1
  1633   220   218    2
  1634   223   222    1
  1635   221   222    1
  1636   221   218    1
  1637   204   203    1
  1638   218   207    1
  1639   218   219    1
