@<TRIPOS>MOLECULE
dna.pdb
 1573 1756 0 0 0
SMALL
GASTEIGER

@<TRIPOS>ATOM
      1  O5'        9.9160    2.0610   12.0280 O.3     1  DA1        -0.2176
      2  C5'        9.4550    0.7160   11.9620 C.3     1  DA1         0.2140
      3  C4'        8.0270    0.5910   11.4790 C.3     1  DA1         0.1776
      4  O4'        7.1460    1.4040   12.2940 O.3     1  DA1        -0.3326
      5  C3'        7.7530    1.0160   10.0420 C.3     1  DA1         0.1559
      6  O3'        7.9870   -0.0470    9.1360 O.3     1  DA1        -0.3138
      7  C2'        6.2930    1.4560   10.0630 C.3     1  DA1         0.0865
      8  C1'        6.0910    1.9190   11.5110 C.3     1  DA1         0.2094
      9  N9         6.1750    3.4240   11.8220 N.ar    1  DA1        -0.2714
     10  C8         7.1580    4.3770   11.8930 C.ar    1  DA1         0.1815
     11  N7         6.7230    5.6010   11.7080 N.ar    1  DA1        -0.2193
     12  C5         5.3620    5.4410   11.5010 C.ar    1  DA1         0.1518
     13  C6         4.3300    6.3610   11.2470 C.ar    1  DA1         0.1919
     14  N6         4.5200    7.6790   11.1570 N.pl3   1  DA1        -0.1054
     15  N1         3.0810    5.8730   11.0880 N.ar    1  DA1        -0.2040
     16  C2         2.8910    4.5510   11.1790 C.ar    1  DA1         0.2016
     17  N3         3.7800    3.5890   11.4140 N.ar    1  DA1        -0.2048
     18  C4         5.0100    4.1060   11.5670 C.ar    1  DA1         0.1691
     19  P          8.4010    0.1260    7.6080 P.3     2  DT2         0.2141
     20  OP1        8.6340   -1.2870    7.9950 O.3     2  DT2        -0.4373
     21  OP2        9.4480    0.9050    6.8970 O.2     2  DT2        -0.5172
     22  O5'        7.0710    0.1960    6.7180 O.3     2  DT2        -0.3114
     23  C5'        5.8610   -0.3970    7.1860 C.3     2  DT2         0.1811
     24  C4'        4.6520    0.3710    6.6880 C.3     2  DT2         0.1746
     25  O4'        4.4860    1.5730    7.4720 O.3     2  DT2        -0.3327
     26  C3'        4.7640    0.8850    5.2640 C.3     2  DT2         0.1558
     27  O3'        4.4430   -0.1430    4.3400 O.3     2  DT2        -0.3138
     28  C2'        3.7050    1.9770    5.2720 C.3     2  DT2         0.0866
     29  C1'        3.9000    2.5740    6.6620 C.3     2  DT2         0.2106
     30  N1         4.7620    3.7670    6.6270 N.ar    2  DT2        -0.2559
     31  C2         4.3400    4.9370    6.0230 C.ar    2  DT2         0.3545
     32  O2         3.3430    5.0020    5.3270 O.2     2  DT2        -0.2443
     33  N3         5.1320    6.0330    6.2640 N.ar    2  DT2        -0.1533
     34  C4         6.2780    6.0770    7.0300 C.ar    2  DT2         0.2804
     35  O4         6.8830    7.1390    7.1540 O.2     2  DT2        -0.2654
     36  C5         6.6510    4.8230    7.6220 C.ar    2  DT2         0.0534
     37  C6         5.8990    3.7410    7.4050 C.ar    2  DT2         0.0824
     38  C7         7.8850    4.7670    8.4740 C.3     2  DT2         0.0377
     39  P          5.5880   -0.6220    3.3170 P.3     3  DA3         0.2141
     40  OP1        4.7530   -1.8100    2.9770 O.2     3  DA3        -0.5172
     41  OP2        7.0730   -0.7400    3.3650 O.3     3  DA3        -0.4373
     42  O5'        5.2190    0.5760    2.3350 O.3     3  DA3        -0.3114
     43  C5'        3.8780    0.7990    1.9210 C.3     3  DA3         0.1811
     44  C4'        3.8250    1.9780    0.9880 C.3     3  DA3         0.1746
     45  O4'        4.1890    3.1890    1.6900 O.3     3  DA3        -0.3327
     46  C3'        4.8440    1.9310   -0.1240 C.3     3  DA3         0.1558
     47  O3'        4.3860    1.0920   -1.1560 O.3     3  DA3        -0.3138
     48  C2'        4.9050    3.3830   -0.5530 C.3     3  DA3         0.0865
     49  C1'        4.8260    4.0800    0.7980 C.3     3  DA3         0.2094
     50  N9         6.1530    4.4470    1.4350 N.ar    3  DA3        -0.2714
     51  C8         6.9650    3.7260    2.2710 C.ar    3  DA3         0.1815
     52  N7         8.0720    4.3480    2.6000 N.ar    3  DA3        -0.2191
     53  C5         7.9810    5.5600    1.9340 C.ar    3  DA3         0.1545
     54  C6         8.8400    6.6720    1.8720 C.ar    3  DA3         0.2060
     55  N6        10.0070    6.7410    2.5180 N.2     3  DA3        -0.1252
     56  N1         8.4540    7.7210    1.1150 N.ar    3  DA3        -0.2017
     57  C2         7.2840    7.6500    0.4700 C.ar    3  DA3         0.2017
     58  N3         6.3920    6.6630    0.4510 N.ar    3  DA3        -0.2048
     59  C4         6.8060    5.6350    1.2120 C.ar    3  DA3         0.1693
     60  P          5.4340    0.3540   -2.0160 P.3     4  DC4         0.2141
     61  OP1        4.6310   -0.4850   -2.9340 O.2     4  DC4        -0.5172
     62  OP2        6.4870   -0.2360   -1.1550 O.3     4  DC4        -0.4373
     63  O5'        6.1830    1.5150   -2.8280 O.3     4  DC4        -0.3114
     64  C5'        5.3970    2.2830   -3.7230 C.3     4  DC4         0.1811
     65  C4'        5.9400    3.6740   -3.9570 C.3     4  DC4         0.1746
     66  O4'        6.0610    4.4050   -2.7090 O.3     4  DC4        -0.3327
     67  C3'        7.3320    3.7670   -4.5550 C.3     4  DC4         0.1558
     68  O3'        7.3680    3.5120   -5.9450 O.3     4  DC4        -0.3138
     69  C2'        7.7500    5.1820   -4.1920 C.3     4  DC4         0.0866
     70  C1'        7.1250    5.3300   -2.8060 C.3     4  DC4         0.2106
     71  N1         8.1210    5.0350   -1.7330 N.ar    4  DC4        -0.2556
     72  C2         9.1280    5.9520   -1.4110 C.ar    4  DC4         0.3531
     73  O2         9.2920    6.9420   -2.1440 O.2     4  DC4        -0.2443
     74  N3         9.8930    5.7340   -0.3150 N.ar    4  DC4        -0.1739
     75  C4         9.6820    4.6570    0.4420 C.ar    4  DC4         0.1759
     76  N4        10.4600    4.4840    1.5130 N.pl3   4  DC4        -0.1070
     77  C5         8.6660    3.7160    0.1330 C.ar    4  DC4         0.0566
     78  C6         7.9140    3.9350   -0.9510 C.ar    4  DC4         0.0849
     79  P          8.4790    2.5230   -6.3810 P.3     5  DC5         0.2141
     80  OP1        8.3120    2.2680   -7.8270 O.2     5  DC5        -0.5172
     81  OP2        8.9450    1.4370   -5.4900 O.3     5  DC5        -0.4373
     82  O5'        9.4170    3.7900   -6.1690 O.3     5  DC5        -0.3114
     83  C5'        9.3780    4.8410   -7.1090 C.3     5  DC5         0.1811
     84  C4'       10.5140    5.7810   -6.8820 C.3     5  DC5         0.1746
     85  O4'       10.3520    6.3640   -5.5720 O.3     5  DC5        -0.3327
     86  C3'       11.9120    5.1990   -6.8590 C.3     5  DC5         0.1558
     87  O3'       12.4540    5.0330   -8.1580 O.3     5  DC5        -0.3138
     88  C2'       12.6720    6.2580   -6.0730 C.3     5  DC5         0.0866
     89  C1'       11.6210    6.7060   -5.0550 C.3     5  DC5         0.2106
     90  N1        11.8630    5.9850   -3.7490 N.ar    5  DC5        -0.2556
     91  C2        12.7520    6.4970   -2.7960 C.ar    5  DC5         0.3531
     92  O2        13.4340    7.4930   -3.0900 O.2     5  DC5        -0.2443
     93  N3        12.8430    5.8920   -1.5870 N.ar    5  DC5        -0.1739
     94  C4        12.0920    4.8240   -1.3170 C.ar    5  DC5         0.1759
     95  N4        12.2160    4.2620   -0.1130 N.pl3   5  DC5        -0.1070
     96  C5        11.1850    4.2900   -2.2690 C.ar    5  DC5         0.0566
     97  C6        11.0980    4.8900   -3.4610 C.ar    5  DC5         0.0849
     98  P         13.1240    3.7820   -8.6160 P.3     6  DA6         0.2141
     99  OP1       13.7670    3.8040   -9.9470 O.2     6  DA6        -0.5172
    100  OP2       12.0490    2.8000   -8.3280 O.3     6  DA6        -0.4373
    101  O5'       14.2690    3.5760   -7.5290 O.3     6  DA6        -0.3114
    102  C5'       15.5510    4.2170   -7.6550 C.3     6  DA6         0.1811
    103  C4'       16.4400    3.7880   -6.5160 C.3     6  DA6         0.1746
    104  O4'       15.8240    4.1760   -5.2600 O.3     6  DA6        -0.3327
    105  C3'       16.6110    2.2860   -6.3900 C.3     6  DA6         0.1558
    106  O3'       17.6570    1.8320   -7.2270 O.3     6  DA6        -0.3138
    107  C2'       16.9730    2.1200   -4.9190 C.3     6  DA6         0.0865
    108  C1'       16.1030    3.1970   -4.2730 C.3     6  DA6         0.2094
    109  N9        14.8800    2.6660   -3.7690 N.ar    6  DA6        -0.2714
    110  C8        13.7000    2.4600   -4.4360 C.ar    6  DA6         0.1815
    111  N7        12.7970    1.8230   -3.7290 N.ar    6  DA6        -0.2193
    112  C5        13.4260    1.5950   -2.5150 C.ar    6  DA6         0.1518
    113  C6        13.0010    0.9610   -1.3340 C.ar    6  DA6         0.1919
    114  N6        11.7900    0.4220   -1.1790 N.pl3   6  DA6        -0.1054
    115  N1        13.8750    0.9010   -0.3070 N.ar    6  DA6        -0.2040
    116  C2        15.0880    1.4430   -0.4630 C.ar    6  DA6         0.2016
    117  N3        15.6010    2.0640   -1.5220 N.ar    6  DA6        -0.2048
    118  C4        14.7100    2.1060   -2.5250 C.ar    6  DA6         0.1691
    119  P         17.3690    0.7400   -8.5990 P.3     7  DG7         0.2141
    120  OP1       18.3370    0.3510   -9.6520 O.2     7  DG7        -0.5172
    121  OP2       15.9150    0.5310   -8.7600 O.3     7  DG7        -0.4373
    122  O5'       17.7510   -0.0250   -7.2550 O.3     7  DG7        -0.3114
    123  C5'       19.1360    0.0070   -6.9660 C.3     7  DG7         0.1811
    124  C4'       19.4170   -0.6060   -5.6270 C.3     7  DG7         0.1746
    125  O4'       18.6090    0.0460   -4.6200 O.3     7  DG7        -0.3327
    126  C3'       19.0170   -2.0590   -5.4930 C.3     7  DG7         0.1558
    127  O3'       19.9310   -2.9350   -6.1200 O.3     7  DG7        -0.3138
    128  C2'       18.9250   -2.2140   -3.9840 C.3     7  DG7         0.0865
    129  C1'       18.2800   -0.8840   -3.6120 C.3     7  DG7         0.2094
    130  N9        16.8690   -1.0230   -3.5500 N.ar    7  DG7        -0.2713
    131  C8        15.9500   -0.4650   -4.4060 C.ar    7  DG7         0.1816
    132  N7        14.7140   -0.7190   -4.0720 N.ar    7  DG7        -0.2173
    133  C5        14.8190   -1.4880   -2.9270 C.ar    7  DG7         0.1748
    134  C6        13.8150   -2.0660   -2.1080 C.ar    7  DG7         0.3023
    135  O6        12.5870   -2.0040   -2.2430 O.2     7  DG7        -0.2633
    136  N1        14.3590   -2.7740   -1.0400 N.ar    7  DG7        -0.1709
    137  C2        15.7040   -2.9090   -0.7920 C.ar    7  DG7         0.2606
    138  N2        16.0360   -3.6290    0.2880 N.pl3   7  DG7        -0.0859
    139  N3        16.6480   -2.3790   -1.5440 N.ar    7  DG7        -0.1918
    140  C4        16.1430   -1.6870   -2.5880 C.ar    7  DG7         0.1722
    141  P         19.3540   -3.8910   -6.8000 P.3     8  DC8         0.2141
    142  OP1       20.4900   -4.5290   -7.5080 O.3     8  DC8        -0.4373
    143  OP2       18.1900   -3.4100   -7.5860 O.2     8  DC8        -0.5172
    144  O5'       18.8650   -4.8630   -5.6300 O.3     8  DC8        -0.3114
    145  C5'       19.7950   -5.3450   -4.6740 C.3     8  DC8         0.1811
    146  C4'       19.1060   -6.0780   -3.5570 C.3     8  DC8         0.1746
    147  O4'       18.1390   -5.1990   -2.9360 O.3     8  DC8        -0.3327
    148  C3'       18.3260   -7.3460   -3.8730 C.3     8  DC8         0.1558
    149  O3'       19.1830   -8.4900   -3.9720 O.3     8  DC8        -0.3138
    150  C2'       17.4130   -7.4490   -2.6570 C.3     8  DC8         0.0866
    151  C1'       17.1090   -5.9750   -2.3590 C.3     8  DC8         0.2106
    152  N1        16.1050   -5.4800   -2.5270 N.ar    8  DC8        -0.2556
    153  C2        15.0200   -6.0450   -1.8470 C.ar    8  DC8         0.3531
    154  O2        15.2300   -6.6450   -0.7790 O.2     8  DC8        -0.2443
    155  N3        13.7770   -5.9230   -2.3720 N.ar    8  DC8        -0.1739
    156  C4        13.6000   -5.2720   -3.5220 C.ar    8  DC8         0.1759
    157  N4        12.3570   -5.1770   -4.0010 N.pl3   8  DC8        -0.1070
    158  C5        14.6860   -4.6920   -4.2260 C.ar    8  DC8         0.0566
    159  C6        15.9120   -4.8150   -3.7050 C.ar    8  DC8         0.0849
    160  P         18.8390   -9.7900   -5.0200 P.3     9  DT9         0.2141
    161  OP1       19.9380  -10.7010   -5.4080 O.3     9  DT9        -0.4373
    162  OP2       17.9240   -9.2910   -6.0700 O.2     9  DT9        -0.5172
    163  O5'       17.9610  -10.4790   -3.8680 O.3     9  DT9        -0.3114
    164  C5'       18.5920  -11.0770   -2.7300 C.3     9  DT9         0.1811
    165  C4'       17.5980  -11.5080   -1.6620 C.3     9  DT9         0.1746
    166  O4'       16.7890  -10.3780   -1.2410 O.3     9  DT9        -0.3327
    167  C3'       16.5680  -12.5530   -2.0770 C.3     9  DT9         0.1558
    168  O3'       17.1090  -13.8670   -2.0330 O.3     9  DT9        -0.3138
    169  C2'       15.4790  -12.3250   -1.0330 C.3     9  DT9         0.0866
    170  C1'       15.4540  -10.8000   -0.9970 C.3     9  DT9         0.2106
    171  N1        14.5200  -10.2550   -1.9610 N.ar    9  DT9        -0.2559
    172  C2        13.1700  -10.4570   -1.7460 C.ar    9  DT9         0.3545
    173  O2        12.7380  -11.1430   -0.8360 O.2     9  DT9        -0.2443
    174  N3        12.3390   -9.8260   -2.6390 N.ar    9  DT9        -0.1533
    175  C4        12.7140   -9.0310   -3.7020 C.ar    9  DT9         0.2804
    176  O4        11.8490   -8.5300   -4.4170 O.2     9  DT9        -0.2654
    177  C5        14.1320   -8.8700   -3.8600 C.ar    9  DT9         0.0534
    178  C6        14.9630   -9.4730   -3.0050 C.ar    9  DT9         0.0824
    179  C7        14.6400   -8.0230   -4.9890 C.3     9  DT9         0.0377
    180  P         16.6660  -15.0640   -3.2720 P.3    10  DT10        0.2141
    181  OP1       17.8210  -15.9820   -3.3830 O.3    10  DT10       -0.4373
    182  OP2       16.4810  -13.9900   -4.2750 O.2    10  DT10       -0.5172
    183  O5'       15.3050  -15.8980   -3.3360 O.3    10  DT10       -0.3114
    184  C5'       15.0580  -16.9320   -2.4050 C.3    10  DT10        0.1811
    185  C4'       13.7530  -16.6800   -1.7040 C.3    10  DT10        0.1746
    186  O4'       13.4930  -15.2530   -1.6600 O.3    10  DT10       -0.3327
    187  C3'       12.5090  -17.2510   -2.3620 C.3    10  DT10        0.1558
    188  O3'       12.3340  -18.6250   -2.0600 O.3    10  DT10       -0.3138
    189  C2'       11.4050  -16.3930   -1.7670 C.3    10  DT10        0.0866
    190  C1'       12.1000  -15.0400   -1.5830 C.3    10  DT10        0.2106
    191  N1        11.6820  -14.0490   -2.5790 N.ar   10  DT10       -0.2559
    192  C2        10.6320  -13.1950   -2.3010 C.ar   10  DT10        0.3545
    193  O2         9.8990  -13.3350   -1.3380 O.2    10  DT10       -0.2443
    194  N3        10.4690  -12.1650   -3.1960 N.ar   10  DT10       -0.1533
    195  C4        11.2330  -11.9100   -4.3150 C.ar   10  DT10        0.2804
    196  O4        10.9640  -10.9430   -5.0240 O.2    10  DT10       -0.2654
    197  C5        12.3030  -12.8420   -4.5360 C.ar   10  DT10        0.0534
    198  C6        12.4840  -13.8520   -3.6820 C.ar   10  DT10        0.0824
    199  C7        13.1910  -12.6500   -5.7290 C.3    10  DT10        0.0377
    200  P         11.5110  -19.0350   -2.5680 P.3    11  DA11        0.2141
    201  OP1       12.2560  -20.2520   -2.9580 O.3    11  DA11       -0.4373
    202  OP2       11.0440  -18.1060   -3.6250 O.2    11  DA11       -0.5172
    203  O5'       10.3160  -19.4090   -1.5670 O.3    11  DA11       -0.3114
    204  C5'        9.0270  -19.6870   -2.0480 C.3    11  DA11        0.1811
    205  C4'        8.0660  -18.5210   -1.8920 C.3    11  DA11        0.1746
    206  O4'        8.6660  -17.2560   -2.2390 O.3    11  DA11       -0.3327
    207  C3'        6.9470  -18.5480   -2.9130 C.3    11  DA11        0.1558
    208  O3'        6.0470  -19.6150   -2.6880 O.3    11  DA11       -0.3138
    209  C2'        6.3380  -17.1600   -2.7790 C.3    11  DA11        0.0865
    210  C1'        7.6370  -16.3620   -2.6620 C.3    11  DA11        0.2094
    211  N9         7.8880  -15.8980   -3.9790 N.ar   11  DA11       -0.2714
    212  C8         9.1650  -16.0020   -4.4650 C.ar   11  DA11        0.1815
    213  N7         9.4320  -15.1600   -5.4350 N.ar   11  DA11       -0.2193
    214  C5         8.2500  -14.4560   -5.5990 C.ar   11  DA11        0.1518
    215  C6         7.8800  -13.4170   -6.4720 C.ar   11  DA11        0.1919
    216  N6         8.7020  -12.8880   -7.3810 N.pl3  11  DA11       -0.1054
    217  N1         6.6220  -12.9370   -6.3760 N.ar   11  DA11       -0.2040
    218  C2         5.7990  -13.4680   -5.4640 C.ar   11  DA11        0.2016
    219  N3         6.0320  -14.4430   -4.5890 N.ar   11  DA11       -0.2048
    220  C4         7.2890  -14.9000   -4.7100 C.ar   11  DA11        0.1691
    221  P          5.9570  -20.6740   -3.9070 P.3    12  DT12        0.2141
    222  OP1        5.2470  -21.8610   -3.3730 O.3    12  DT12       -0.4373
    223  OP2        7.1810  -20.9150   -4.7660 O.2    12  DT12       -0.5172
    224  O5'        4.9420  -19.8070   -4.8050 O.3    12  DT12       -0.3114
    225  C5'        3.6040  -19.5910   -4.3150 C.3    12  DT12        0.1811
    226  C4'        2.8770  -18.4990   -5.1210 C.3    12  DT12        0.1746
    227  O4'        3.6170  -17.2560   -5.0710 O.3    12  DT12       -0.3327
    228  C3'        2.7160  -18.7520   -6.6140 C.3    12  DT12        0.1558
    229  O3'        1.6210  -19.6630   -6.7760 O.3    12  DT12       -0.3138
    230  C2'        2.3830  -17.3460   -7.0810 C.3    12  DT12        0.0866
    231  C1'        3.4080  -16.5520   -6.2960 C.3    12  DT12        0.2106
    232  N1         4.6770  -16.4920   -7.0820 N.ar   12  DT12       -0.2559
    233  C2         4.8540  -15.4680   -7.9920 C.ar   12  DT12        0.3545
    234  O2         3.9870  -14.6510   -8.2500 O.2    12  DT12       -0.2443
    235  N3         6.0880  -15.4330   -8.5950 N.ar   12  DT12       -0.1533
    236  C4         7.1390  -16.3000   -8.3830 C.ar   12  DT12        0.2804
    237  O4         8.1900  -16.1400   -9.0000 O.2    12  DT12       -0.2654
    238  C5         6.8770  -17.3370   -7.4250 C.ar   12  DT12        0.0534
    239  C6         5.6860  -17.3940   -6.8240 C.ar   12  DT12        0.0824
    240  C7         7.9590  -18.3320   -7.1260 C.3    12  DT12        0.0377
    241  P          1.5630  -20.3350   -7.8800 P.3    13  DT13        0.2141
    242  OP1        0.3730  -21.1360   -7.5060 O.3    13  DT13       -0.4373
    243  OP2        2.7830  -21.0030   -8.3890 O.2    13  DT13       -0.5172
    244  O5'        1.2040  -19.2510   -9.0100 O.3    13  DT13       -0.3114
    245  C5'       -0.0750  -18.6290   -9.0510 C.3    13  DT13        0.1811
    246  C4'       -0.1160  -17.3720   -9.8990 C.3    13  DT13        0.1746
    247  O4'        1.0050  -16.5070   -9.5750 O.3    13  DT13       -0.3327
    248  C3'       -0.0280  -17.5320  -11.4140 C.3    13  DT13        0.1558
    249  O3'       -1.2500  -17.9020  -12.0310 O.3    13  DT13       -0.3138
    250  C2'        0.4630  -16.1630  -11.8600 C.3    13  DT13        0.0866
    251  C1'        1.4150  -15.7990  -10.7260 C.3    13  DT13        0.2106
    252  N1         2.8310  -16.1100  -11.0240 N.ar   13  DT13       -0.2559
    253  C2         3.5940  -15.1460  -11.6550 C.ar   13  DT13        0.3545
    254  O2         3.1520  -14.0590  -11.9830 O.2    13  DT13       -0.2443
    255  N3         4.9010  -15.5000  -11.8900 N.ar   13  DT13       -0.1533
    256  C4         5.5080  -16.6960  -11.5650 C.ar   13  DT13        0.2804
    257  O4         6.6930  -16.8670  -11.8390 O.2    13  DT13       -0.2654
    258  C5         4.6500  -17.6450  -10.9140 C.ar   13  DT13        0.0534
    259  C6         3.3750  -17.3270  -10.6730 C.ar   13  DT13        0.0824
    260  C7         5.2170  -18.9770  -10.5210 C.3    13  DT13        0.0377
    261  P         -1.3130  -19.0340  -13.3010 P.3    14  DC14        0.2141
    262  OP1       -2.7400  -19.4230  -13.2750 O.2    14  DC14       -0.5172
    263  OP2       -0.2510  -20.0570  -13.1680 O.3    14  DC14       -0.4373
    264  O5'       -1.0050  -18.3160  -14.6970 O.3    14  DC14       -0.3114
    265  C5'       -1.8260  -17.2550  -15.1620 C.3    14  DC14        0.1811
    266  C4'       -1.0660  -16.3450  -16.0960 C.3    14  DC14        0.1746
    267  O4'        0.1210  -15.8440  -15.4260 O.3    14  DC14       -0.3327
    268  C3'       -0.5390  -16.9820  -17.3760 C.3    14  DC14        0.1558
    269  O3'       -1.5220  -17.0510  -18.3980 O.3    14  DC14       -0.3138
    270  C2'        0.6400  -16.0860  -17.7380 C.3    14  DC14        0.0866
    271  C1'        1.1580  -15.6480  -16.3660 C.3    14  DC14        0.2106
    272  N1         2.3900  -16.2450  -15.8800 N.ar   14  DC14       -0.2556
    273  C2         3.6180  -15.7740  -16.3570 C.ar   14  DC14        0.3531
    274  O2         3.6300  -14.7630  -17.0810 O.2    14  DC14       -0.2443
    275  N3         4.7540  -16.4300  -16.0190 N.ar   14  DC14       -0.1739
    276  C4         4.6930  -17.5120  -15.2410 C.ar   14  DC14        0.1759
    277  N4         5.8380  -18.1260  -14.9350 N.pl3  14  DC14       -0.1070
    278  C5         3.4580  -18.0060  -14.7470 C.ar   14  DC14        0.0566
    279  C6         2.3390  -17.3540  -15.0830 C.ar   14  DC14        0.0849
    280  P         -1.4010  -18.0290  -19.7190 P.3    15  DA15        0.2141
    281  OP1       -2.5460  -17.9710  -20.6540 O.2    15  DA15       -0.5172
    282  OP2       -1.0320  -19.3100  -19.0800 O.3    15  DA15       -0.4373
    283  O5'       -0.1050  -17.4590  -20.4630 O.3    15  DA15       -0.3114
    284  C5'       -0.2170  -16.3100  -21.2990 C.3    15  DA15        0.1811
    285  C4'        1.1510  -15.7400  -21.6170 C.3    15  DA15        0.1746
    286  O4'        1.8570  -15.4610  -20.3820 O.3    15  DA15       -0.3327
    287  C3'        2.1030  -16.6680  -22.3500 C.3    15  DA15        0.1558
    288  O3'        1.8190  -16.7040  -23.7300 O.3    15  DA15       -0.3138
    289  C2'        3.4180  -15.9600  -22.0650 C.3    15  DA15        0.0865
    290  C1'        3.2440  -15.6720  -20.5760 C.3    15  DA15        0.2094
    291  N9         3.7480  -16.8590  -19.8260 N.ar   15  DA15       -0.2714
    292  C8         2.9490  -17.7030  -19.1000 C.ar   15  DA15        0.1815
    293  N7         3.6150  -18.5210  -18.3200 N.ar   15  DA15       -0.2193
    294  C5         4.9410  -18.1930  -18.5500 C.ar   15  DA15        0.1518
    295  C6         6.1450  -18.6980  -18.0270 C.ar   15  DA15        0.1919
    296  N6         6.2050  -19.6810  -17.1260 N.pl3  15  DA15       -0.1054
    297  N1         7.2980  -18.1500  -18.4680 N.ar   15  DA15       -0.2040
    298  C2         7.2360  -17.1640  -19.3700 C.ar   15  DA15        0.2016
    299  N3         6.1680  -16.6060  -19.9340 N.ar   15  DA15       -0.2048
    300  C4         5.0390  -17.1720  -19.4760 C.ar   15  DA15        0.1691
    301  P          1.7230  -18.0140  -24.3780 P.3    16  DA16        0.2141
    302  OP1        0.8980  -18.0340  -25.6080 O.2    16  DA16       -0.5172
    303  OP2        1.7770  -19.2000  -23.4940 O.3    16  DA16       -0.4373
    304  O5'        3.2530  -17.7730  -24.7860 O.3    16  DA16       -0.3114
    305  C5'        3.6170  -16.6080  -25.5140 C.3    16  DA16        0.1811
    306  C4'        5.0600  -16.2290  -25.2860 C.3    16  DA16        0.1746
    307  O4'        5.4050  -16.4270  -23.8900 O.3    16  DA16       -0.3327
    308  C3'        6.0970  -17.0600  -26.0210 C.3    16  DA16        0.1558
    309  O3'        6.2300  -16.7210  -27.3900 O.3    16  DA16       -0.3138
    310  C2'        7.3400  -16.8010  -25.1810 C.3    16  DA16        0.0865
    311  C1'        6.7330  -16.8970  -23.7850 C.3    16  DA16        0.2094
    312  N9         6.5670  -18.2850  -23.0720 N.ar   16  DA16       -0.2714
    313  C8         5.4070  -18.9310  -22.7330 C.ar   16  DA16        0.1815
    314  N7         5.5920  -19.9930  -21.9850 N.ar   16  DA16       -0.2193
    315  C5         6.9670  -20.0490  -21.8230 C.ar   16  DA16        0.1518
    316  C6         7.8030  -20.9440  -21.1310 C.ar   16  DA16        0.1919
    317  N6         7.3510  -21.9960  -20.4450 N.pl3  16  DA16       -0.1054
    318  N1         9.1330  -20.7160  -21.1690 N.ar   16  DA16       -0.2040
    319  C2         9.5840  -19.6600  -21.8560 C.ar   16  DA16        0.2016
    320  N3         8.8990  -18.7500  -22.5440 N.ar   16  DA16       -0.2048
    321  C4         7.5810  -19.0050  -22.4880 C.ar   16  DA16        0.1691
    322  P          6.2570  -17.6130  -27.9610 P.3    17  DT17        0.2141
    323  OP1        6.0820  -16.9550  -29.2760 O.2    17  DT17       -0.5172
    324  OP2        5.3670  -18.7200  -27.5570 O.3    17  DT17       -0.4373
    325  O5'        7.7230  -18.2450  -27.9150 O.3    17  DT17       -0.3114
    326  C5'        8.9120  -17.4720  -27.8410 C.3    17  DT17        0.1812
    327  C4'       10.0520  -18.3800  -27.4630 C.3    17  DT17        0.1775
    328  O4'        9.9150  -18.7840  -26.0760 O.3    17  DT17       -0.3326
    329  C3'       10.0730  -19.7070  -28.1990 C.3    17  DT17        0.1864
    330  O3'       10.6310  -19.6140  -29.4930 O.3    17  DT17       -0.2133
    331  C2'       10.8550  -20.6030  -27.2530 C.3    17  DT17        0.0895
    332  C1'       10.3170  -20.1290  -25.9110 C.3    17  DT17        0.2107
    333  N1         9.1190  -20.8980  -25.4610 N.ar   17  DT17       -0.2559
    334  C2         9.3780  -22.1000  -24.8300 C.ar   17  DT17        0.3545
    335  O2        10.5040  -22.5350  -24.6660 O.2    17  DT17       -0.2443
    336  N3         8.2660  -22.7800  -24.3960 N.ar   17  DT17       -0.1533
    337  C4         6.9500  -22.3880  -24.5270 C.ar   17  DT17        0.2804
    338  O4         6.0580  -23.1070  -24.0850 O.2    17  DT17       -0.2654
    339  C5         6.7630  -21.1300  -25.1930 C.ar   17  DT17        0.0534
    340  C6         7.8270  -20.4480  -25.6250 C.ar   17  DT17        0.0824
    341  C7         5.3670  -20.6170  -25.3840 C.3    17  DT17        0.0377
    342  P          9.9390  -20.4570  -30.6850 P.3    18  DT18        0.3939
    343  OP1        9.1600  -20.6430  -31.9340 O.3    18  DT18       -0.1425
    344  OP2        9.2830  -19.8100  -29.5060 O.3    18  DT18       -0.1496
    345  O5'       10.4850  -21.9070  -30.2660 O.3    18  DT18       -0.2926
    346  C5'       11.8910  -22.0670  -30.3610 C.3    18  DT18        0.1828
    347  C4'       12.3190  -23.4120  -29.8760 C.3    18  DT18        0.1747
    348  O4'       11.7780  -23.5850  -28.5450 O.3    18  DT18       -0.3327
    349  C3'       11.7530  -24.5610  -30.6970 C.3    18  DT18        0.1558
    350  O3'       12.4800  -24.8120  -31.9040 O.3    18  DT18       -0.3138
    351  C2'       11.9480  -25.6600  -29.6730 C.3    18  DT18        0.0866
    352  C1'       11.4850  -24.9520  -28.3840 C.3    18  DT18        0.2106
    353  N1        10.0460  -25.1280  -27.9910 N.ar   18  DT18       -0.2559
    354  C2         9.6110  -26.3390  -27.4870 C.ar   18  DT18        0.3545
    355  O2        10.3320  -27.3160  -27.3910 O.2    18  DT18       -0.2443
    356  N3         8.2930  -26.3670  -27.0990 N.ar   18  DT18       -0.1533
    357  C4         7.3880  -25.3280  -27.1620 C.ar   18  DT18        0.2804
    358  O4         6.2360  -25.5050  -26.7740 O.2    18  DT18       -0.2654
    359  C5         7.9150  -24.1050  -27.6970 C.ar   18  DT18        0.0534
    360  C6         9.1930  -24.0500  -28.0830 C.ar   18  DT18        0.0824
    361  C7         7.0070  -22.9160  -27.8070 C.3    18  DT18        0.0377
    362  P         11.7720  -25.3600  -33.1310 P.3    19  DA19        0.2141
    363  OP1       12.9360  -25.3990  -34.4030 O.2    19  DA19       -0.5172
    364  OP2       10.5640  -24.7420  -33.5290 O.3    19  DA19       -0.4373
    365  O5'       11.4070  -26.9720  -31.8680 O.3    19  DA19       -0.3114
    366  C5'       12.5710  -27.8310  -32.0300 C.3    19  DA19        0.1811
    367  C4'       12.0090  -29.2480  -31.9160 C.3    19  DA19        0.1746
    368  O4'       11.3500  -29.3120  -30.6410 O.3    19  DA19       -0.3327
    369  C3'       10.8440  -29.4600  -32.9190 C.3    19  DA19        0.1558
    370  O3'       11.4270  -29.7600  -34.1980 O.3    19  DA19       -0.3138
    371  C2'       10.1210  -30.6010  -32.1740 C.3    19  DA19        0.0865
    372  C1'       10.1290  -30.0610  -30.7420 C.3    19  DA19        0.2094
    373  N9         9.0910  -29.2040  -30.3180 N.ar   19  DA19       -0.2714
    374  C8         8.9670  -27.8510  -30.5000 C.ar   19  DA19        0.1815
    375  N7         7.7750  -27.3850  -30.2090 N.ar   19  DA19       -0.2193
    376  C5         7.0690  -28.5090  -29.8090 C.ar   19  DA19        0.1518
    377  C6         5.7450  -28.6870  -29.3720 C.ar   19  DA19        0.1919
    378  N6         4.8630  -27.6920  -29.2600 N.pl3  19  DA19       -0.1054
    379  N1         5.3550  -29.9390  -29.0500 N.ar   19  DA19       -0.2040
    380  C2         6.2400  -30.9360  -29.1620 C.ar   19  DA19        0.2016
    381  N3         7.5090  -30.8930  -29.5590 N.ar   19  DA19       -0.2048
    382  C4         7.8660  -29.6360  -29.8730 C.ar   19  DA19        0.1691
    383  P         10.4840  -29.8340  -35.6050 P.3    20  DA20        0.2141
    384  OP1       11.3030  -30.0400  -36.8200 O.2    20  DA20       -0.5172
    385  OP2        9.9770  -28.4820  -35.2700 O.3    20  DA20       -0.4373
    386  O5'        9.2190  -30.8170  -35.6630 O.3    20  DA20       -0.3114
    387  C5'        9.3810  -32.2030  -35.9840 C.3    20  DA20        0.1811
    388  C4'        8.2620  -33.0320  -35.3750 C.3    20  DA20        0.1746
    389  O4'        8.0920  -32.6850  -33.9760 O.3    20  DA20       -0.3327
    390  C3'        6.8800  -32.8300  -35.9800 C.3    20  DA20        0.1558
    391  O3'        6.7230  -33.6510  -37.1130 O.3    20  DA20       -0.3138
    392  C2'        6.0100  -33.3440  -34.8520 C.3    20  DA20        0.0865
    393  C1'        6.7290  -32.7750  -33.6310 C.3    20  DA20        0.2094
    394  N9         6.1610  -31.4420  -33.3000 N.ar   20  DA20       -0.2714
    395  C8         6.7490  -30.2580  -33.6610 C.ar   20  DA20        0.1815
    396  N7         6.1450  -29.1980  -33.1790 N.ar   20  DA20       -0.2193
    397  C5         5.0870  -29.7220  -32.4520 C.ar   20  DA20        0.1518
    398  C6         4.0670  -29.1170  -31.6970 C.ar   20  DA20        0.1919
    399  N6         3.9450  -27.7960  -31.5430 N.pl3  20  DA20       -0.1054
    400  N1         3.1670  -29.9260  -31.0980 N.ar   20  DA20       -0.2040
    401  C2         3.2910  -31.2490  -31.2520 C.ar   20  DA20        0.2016
    402  N3         4.2050  -31.9340  -31.9360 N.ar   20  DA20       -0.2048
    403  C4         5.0830  -31.1020  -32.5190 C.ar   20  DA20        0.1691
    404  P          5.7590  -33.2350  -38.2520 P.3    21  DT21        0.2141
    405  OP1        5.5850  -33.7740  -39.6310 O.2    21  DT21       -0.5172
    406  OP2        6.1650  -31.8120  -38.0700 O.3    21  DT21       -0.4373
    407  O5'        4.3600  -33.3660  -37.5310 O.3    21  DT21       -0.3114
    408  C5'        3.6000  -34.5320  -37.6310 C.3    21  DT21        0.1811
    409  C4'        2.2100  -34.2430  -37.1440 C.3    21  DT21        0.1746
    410  O4'        2.2210  -33.8890  -35.7360 O.3    21  DT21       -0.3327
    411  C3'        1.6060  -33.0250  -37.7930 C.3    21  DT21        0.1558
    412  O3'        1.1890  -33.3980  -39.1000 O.3    21  DT21       -0.3138
    413  C2'        0.4970  -32.6880  -36.8080 C.3    21  DT21        0.0866
    414  C1'        1.2130  -32.9360  -35.4770 C.3    21  DT21        0.2106
    415  N1         1.8880  -31.7040  -34.9440 N.ar   21  DT21       -0.2559
    416  C2         1.1450  -30.8820  -34.1180 C.ar   21  DT21        0.3545
    417  O2        -0.0140  -31.1120  -33.8200 O.2    21  DT21       -0.2443
    418  N3         1.8090  -29.7730  -33.6520 N.ar   21  DT21       -0.1533
    419  C4         3.1120  -29.4120  -33.9230 C.ar   21  DT21        0.2804
    420  O4         3.5710  -28.3850  -33.4280 O.2    21  DT21       -0.2654
    421  C5         3.8170  -30.3150  -34.7880 C.ar   21  DT21        0.0534
    422  C6         3.1950  -31.4010  -35.2560 C.ar   21  DT21        0.0824
    423  C7         5.2420  -30.0080  -35.1430 C.3    21  DT21        0.0377
    424  P          0.6390  -32.2020  -40.0940 P.3    22  DC22        0.2141
    425  OP1        0.5570  -32.5350  -41.5400 O.2    22  DC22       -0.5172
    426  OP2        1.7280  -31.3150  -39.6050 O.3    22  DC22       -0.4373
    427  O5'       -0.7490  -31.5810  -39.6650 O.3    22  DC22       -0.3114
    428  C5'       -1.0210  -30.2230  -39.8820 C.3    22  DC22        0.1811
    429  C4'       -2.2970  -29.8640  -39.2040 C.3    22  DC22        0.1746
    430  O4'       -2.1490  -29.9910  -37.7610 O.3    22  DC22       -0.3327
    431  C3'       -2.6890  -28.4300  -39.4610 C.3    22  DC22        0.1558
    432  O3'       -4.0890  -28.3640  -39.5060 O.3    22  DC22       -0.3138
    433  C2'       -2.1410  -27.6990  -38.2490 C.3    22  DC22        0.0866
    434  C1'       -2.3620  -28.7320  -37.1490 C.3    22  DC22        0.2106
    435  N1        -1.5180  -28.6150  -36.2580 N.ar   22  DC22       -0.2556
    436  C2        -1.8640  -27.8520  -35.1370 C.ar   22  DC22        0.3531
    437  O2        -3.0050  -27.9750  -34.6590 O.2    22  DC22       -0.2443
    438  N3        -0.9500  -27.0050  -34.6070 N.ar   22  DC22       -0.1739
    439  C4         0.2630  -26.9060  -35.1530 C.ar   22  DC22        0.1759
    440  N4         1.1310  -26.0580  -34.5970 N.pl3  22  DC22       -0.1070
    441  C5         0.6330  -27.6700  -36.2890 C.ar   22  DC22        0.0566
    442  C6        -0.2730  -28.5050  -36.8090 C.ar   22  DC22        0.0849
    443  P         -5.1260  -27.1250  -40.5530 P.3    23  DG23        0.2141
    444  OP1       -5.6400  -26.9640  -41.9370 O.2    23  DG23       -0.5172
    445  OP2       -4.0300  -26.2460  -40.0700 O.3    23  DG23       -0.4373
    446  O5'       -6.3540  -26.9940  -39.5490 O.3    23  DG23       -0.3114
    447  C5'       -6.5580  -25.8040  -38.7980 C.3    23  DG23        0.1811
    448  C4'       -6.0160  -25.9800  -37.4030 C.3    23  DG23        0.1746
    449  O4'       -4.6290  -26.3930  -37.4910 O.3    23  DG23       -0.3327
    450  C3'       -5.9940  -24.7280  -36.5420 C.3    23  DG23        0.1558
    451  O3'       -7.2450  -24.5540  -35.8910 O.3    23  DG23       -0.3138
    452  C2'       -4.8690  -25.0310  -35.5580 C.3    23  DG23        0.0865
    453  C1'       -3.8790  -25.7910  -36.4490 C.3    23  DG23        0.2094
    454  N9        -2.9040  -24.8870  -37.2440 N.ar   23  DG23       -0.2713
    455  C8        -2.8740  -24.7930  -38.6140 C.ar   23  DG23        0.1816
    456  N7        -1.8410  -24.1330  -39.0630 N.ar   23  DG23       -0.2173
    457  C5        -1.1450  -23.7710  -37.9250 C.ar   23  DG23        0.1748
    458  C6         0.0600  -23.0370  -37.7740 C.ar   23  DG23        0.3023
    459  O6         0.7750  -22.5480  -38.6580 O.2    23  DG23       -0.2633
    460  N1         0.4180  -22.8930  -36.4360 N.ar   23  DG23       -0.1709
    461  C2        -0.2980  -23.3930  -35.3750 C.ar   23  DG23        0.2606
    462  N2         0.2060  -23.1520  -34.1570 N.pl3  23  DG23       -0.0859
    463  N3        -1.4190  -24.0750  -35.4990 N.ar   23  DG23       -0.1918
    464  C4        -1.7860  -24.2270  -36.7890 C.ar   23  DG23        0.1722
    465  P         -7.5690  -23.2550  -34.5980 P.3    24  DC24        0.2141
    466  OP1       -8.7330  -23.3970  -33.6810 O.3    24  DC24       -0.4373
    467  OP2       -7.7130  -22.4680  -35.8480 O.2    24  DC24       -0.5172
    468  O5'       -6.3190  -22.6890  -33.7860 O.3    24  DC24       -0.3114
    469  C5'       -5.3070  -23.5840  -33.3290 C.3    24  DC24        0.1811
    470  C4'       -4.1130  -22.8310  -32.7960 C.3    24  DC24        0.1746
    471  O4'       -3.5020  -22.0300  -33.8290 O.3    24  DC24       -0.3327
    472  C3'       -4.3790  -21.8520  -31.6720 C.3    24  DC24        0.1558
    473  O3'       -4.3940  -22.5870  -30.4550 O.3    24  DC24       -0.3138
    474  C2'       -3.1680  -20.9180  -31.7350 C.3    24  DC24        0.0866
    475  C1'       -2.7790  -20.9830  -33.2190 C.3    24  DC24        0.2106
    476  N1        -3.3300  -19.5960  -33.7350 N.ar   24  DC24       -0.2556
    477  C2        -2.4960  -18.4730  -33.7720 C.ar   24  DC24        0.3531
    478  O2        -1.3560  -18.5570  -33.2840 O.2    24  DC24       -0.2443
    479  N3        -2.9550  -17.3300  -34.3370 N.ar   24  DC24       -0.1739
    480  C4        -4.1850  -17.2860  -34.8470 C.ar   24  DC24        0.1759
    481  N4        -4.5940  -16.1380  -35.3930 N.pl3  24  DC24       -0.1070
    482  C5        -5.0460  -18.4130  -34.8190 C.ar   24  DC24        0.0566
    483  C6        -4.5890  -19.5400  -34.2610 C.ar   24  DC24        0.0849
    484  P         -5.0440  -22.0280  -28.9910 P.3    25  DA25        0.2141
    485  OP1       -6.0820  -21.6050  -29.9700 O.2    25  DA25       -0.5172
    486  OP2       -4.8550  -21.2640  -27.7310 O.3    25  DA25       -0.4373
    487  O5'       -5.2970  -23.5500  -28.6270 O.3    25  DA25       -0.3114
    488  C5'       -6.5370  -24.1790  -28.9430 C.3    25  DA25        0.1811
    489  C4'       -6.3110  -25.6230  -29.3090 C.3    25  DA25        0.1746
    490  O4'       -5.7370  -25.7070  -30.6350 O.3    25  DA25       -0.3327
    491  C3'       -5.3470  -26.3970  -28.4280 C.3    25  DA25        0.1558
    492  O3'       -5.9720  -26.8830  -27.2620 O.3    25  DA25       -0.3138
    493  C2'       -4.9220  -27.5250  -29.3460 C.3    25  DA25        0.0865
    494  C1'       -4.8490  -26.8100  -30.6930 C.3    25  DA25        0.2094
    495  N9        -3.4420  -26.2950  -30.8820 N.ar   25  DA25       -0.2714
    496  C8        -2.9690  -25.0130  -30.7860 C.ar   25  DA25        0.1815
    497  N7        -1.6950  -24.8960  -31.0770 N.ar   25  DA25       -0.2193
    498  C5        -1.3050  -26.1900  -31.3850 C.ar   25  DA25        0.1518
    499  C6        -0.0710  -26.7380  -31.7760 C.ar   25  DA25        0.1919
    500  N6         1.0420  -26.0170  -31.9310 N.pl3  25  DA25       -0.1054
    501  N1        -0.0200  -28.0670  -32.0050 N.ar   25  DA25       -0.2040
    502  C2        -1.1360  -28.7880  -31.8510 C.ar   25  DA25        0.2016
    503  N3        -2.3530  -28.3880  -31.4890 N.ar   25  DA25       -0.2048
    504  C4        -2.3700  -27.0630  -31.2680 C.ar   25  DA25        0.1691
    505  P         -5.1190  -27.1850  -26.1480 P.3    26  DT26        0.2141
    506  OP1       -6.0780  -27.5170  -25.0690 O.3    26  DT26       -0.4373
    507  OP2       -4.2750  -25.9670  -26.0430 O.2    26  DT26       -0.5172
    508  O5'       -4.1730  -28.4580  -26.3930 O.3    26  DT26       -0.3114
    509  C5'       -4.7540  -29.7410  -26.3050 C.3    26  DT26        0.1811
    510  C4'       -3.8680  -30.8090  -26.9140 C.3    26  DT26        0.1746
    511  O4'       -3.2450  -30.3180  -28.1240 O.3    26  DT26       -0.3327
    512  C3'       -2.6880  -31.2210  -26.0620 C.3    26  DT26        0.1558
    513  O3'       -3.1150  -32.1310  -25.0780 O.3    26  DT26       -0.3138
    514  C2'       -1.8330  -31.9120  -27.1110 C.3    26  DT26        0.0866
    515  C1'       -1.9900  -30.9510  -28.2810 C.3    26  DT26        0.2106
    516  N1        -0.9320  -29.9640  -28.3110 N.ar   26  DT26       -0.2559
    517  C2         0.3010  -30.2600  -28.8590 C.ar   26  DT26        0.3545
    518  O2         0.6360  -31.3890  -29.1710 O.2    26  DT26       -0.2443
    519  N3         1.1350  -29.1810  -29.0300 N.ar   26  DT26       -0.1533
    520  C4         0.8650  -27.8660  -28.7140 C.ar   26  DT26        0.2804
    521  O4         1.7160  -27.0050  -28.9280 O.2    26  DT26       -0.2654
    522  C5        -0.4350  -27.6400  -28.1480 C.ar   26  DT26        0.0534
    523  C6        -1.2660  -28.6710  -27.9710 C.ar   26  DT26        0.0824
    524  C7        -0.8230  -26.2410  -27.7700 C.3    26  DT26        0.0377
    525  P         -2.5150  -32.0430  -23.6270 P.3    27  DT27        0.2141
    526  OP1       -3.4920  -32.8320  -22.8200 O.3    27  DT27       -0.4373
    527  OP2       -2.2850  -30.5910  -23.3380 O.2    27  DT27       -0.5172
    528  O5'       -1.1080  -32.7770  -23.5910 O.3    27  DT27       -0.3114
    529  C5'       -0.9590  -34.0250  -24.2260 C.3    27  DT27        0.1811
    530  C4'        0.3920  -34.1280  -24.8710 C.3    27  DT27        0.1746
    531  O4'        0.5130  -33.2320  -25.9970 O.3    27  DT27       -0.3327
    532  C3'        1.5740  -33.7640  -24.0110 C.3    27  DT27        0.1558
    533  O3'        1.8760  -34.8200  -23.1580 O.3    27  DT27       -0.3138
    534  C2'        2.6690  -33.5310  -25.0300 C.3    27  DT27        0.0866
    535  C1'        1.8780  -32.8970  -26.1710 C.3    27  DT27        0.2106
    536  N1         2.0440  -31.4480  -26.1150 N.ar   27  DT27       -0.2559
    537  C2         3.2020  -30.8670  -26.5950 C.ar   27  DT27        0.3545
    538  O2         4.1570  -31.5140  -26.9870 O.2    27  DT27       -0.2443
    539  N3         3.2040  -29.4930  -26.5990 N.ar   27  DT27       -0.1533
    540  C4         2.1870  -28.6610  -26.1800 C.ar   27  DT27        0.2804
    541  O4         2.3360  -27.4430  -26.2450 O.2    27  DT27       -0.2654
    542  C5         1.0190  -29.3400  -25.6950 C.ar   27  DT27        0.0534
    543  C6         0.9900  -30.6750  -25.6800 C.ar   27  DT27        0.0824
    544  C7        -0.1430  -28.5220  -25.2160 C.3    27  DT27        0.0377
    545  P          2.3190  -34.5230  -21.8440 P.3    28  DA28        0.2141
    546  OP1        1.9230  -35.4720  -20.7770 O.3    28  DA28       -0.4373
    547  OP2        2.3140  -33.0560  -21.5700 O.2    28  DA28       -0.5172
    548  O5'        3.7620  -34.9240  -22.3770 O.3    28  DA28       -0.3114
    549  C5'        4.9180  -34.4300  -21.7270 C.3    28  DA28        0.1811
    550  C4'        6.1140  -34.5130  -22.6340 C.3    28  DA28        0.1746
    551  O4'        5.7490  -34.0490  -23.9590 O.3    28  DA28       -0.3327
    552  C3'        7.2430  -33.6010  -22.1960 C.3    28  DA28        0.1558
    553  O3'        8.0310  -34.2040  -21.1830 O.3    28  DA28       -0.3138
    554  C2'        7.9420  -33.2780  -23.5120 C.3    28  DA28        0.0865
    555  C1'        6.7420  -33.1690  -24.4530 C.3    28  DA28        0.2094
    556  N9         6.1490  -31.8420  -24.3720 N.ar   28  DA28       -0.2714
    557  C8         4.9840  -31.4660  -23.7570 C.ar   28  DA28        0.1815
    558  N7         4.7490  -30.1760  -23.8130 N.ar   28  DA28       -0.2193
    559  C5         5.8340  -29.6710  -24.5110 C.ar   28  DA28        0.1518
    560  C6         6.1820  -28.3670  -24.9050 C.ar   28  DA28        0.1919
    561  N6         5.4380  -27.2910  -24.6380 N.pl3  28  DA28       -0.1054
    562  N1         7.3340  -28.2050  -25.5890 N.ar   28  DA28       -0.2040
    563  C2         8.0790  -29.2840  -25.8570 C.ar   28  DA28        0.2016
    564  N3         7.8570  -30.5580  -25.5410 N.ar   28  DA28       -0.2048
    565  C4         6.7050  -30.6850  -24.8610 C.ar   28  DA28        0.1691
    566  P          8.1700  -33.4380  -19.5490 P.3    29  DC29        0.2141
    567  OP1        8.5130  -34.4520  -18.4760 O.3    29  DC29       -0.4373
    568  OP2        7.1490  -32.4700  -18.9550 O.2    29  DC29       -0.5172
    569  O5'        9.3460  -32.5980  -20.1630 O.3    29  DC29       -0.3114
    570  C5'       10.3600  -33.3710  -20.8240 C.3    29  DC29        0.1811
    571  C4'       11.0650  -32.3770  -21.7040 C.3    29  DC29        0.1746
    572  O4'       10.1460  -31.7710  -22.5940 O.3    29  DC29       -0.3327
    573  C3'       11.6860  -31.1810  -21.0000 C.3    29  DC29        0.1558
    574  O3'       12.8050  -31.5370  -20.2090 O.3    29  DC29       -0.3138
    575  C2'       11.8720  -30.2220  -22.1560 C.3    29  DC29        0.0866
    576  C1'       10.6120  -30.4690  -22.9570 C.3    29  DC29        0.2106
    577  N1         9.6530  -29.5260  -22.8380 N.ar   29  DC29       -0.2556
    578  C2         9.7410  -28.2590  -23.4270 C.ar   29  DC29        0.3531
    579  O2        10.7650  -27.9680  -24.0690 O.2    29  DC29       -0.2443
    580  N3         8.7130  -27.3900  -23.2790 N.ar   29  DC29       -0.1739
    581  C4         7.6340  -27.7450  -22.5810 C.ar   29  DC29        0.1759
    582  N4         6.6460  -26.8560  -22.4630 N.pl3  29  DC29       -0.1070
    583  C5         7.5250  -29.0240  -21.9770 C.ar   29  DC29        0.0566
    584  C6         8.5430  -29.8790  -22.1250 C.ar   29  DC29        0.0849
    585  P         13.0580  -30.7320  -18.8120 P.3    30  DC30        0.2141
    586  OP1       14.0460  -31.3770  -17.9290 O.3    30  DC30       -0.4373
    587  OP2       11.7190  -30.3770  -18.2830 O.2    30  DC30       -0.5172
    588  O5'       13.7290  -29.3940  -19.4190 O.3    30  DC30       -0.3114
    589  C5'       15.1000  -29.4220  -19.7920 C.3    30  DC30        0.1811
    590  C4'       15.5650  -28.1360  -20.4540 C.3    30  DC30        0.1746
    591  O4'       14.7850  -27.8420  -21.6380 O.3    30  DC30       -0.3327
    592  C3'       15.3920  -26.9760  -19.5420 C.3    30  DC30        0.1558
    593  O3'       16.5060  -26.7660  -18.6830 O.3    30  DC30       -0.3138
    594  C2'       15.1360  -25.8210  -20.4150 C.3    30  DC30        0.0866
    595  C1'       14.5720  -26.4010  -21.6970 C.3    30  DC30        0.2106
    596  N1        13.1750  -26.0560  -21.7320 N.ar   30  DC30       -0.2556
    597  C2        12.8300  -24.7860  -22.2100 C.ar   30  DC30        0.3531
    598  O2        13.7230  -24.0650  -22.6880 O.2    30  DC30       -0.2443
    599  N3        11.5400  -24.3820  -22.1380 N.ar   30  DC30       -0.1739
    600  C4        10.6160  -25.1900  -21.6160 C.ar   30  DC30        0.1759
    601  N4         9.3570  -24.7490  -21.5650 N.pl3  30  DC30       -0.1070
    602  C5        10.9450  -26.4800  -21.1260 C.ar   30  DC30        0.0566
    603  C6        12.2210  -26.8750  -21.2000 C.ar   30  DC30        0.0849
    604  P         16.2950  -25.9910  -17.1570 P.3    31  DT31        0.2141
    605  OP1       17.4880  -26.3520  -16.3300 O.3    31  DT31       -0.4373
    606  OP2       14.9760  -26.2580  -16.5050 O.2    31  DT31       -0.5172
    607  O5'       16.1720  -24.5550  -17.8420 O.3    31  DT31       -0.3114
    608  C5'       17.3630  -24.1220  -18.5150 C.3    31  DT31        0.1811
    609  C4'       16.9180  -23.0120  -19.4420 C.3    31  DT31        0.1746
    610  O4'       15.8190  -23.5050  -20.1640 O.3    31  DT31       -0.3327
    611  C3'       16.4040  -21.7480  -18.8000 C.3    31  DT31        0.1558
    612  O3'       17.4020  -20.9050  -18.2470 O.3    31  DT31       -0.3138
    613  C2'       15.5310  -21.1410  -19.8840 C.3    31  DT31        0.0866
    614  C1'       15.0100  -22.3770  -20.5400 C.3    31  DT31        0.2106
    615  N1        13.6540  -22.6540  -20.1520 N.ar   31  DT31       -0.2559
    616  C2        12.6010  -21.8480  -20.5410 C.ar   31  DT31        0.3545
    617  O2        12.7470  -20.8440  -21.2150 O.2    31  DT31       -0.2443
    618  N3        11.3630  -22.2620  -20.1110 N.ar   31  DT31       -0.1533
    619  C4        11.0790  -23.3750  -19.3480 C.ar   31  DT31        0.2804
    620  O4         9.9140  -23.6160  -19.0410 O.2    31  DT31       -0.2654
    621  C5        12.2250  -24.1600  -18.9830 C.ar   31  DT31        0.0534
    622  C6        13.4400  -23.7810  -19.3880 C.ar   31  DT31        0.0824
    623  C7        12.0200  -25.3920  -18.1520 C.3    31  DT31        0.0377
    624  P         17.1050  -20.4650  -16.8580 P.3    32  DT32        0.2141
    625  OP1       18.3180  -19.7280  -16.4250 O.2    32  DT32       -0.5172
    626  OP2       16.2200  -21.0800  -15.8360 O.3    32  DT32       -0.4373
    627  O5'       16.2010  -19.4960  -17.7480 O.3    32  DT32       -0.3114
    628  C5'       16.7200  -18.8900  -18.9300 C.3    32  DT32        0.1811
    629  C4'       15.6240  -18.1780  -19.6980 C.3    32  DT32        0.1746
    630  O4'       14.5250  -19.0920  -19.9600 O.3    32  DT32       -0.3327
    631  C3'       14.9220  -17.0080  -19.0260 C.3    32  DT32        0.1558
    632  O3'       15.7120  -15.8280  -19.1040 O.3    32  DT32       -0.3138
    633  C2'       13.6610  -16.8790  -19.8760 C.3    32  DT32        0.0866
    634  C1'       13.3340  -18.3450  -20.1590 C.3    32  DT32        0.2106
    635  N1        12.3220  -18.5260  -19.1510 N.ar   32  DT32       -0.2559
    636  C2        10.9920  -18.2450  -19.3980 C.ar   32  DT32        0.3545
    637  O2        10.6070  -17.6910  -20.4120 O.2    32  DT32       -0.2443
    638  N3        10.1220  -18.6360  -18.4090 N.ar   32  DT32       -0.1533
    639  C4        10.4420  -19.2660  -17.2240 C.ar   32  DT32        0.2804
    640  O4         9.5480  -19.5570  -16.4330 O.2    32  DT32       -0.2654
    641  C5        11.8430  -19.5230  -17.0410 C.ar   32  DT32        0.0534
    642  C6        12.7100  -19.1520  -17.9870 C.ar   32  DT32        0.0824
    643  C7        12.2920  -20.2050  -15.7830 C.3    32  DT32        0.0377
    644  P         15.2890  -14.5450  -18.2300 P.3    33  DA33        0.2141
    645  OP1       16.1370  -13.4500  -18.7680 O.2    33  DA33       -0.5172
    646  OP2       15.1830  -14.7380  -16.7580 O.3    33  DA33       -0.4373
    647  O5'       13.8160  -14.3500  -18.7980 O.3    33  DA33       -0.3114
    648  C5'       13.5950  -14.0860  -20.1780 C.3    33  DA33        0.1811
    649  C4'       12.1850  -13.6070  -20.3820 C.3    33  DA33        0.1746
    650  O4'       11.2530  -14.7150  -20.2260 O.3    33  DA33       -0.3327
    651  C3'       11.7390  -12.6110  -19.3330 C.3    33  DA33        0.1558
    652  O3'       12.2160  -11.3030  -19.6060 O.3    33  DA33       -0.3138
    653  C2'       10.2260  -12.7480  -19.4030 C.3    33  DA33        0.0865
    654  C1'       10.0820  -14.2650  -19.5540 C.3    33  DA33        0.2094
    655  N9         9.9420  -14.9330  -18.4010 N.ar   33  DA33       -0.2714
    656  C8        10.9420  -15.4420  -17.6130 C.ar   33  DA33        0.1815
    657  N7        10.5240  -15.8900  -16.4530 N.ar   33  DA33       -0.2193
    658  C5         9.1580  -15.6580  -16.4790 C.ar   33  DA33        0.1518
    659  C6         8.1380  -15.9090  -15.5450 C.ar   33  DA33        0.1919
    660  N6         8.3480  -16.4740  -14.3540 N.pl3  33  DA33       -0.1054
    661  N1         6.8790  -15.5560  -15.8830 N.ar   33  DA33       -0.2040
    662  C2         6.6690  -14.9910  -17.0770 C.ar   33  DA33        0.2016
    663  N3         7.5450  -14.7060  -18.0380 N.ar   33  DA33       -0.2048
    664  C4         8.7850  -15.0680  -17.6720 C.ar   33  DA33        0.1691
    665  P         12.4940  -10.4030  -18.4210 P.3    34  DT34        0.2141
    666  OP1       12.8920   -9.1410  -19.1080 O.2    34  DT34       -0.5172
    667  OP2       13.2490  -10.8670  -17.2300 O.3    34  DT34       -0.4373
    668  O5'       10.9590  -10.2790  -18.0070 O.3    34  DT34       -0.3114
    669  C5'       10.1790   -9.1670  -18.4440 C.3    34  DT34        0.1811
    670  C4'        8.7510   -9.3020  -17.9730 C.3    34  DT34        0.1746
    671  O4'        8.3840  -10.6970  -17.7740 O.3    34  DT34       -0.3327
    672  C3'        8.4340   -8.6910  -16.6280 C.3    34  DT34        0.1558
    673  O3'        8.4000   -7.2720  -16.6540 O.3    34  DT34       -0.3138
    674  C2'        7.0970   -9.3480  -16.3180 C.3    34  DT34        0.0866
    675  C1'        7.3930  -10.7790  -16.7570 C.3    34  DT34        0.2106
    676  N1         7.9390  -11.5960  -15.6700 N.ar   34  DT34       -0.2559
    677  C2         7.0640  -12.2900  -14.8560 C.ar   34  DT34        0.3545
    678  O2         5.8540  -12.1890  -14.9440 O.2    34  DT34       -0.2443
    679  N3         7.6600  -13.1110  -13.9300 N.ar   34  DT34       -0.1533
    680  C4         9.0130  -13.3040  -13.7400 C.ar   34  DT34        0.2804
    681  O4         9.3970  -14.0770  -12.8660 O.2    34  DT34       -0.2654
    682  C5         9.8550  -12.5480  -14.6230 C.ar   34  DT34        0.0534
    683  C6         9.3030  -11.7420  -15.5330 C.ar   34  DT34        0.0824
    684  C7        11.3430  -12.6890  -14.4950 C.3    34  DT34        0.0377
    685  P          8.8600   -6.7890  -15.6590 P.3    35  DA35        0.2141
    686  OP1        8.8970   -5.3140  -15.8190 O.2    35  DA35       -0.5172
    687  OP2       10.0030   -7.4880  -15.0160 O.3    35  DA35       -0.4373
    688  O5'        7.5280   -7.1540  -14.8680 O.3    35  DA35       -0.3114
    689  C5'        6.2420   -6.8180  -15.4190 C.3    35  DA35        0.1811
    690  C4'        5.1290   -7.3980  -14.5780 C.3    35  DA35        0.1746
    691  O4'        5.2140   -8.8480  -14.5430 O.3    35  DA35       -0.3327
    692  C3'        5.1180   -6.9820  -13.1180 C.3    35  DA35        0.1558
    693  O3'        4.5070   -5.7130  -12.9410 O.3    35  DA35       -0.3138
    694  C2'        4.3260   -8.1030  -12.4620 C.3    35  DA35        0.0865
    695  C1'        4.7730   -9.3170  -13.2780 C.3    35  DA35        0.2094
    696  N9         5.9320  -10.0730  -12.7170 N.ar   35  DA35       -0.2714
    697  C8         7.2680   -9.9770  -13.0090 C.ar   35  DA35        0.1815
    698  N7         8.0230  -10.7840  -12.3020 N.ar   35  DA35       -0.2193
    699  C5         7.1230  -11.4540  -11.4900 C.ar   35  DA35        0.1518
    700  C6         7.2920  -12.4470  -10.5080 C.ar   35  DA35        0.1919
    701  N6         8.4780  -12.9560  -10.1680 N.pl3  35  DA35       -0.1054
    702  N1         6.1860  -12.9030   -9.8810 N.ar   35  DA35       -0.2040
    703  C2         4.9980  -12.3920  -10.2230 C.ar   35  DA35        0.2016
    704  N3         4.7120  -11.4590  -11.1280 N.ar   35  DA35       -0.2048
    705  C4         5.8320  -11.0260  -11.7330 C.ar   35  DA35        0.1691
    706  P          4.9390   -4.8020  -11.6820 P.3    36  DC36        0.2141
    707  OP1        3.9630   -3.6950  -11.6170 O.2    36  DC36       -0.5172
    708  OP2        6.1780   -4.7680  -10.8790 O.3    36  DC36       -0.4373
    709  O5'        4.1600   -6.1390  -11.3610 O.3    36  DC36       -0.3114
    710  C5'        2.7920   -6.0890  -11.1200 C.3    36  DC36        0.1811
    711  C4'        2.4830   -7.2470  -10.2080 C.3    36  DC36        0.1746
    712  O4'        3.2550   -8.4220  -10.5500 O.3    36  DC36       -0.3327
    713  C3'        2.8950   -7.0140   -8.7860 C.3    36  DC36        0.1558
    714  O3'        1.9730   -6.1030   -8.3020 O.3    36  DC36       -0.3138
    715  C2'        2.5510   -8.4220   -8.3710 C.3    36  DC36        0.0866
    716  C1'        3.2670   -9.2610   -9.4200 C.3    36  DC36        0.2106
    717  N1         4.7010   -9.5990   -9.2210 N.ar   36  DC36       -0.2556
    718  C2         4.9920  -10.6720   -8.3700 C.ar   36  DC36        0.3531
    719  O2         4.0560  -11.3750   -7.9540 O.2    36  DC36       -0.2443
    720  N3         6.2800  -10.9110   -8.0270 N.ar   36  DC36       -0.1739
    721  C4         7.2520  -10.1280   -8.4970 C.ar   36  DC36        0.1759
    722  N4         8.5060  -10.4020   -8.1320 N.pl3  36  DC36       -0.1070
    723  C5         6.9780   -9.0360   -9.3600 C.ar   36  DC36        0.0566
    724  C6         5.7050   -8.8040   -9.6970 C.ar   36  DC36        0.0849
    725  P          2.1340   -5.6950   -6.9710 P.3    37  DC37        0.2141
    726  OP1        1.1550   -4.5810   -6.9430 O.2    37  DC37       -0.5172
    727  OP2        3.4600   -5.5720   -6.3170 O.3    37  DC37       -0.4373
    728  O5'        1.5060   -7.0420   -6.3730 O.3    37  DC37       -0.3114
    729  C5'        0.8870   -7.1290   -5.1050 C.3    37  DC37        0.1811
    730  C4'        0.8700   -8.5550   -4.6350 C.3    37  DC37        0.1746
    731  O4'        1.7560   -9.3550   -5.4560 O.3    37  DC37       -0.3327
    732  C3'        1.4300   -8.7410   -3.2430 C.3    37  DC37        0.1558
    733  O3'        0.5060   -8.4140   -2.2320 O.3    37  DC37       -0.3138
    734  C2'        1.8770  -10.1920   -3.2360 C.3    37  DC37        0.0866
    735  C1'        2.4190  -10.3150   -4.6550 C.3    37  DC37        0.2106
    736  N1         3.8820  -10.0570   -4.6920 N.ar   37  DC37       -0.2556
    737  C2         4.8110  -10.9520   -4.1490 C.ar   37  DC37        0.3531
    738  O2         4.3980  -11.8870   -3.4430 O.2    37  DC37       -0.2443
    739  N3         6.1290  -10.7720   -4.4070 N.ar   37  DC37       -0.1739
    740  C4         6.5270   -9.7530   -5.1700 C.ar   37  DC37        0.1759
    741  N4         7.8350   -9.6160   -5.3960 N.pl3  37  DC37       -0.1070
    742  C5         5.6010   -8.8350   -5.7290 C.ar   37  DC37        0.0566
    743  C6         4.3010   -9.0160   -5.4720 C.ar   37  DC37        0.0849
    744  P          1.2120   -7.4270   -1.2880 P.3    38  DA38        0.2141
    745  OP1       -0.0800   -6.7920   -0.9430 O.3    38  DA38       -0.4373
    746  OP2        2.2180   -6.6610   -2.0580 O.2    38  DA38       -0.5172
    747  O5'        2.0110   -7.9070    0.0180 O.3    38  DA38       -0.3114
    748  C5'        1.5550   -9.0050    0.7990 C.3    38  DA38        0.1811
    749  C4'        2.6420  -10.0080    1.1240 C.3    38  DA38        0.1746
    750  O4'        3.2560  -10.5080   -0.0930 O.3    38  DA38       -0.3327
    751  C3'        3.8330   -9.5140    1.9310 C.3    38  DA38        0.1558
    752  O3'        3.5660   -9.3680    3.3140 O.3    38  DA38       -0.3138
    753  C2'        4.8910  -10.5660    1.6220 C.3    38  DA38        0.0865
    754  C1'        4.6200  -10.7960    0.1370 C.3    38  DA38        0.2094
    755  N9         5.3780   -9.8950   -0.7300 N.ar   38  DA38       -0.2714
    756  C8         4.8380   -8.8920   -1.4910 C.ar   38  DA38        0.1815
    757  N7         5.7000   -8.3120   -2.2920 N.ar   38  DA38       -0.2193
    758  C5         6.8880   -8.9790   -2.0390 C.ar   38  DA38        0.1518
    759  C6         8.1840   -8.8380   -2.5670 C.ar   38  DA38        0.1919
    760  N6         8.5080   -7.9390   -3.4990 N.pl3  38  DA38       -0.1054
    761  N1         9.1450   -9.6620   -2.0980 N.ar   38  DA38       -0.2040
    762  C2         8.8190  -10.5630   -1.1640 C.ar   38  DA38        0.2016
    763  N3         7.6390  -10.7920   -0.5920 N.ar   38  DA38       -0.2048
    764  C4         6.7060   -9.9560   -1.0790 C.ar   38  DA38        0.1691
    765  P          4.1050   -8.1550    3.9460 P.3    39  DG39        0.2141
    766  OP1        3.8640   -8.0510    5.4020 O.3    39  DG39       -0.4373
    767  OP2        4.0470   -6.9350    3.1090 O.2    39  DG39       -0.5172
    768  O5'        5.5740   -8.7390    3.6930 O.3    39  DG39       -0.3114
    769  C5'        6.0270   -9.9280    4.3290 C.3    39  DG39        0.1811
    770  C4'        7.5190  -10.1180    4.1690 C.3    39  DG39        0.1746
    771  O4'        7.8440  -10.4350    2.7870 O.3    39  DG39       -0.3327
    772  C3'        8.3930   -8.9080    4.4750 C.3    39  DG39        0.1558
    773  O3'        8.6050   -8.6840    5.8600 O.3    39  DG39       -0.3138
    774  C2'        9.6670   -9.2330    3.7080 C.3    39  DG39        0.0865
    775  C1'        9.0900   -9.8630    2.4410 C.3    39  DG39        0.2094
    776  N9         8.8650   -8.8770    1.3550 N.ar   39  DG39       -0.2713
    777  C8         7.7270   -8.1870    1.0140 C.ar   39  DG39        0.1816
    778  N7         7.9250   -7.2970    0.0800 N.ar   39  DG39       -0.2173
    779  C5         9.2710   -7.4050   -0.2170 C.ar   39  DG39        0.1748
    780  C6        10.0700   -6.6960   -1.1510 C.ar   39  DG39        0.3023
    781  O6         9.7240   -5.7980   -1.9290 O.2    39  DG39       -0.2633
    782  N1        11.3950   -7.1200   -1.1300 N.ar   39  DG39       -0.1709
    783  C2        11.8910   -8.1050   -0.3100 C.ar   39  DG39        0.2606
    784  N2        13.1970   -8.3770   -0.4340 N.pl3  39  DG39       -0.0859
    785  N3        11.1610   -8.7720    0.5630 N.ar   39  DG39       -0.1918
    786  C4         9.8700   -8.3770    0.5600 C.ar   39  DG39        0.1722
    787  P          8.8230   -7.1610    6.4090 P.3    40  DC40        0.2141
    788  OP1        9.1260   -6.8940    7.8120 O.3    40  DC40       -0.4373
    789  OP2        7.9700   -6.1910    5.6660 O.2    40  DC40       -0.5172
    790  O5'       10.1520   -7.4390    5.5980 O.3    40  DC40       -0.3114
    791  C5'       11.2060   -8.2080    6.1740 C.3    40  DC40        0.1811
    792  C4'       12.5560   -7.6820    5.7480 C.3    40  DC40        0.1746
    793  O4'       12.7490   -7.8980    4.3240 O.3    40  DC40       -0.3327
    794  C3'       12.7590   -6.1870    5.8930 C.3    40  DC40        0.1558
    795  O3'       13.0650   -5.8850    7.2300 O.3    40  DC40       -0.3138
    796  C2'       13.9300   -5.9790    4.9430 C.3    40  DC40        0.0866
    797  C1'       13.4700   -6.8150    3.7730 C.3    40  DC40        0.2106
    798  N1        12.6800   -6.0690    2.8580 N.ar   40  DC40       -0.2556
    799  C2        13.3640   -5.3060    1.9040 C.ar   40  DC40        0.3531
    800  O2        14.6070   -5.3090    1.9170 O.2    40  DC40       -0.2443
    801  N3        12.6540   -4.5900    1.0010 N.ar   40  DC40       -0.1739
    802  C4        11.3210   -4.6170    1.0260 C.ar   40  DC40        0.1759
    803  N4        10.6640   -3.8940    0.1160 N.pl3  40  DC40       -0.1070
    804  C5        10.6090   -5.3830    1.9840 C.ar   40  DC40        0.0566
    805  C6        11.3140   -6.0900    2.8750 C.ar   40  DC40        0.0849
    806  P         12.6400   -4.5030    7.8430 P.3    41  DT41        0.2141
    807  OP1       12.4170   -4.3900    9.3040 O.3    41  DT41       -0.4373
    808  OP2       11.5200   -4.3330    6.8930 O.2    41  DT41       -0.5172
    809  O5'       13.6930   -3.3950    7.3770 O.3    41  DT41       -0.3114
    810  C5'       15.0230   -3.4800    7.8590 C.3    41  DT41        0.1811
    811  C4'       15.9800   -2.7630    6.9480 C.3    41  DT41        0.1746
    812  O4'       15.8150   -3.2730    5.6020 O.3    41  DT41       -0.3327
    813  C3'       15.7400   -1.2710    6.7900 C.3    41  DT41        0.1558
    814  O3'       16.2260   -0.4980    7.8680 O.3    41  DT41       -0.3138
    815  C2'       16.3910   -0.9730    5.4470 C.3    41  DT41        0.0866
    816  C1'       15.9610   -2.2190    4.6700 C.3    41  DT41        0.2106
    817  N1        14.6730   -1.7770    3.9300 N.ar   41  DT41       -0.2559
    818  C2        14.8020   -1.1630    2.6990 C.ar   41  DT41        0.3545
    819  O2        15.8620   -0.7310    2.2800 O.2    41  DT41       -0.2443
    820  N3        13.6410   -1.0700    1.9710 N.ar   41  DT41       -0.1533
    821  C4        12.3910   -1.5200    2.3420 C.ar   41  DT41        0.2804
    822  O4        11.4410   -1.3650    1.5790 O.2    41  DT41       -0.2654
    823  C5        12.3380   -2.1450    3.6340 C.ar   41  DT41        0.0534
    824  C6        13.4530   -2.2480    4.3620 C.ar   41  DT41        0.0824
    825  C7        11.0220   -2.6670    4.1290 C.3    41  DT41        0.0377
    826  P         15.2970   -0.1110    8.7110 P.3    42  DT42        0.2141
    827  OP1       15.4260    0.2460   10.1400 O.3    42  DT42       -0.4373
    828  OP2       14.0590   -0.7760    8.2420 O.2    42  DT42       -0.5172
    829  O5'       15.5340    1.2090    7.8060 O.3    42  DT42       -0.3114
    830  C5'       16.8100    1.8740    7.8350 C.3    42  DT42        0.1811
    831  C4'       16.9240    3.0190    6.8500 C.3    42  DT42        0.1746
    832  O4'       16.6470    2.7170    5.4780 O.3    42  DT42       -0.3327
    833  C3'       15.8250    3.9270    7.2350 C.3    42  DT42        0.1558
    834  O3'       16.2880    4.5550    8.4100 O.3    42  DT42       -0.3138
    835  C2'       15.5800    4.7850    6.0360 C.3    42  DT42        0.0866
    836  C1'       15.8170    3.7670    4.9230 C.3    42  DT42        0.2106
    837  N1        14.3680    3.1260    4.6590 N.ar   42  DT42       -0.2559
    838  C2        13.5550    3.8650    3.8200 C.ar   42  DT42        0.3545
    839  O2        13.8420    4.9830    3.4330 O.2    42  DT42       -0.2443
    840  N3        12.3860    3.2450    3.4490 N.ar   42  DT42       -0.1533
    841  C4        11.9580    1.9880    3.8230 C.ar   42  DT42        0.2804
    842  O4        10.8830    1.5660    3.4070 O.2    42  DT42       -0.2654
    843  C5        12.8560    1.2850    4.6950 C.ar   42  DT42        0.0534
    844  C6        13.9990    1.8640    5.0720 C.ar   42  DT42        0.0824
    845  C7        12.4790   -0.0910    5.1590 C.3    42  DT42        0.0377
    846  P         15.5220    4.5040    9.0520 P.3    43  DA43        0.2141
    847  OP1       16.2820    4.1860   10.2810 O.3    43  DA43       -0.4373
    848  OP2       14.0620    4.3060    8.9710 O.2    43  DA43       -0.5172
    849  O5'       15.7100    6.0380    8.6650 O.3    43  DA43       -0.3114
    850  C5'       16.6620    6.8550    9.3450 C.3    43  DA43        0.1811
    851  C4'       16.8600    8.1810    8.6390 C.3    43  DA43        0.1746
    852  O4'       16.9730    7.9820    7.2000 O.3    43  DA43       -0.3327
    853  C3'       15.6860    9.1190    8.8020 C.3    43  DA43        0.1558
    854  O3'       15.8490    9.7710   10.0130 O.3    43  DA43       -0.3138
    855  C2'       15.9280   10.0220    7.6110 C.3    43  DA43        0.0865
    856  C1'       16.2740    9.0140    6.5370 C.3    43  DA43        0.2094
    857  N9        14.9660    8.5420    5.8630 N.ar   43  DA43       -0.2714
    858  C8        14.5790    7.2280    5.8350 C.ar   43  DA43        0.1815
    859  N7        13.5360    7.0000    5.0720 N.ar   43  DA43       -0.2191
    860  C5        13.2160    8.2500    4.5660 C.ar   43  DA43        0.1545
    861  C6        12.2050    8.6860    3.6920 C.ar   43  DA43        0.2060
    862  N6        11.2950    7.8730    3.1500 N.2    43  DA43       -0.1252
    863  N1        12.1620   10.0010    3.3890 N.ar   43  DA43       -0.2017
    864  C2        13.0760   10.8150    3.9320 C.ar   43  DA43        0.2017
    865  N3        14.0720   10.5230    4.7640 N.ar   43  DA43       -0.2048
    866  C4        14.0870    9.2100    5.0460 C.ar   43  DA43        0.1693
    867  P         14.5440   10.0530   11.0090 P.3    44  DT44        0.2141
    868  OP1       15.0340    9.9440   12.4020 O.3    44  DT44       -0.4373
    869  OP2       13.1330    9.7410   10.6880 O.2    44  DT44       -0.5172
    870  O5'       14.7620   11.5380   10.4560 O.3    44  DT44       -0.3114
    871  C5'       13.6910   12.4470   10.6150 C.3    44  DT44        0.1811
    872  C4'       13.4880   13.3230    9.4090 C.3    44  DT44        0.1746
    873  O4'       13.7030   12.5850    8.1790 O.3    44  DT44       -0.3327
    874  C3'       12.0690   13.8280    9.2390 C.3    44  DT44        0.1558
    875  O3'       11.6940   14.8240   10.1680 O.3    44  DT44       -0.3138
    876  C2'       12.0660   14.2480    7.7790 C.3    44  DT44        0.0866
    877  C1'       12.7890   13.0380    7.1950 C.3    44  DT44        0.2106
    878  N1        11.7850   11.8690    6.8010 N.ar   44  DT44       -0.2559
    879  C2        10.9160   12.0560    5.7430 C.ar   44  DT44        0.3545
    880  O2        10.8420   13.1010    5.1210 O.2    44  DT44       -0.2443
    881  N3        10.1310   10.9700    5.4370 N.ar   44  DT44       -0.1533
    882  C4        10.1280    9.7450    6.0700 C.ar   44  DT44        0.2804
    883  O4         9.3640    8.8650    5.6800 O.2    44  DT44       -0.2654
    884  C5        11.0570    9.6300    7.1590 C.ar   44  DT44        0.0534
    885  C6        11.8320   10.6700    7.4770 C.ar   44  DT44        0.0824
    886  C7        11.1290    8.3350    7.9120 C.3    44  DT44        0.0377
    887  P         10.7700   14.4380   11.1290 P.3    45  DT45        0.2141
    888  OP1       10.7240   15.4670   12.1930 O.3    45  DT45       -0.4373
    889  OP2       10.1160   13.1310   11.3620 O.2    45  DT45       -0.5172
    890  O5'       10.1750   15.0500    9.7730 O.3    45  DT45       -0.3114
    891  C5'       10.4730   16.3910    9.3970 C.3    45  DT45        0.1811
    892  C4'        9.6720   16.8250    8.1810 C.3    45  DT45        0.1746
    893  O4'        9.7570   15.8100    7.1480 O.3    45  DT45       -0.3327
    894  C3'        8.1760   16.9900    8.4010 C.3    45  DT45        0.1558
    895  O3'        7.8750   18.2460    8.9920 O.3    45  DT45       -0.3138
    896  C2'        7.6670   16.8950    6.9700 C.3    45  DT45        0.0866
    897  C1'        8.5370   15.7590    6.4320 C.3    45  DT45        0.2106
    898  N1         7.8460   14.4200    6.6910 N.ar   45  DT45       -0.2559
    899  C2         6.8500   14.0570    5.8040 C.ar   45  DT45        0.3545
    900  O2         6.4110   14.8090    4.9530 O.2    45  DT45       -0.2443
    901  N3         6.3820   12.7730    5.9510 N.ar   45  DT45       -0.1533
    902  C4         6.8000   11.8380    6.8740 C.ar   45  DT45        0.2804
    903  O4         6.2850   10.7230    6.8820 O.2    45  DT45       -0.2654
    904  C5         7.8360   12.2910    7.7590 C.ar   45  DT45        0.0534
    905  C6         8.3090   13.5350    7.6390 C.ar   45  DT45        0.0824
    906  C7         8.3590   11.3460    8.8000 C.3    45  DT45        0.0377
    907  P          6.8150   18.3180    9.9010 P.3    46  DC46        0.2141
    908  OP1        7.3500   19.6060   10.4010 O.2    46  DC46       -0.5172
    909  OP2        6.9000   17.0990   10.7400 O.3    46  DC46       -0.4373
    910  O5'        5.2800   18.4920    9.4900 O.3    46  DC46       -0.3114
    911  C5'        4.9380   19.6020    8.6770 C.3    46  DC46        0.1812
    912  C4'        4.2740   19.1670    7.3870 C.3    46  DC46        0.1775
    913  O4'        4.9010   17.9630    6.8790 O.3    46  DC46       -0.3326
    914  C3'        2.8200   18.7720    7.5210 C.3    46  DC46        0.1864
    915  O3'        2.0160   19.9220    7.5870 O.3    46  DC46       -0.2133
    916  C2'        2.6370   18.0270    6.2050 C.3    46  DC46        0.0895
    917  C1'        3.9320   17.2230    6.1620 C.3    46  DC46        0.2107
    918  N1         3.5870   15.9340    6.6080 N.ar   46  DC46       -0.2556
    919  C2         2.7690   14.9990    5.9640 C.ar   46  DC46        0.3531
    920  O2         2.0770   15.3720    5.0020 O.2    46  DC46       -0.2443
    921  N3         2.7550   13.7190    6.4080 N.ar   46  DC46       -0.1739
    922  C4         3.5140   13.3650    7.4460 C.ar   46  DC46        0.1759
    923  N4         3.4670   12.0920    7.8480 N.pl3  46  DC46       -0.1070
    924  C5         4.3490   14.2980    8.1120 C.ar   46  DC46        0.0566
    925  C6         4.3600   15.5600    7.6700 C.ar   46  DC46        0.0849
    926  P          0.6160   19.7100    8.3440 P.3    47  DA47        0.3939
    927  OP1        1.5140   20.8490    8.0430 O.3    47  DA47       -0.1496
    928  OP2       -0.1750   19.7130    9.5970 O.3    47  DA47       -0.1425
    929  O5'       -0.3610   19.5480    7.1010 O.3    47  DA47       -0.2926
    930  C5'       -1.6150   18.8690    7.2350 C.3    47  DA47        0.1828
    931  C4'       -1.8740   17.9850    6.0430 C.3    47  DA47        0.1747
    932  O4'       -0.8770   16.9320    5.9840 O.3    47  DA47       -0.3327
    933  C3'       -3.2070   17.2720    6.1520 C.3    47  DA47        0.1558
    934  O3'       -4.2390   18.0740    5.6000 O.3    47  DA47       -0.3138
    935  C2'       -2.9660   15.9660    5.4090 C.3    47  DA47        0.0865
    936  C1'       -1.5090   15.6810    5.7800 C.3    47  DA47        0.2094
    937  N9        -1.5910   14.9580    7.1070 N.ar   47  DA47       -0.2714
    938  C8        -0.6930   15.4470    8.0200 C.ar   47  DA47        0.1815
    939  N7        -0.2750   14.5520    8.8840 N.ar   47  DA47       -0.2193
    940  C5        -0.9450   13.3960    8.5130 C.ar   47  DA47        0.1518
    941  C6        -0.9370   12.0900    9.0340 C.ar   47  DA47        0.1919
    942  N6        -0.2010   11.7170   10.0820 N.pl3  47  DA47       -0.1054
    943  N1        -1.7220   11.1710    8.4320 N.ar   47  DA47       -0.2040
    944  C2        -2.4590   11.5460    7.3800 C.ar   47  DA47        0.2016
    945  N3        -2.5500   12.7410    6.8000 N.ar   47  DA47       -0.2048
    946  C4        -1.7600   13.6310    7.4220 C.ar   47  DA47        0.1691
    947  P         -5.4950   18.1950    6.3890 P.3    48  DA48        0.2141
    948  OP1       -6.5410   18.8840    5.6000 O.2    48  DA48       -0.5172
    949  OP2       -5.5490   18.1890    7.8680 O.3    48  DA48       -0.4373
    950  O5'       -5.4730   16.6450    5.9930 O.3    48  DA48       -0.3114
    951  C5'       -5.6510   16.2430    4.6450 C.3    48  DA48        0.1811
    952  C4'       -5.9380   14.7660    4.5730 C.3    48  DA48        0.1746
    953  O4'       -4.7610   14.0320    5.0030 O.3    48  DA48       -0.3327
    954  C3'       -7.0360   14.2660    5.5000 C.3    48  DA48        0.1558
    955  O3'       -8.3490   14.4800    5.0080 O.3    48  DA48       -0.3138
    956  C2'       -6.6610   12.7990    5.6610 C.3    48  DA48        0.0865
    957  C1'       -5.1420   12.9140    5.7740 C.3    48  DA48        0.2094
    958  N9        -4.7450   13.2320    7.2110 N.ar   48  DA48       -0.2714
    959  C8        -4.5160   14.4520    7.7920 C.ar   48  DA48        0.1815
    960  N7        -4.0260   14.3760    9.0070 N.ar   48  DA48       -0.2193
    961  C5        -3.9260   13.0140    9.2400 C.ar   48  DA48        0.1518
    962  C6        -3.4760   12.2740   10.3480 C.ar   48  DA48        0.1919
    963  N6        -3.0220   12.8310   11.4730 N.pl3  48  DA48       -0.1054
    964  N1        -3.5090   10.9280   10.2570 N.ar   48  DA48       -0.2040
    965  C2        -3.9630   10.3710    9.1280 C.ar   48  DA48        0.2016
    966  N3        -4.4110   10.9590    8.0220 N.ar   48  DA48       -0.2048
    967  C4        -4.3670   12.2960    8.1440 C.ar   48  DA48        0.1691
    968  P         -9.6000   14.7680    6.0340 P.3    49  DT49        0.2141
    969  OP1      -10.7940   15.0770    5.2030 O.2    49  DT49       -0.5172
    970  OP2       -9.3020   15.5830    7.2330 O.3    49  DT49       -0.4373
    971  O5'       -9.6340   13.2360    6.5350 O.3    49  DT49       -0.3114
    972  C5'      -10.4040   12.2200    5.8830 C.3    49  DT49        0.1811
    973  C4'      -10.3010   10.9130    6.6370 C.3    49  DT49        0.1746
    974  O4'       -8.9500   10.7280    7.1060 O.3    49  DT49       -0.3327
    975  C3'      -11.0290   10.8790    7.9590 C.3    49  DT49        0.1558
    976  O3'      -12.4100   10.7350    7.8210 O.3    49  DT49       -0.3138
    977  C2'      -10.3890    9.6850    8.6420 C.3    49  DT49        0.0866
    978  C1'       -8.9450   10.0430    8.3530 C.3    49  DT49        0.2106
    979  N1        -8.1490   10.8840    9.2950 N.ar   49  DT49       -0.2559
    980  C2        -7.6160   10.3000   10.4290 C.ar   49  DT49        0.3545
    981  O2        -7.6550    9.1010   10.6400 O.2    49  DT49       -0.2443
    982  N3        -7.0320   11.1750   11.3130 N.ar   49  DT49       -0.1533
    983  C4        -6.9300   12.5440   11.1800 C.ar   49  DT49        0.2804
    984  O4        -6.3750   13.1980   12.0600 O.2    49  DT49       -0.2654
    985  C5        -7.5080   13.0740    9.9770 C.ar   49  DT49        0.0534
    986  C6        -8.0820   12.2460    9.1010 C.ar   49  DT49        0.0824
    987  C7        -7.4480   14.5540    9.7400 C.3    49  DT49        0.0377
    988  P        -13.2260   11.5360    8.8280 P.3    50  DT50        0.2141
    989  OP1      -14.6340   11.4590    8.3760 O.2    50  DT50       -0.5172
    990  OP2      -12.7650   12.6710    9.6580 O.3    50  DT50       -0.4373
    991  O5'      -12.8830   10.2390    9.7070 O.3    50  DT50       -0.3114
    992  C5'      -13.3670    8.9480    9.3500 C.3    50  DT50        0.1811
    993  C4'      -12.7250    7.8530   10.1710 C.3    50  DT50        0.1746
    994  O4'      -11.2830    8.0120   10.1470 O.3    50  DT50       -0.3327
    995  C3'      -13.0840    7.8100   11.6540 C.3    50  DT50        0.1558
    996  O3'      -14.2990    7.1190   11.9150 O.3    50  DT50       -0.3138
    997  C2'      -11.8680    7.1340   12.2800 C.3    50  DT50        0.0866
    998  C1'      -10.7300    7.6350   11.3910 C.3    50  DT50        0.2106
    999  N1        -9.9730    8.7220   11.9520 N.ar   50  DT50       -0.2559
   1000  C2        -8.9020    8.4200   12.7720 C.ar   50  DT50        0.3545
   1001  O2        -8.5580    7.2780   13.0230 O.2    50  DT50       -0.2443
   1002  N3        -8.2440    9.5080   13.2940 N.ar   50  DT50       -0.1533
   1003  C4        -8.5430   10.8370   13.0820 C.ar   50  DT50        0.2804
   1004  O4        -7.8590   11.7040   13.6190 O.2    50  DT50       -0.2654
   1005  C5        -9.6680   11.0690   12.2200 C.ar   50  DT50        0.0534
   1006  C6       -10.3260   10.0290   11.7000 C.ar   50  DT50        0.0824
   1007  C7       -10.0730   12.4840   11.9280 C.3    50  DT50        0.0377
   1008  P        -15.0990    7.2210   13.3570 P.3    51  DA51        0.2141
   1009  OP1      -16.3570    6.4450   13.3330 O.3    51  DA51       -0.4373
   1010  OP2      -15.1510    8.7070   13.2460 O.2    51  DA51       -0.5172
   1011  O5'      -14.3110    6.8630   14.6930 O.3    51  DA51       -0.3114
   1012  C5'      -14.1570    5.5070   15.1270 C.3    51  DA51        0.1812
   1013  C4'      -13.2270    5.4530   16.3150 C.3    51  DA51        0.1775
   1014  O4'      -11.9100    5.9240   15.9110 O.3    51  DA51       -0.3326
   1015  C3'      -13.5920    6.3650   17.4770 C.3    51  DA51        0.1864
   1016  O3'      -14.5940    5.8070   18.3170 O.3    51  DA51       -0.2133
   1017  C2'      -12.2510    6.5320   18.1770 C.3    51  DA51        0.0894
   1018  C1'      -11.3120    6.6500   16.9770 C.3    51  DA51        0.2095
   1019  N9       -11.1340    8.1020   16.5360 N.ar   51  DA51       -0.2714
   1020  C8       -11.8340    8.8640   15.6380 C.ar   51  DA51        0.1815
   1021  N7       -11.4100   10.1030   15.5510 N.ar   51  DA51       -0.2193
   1022  C5       -10.3590   10.1570   16.4540 C.ar   51  DA51        0.1518
   1023  C6        -9.4890   11.1950   16.8310 C.ar   51  DA51        0.1919
   1024  N6        -9.5450   12.4280   16.3220 N.pl3  51  DA51       -0.1054
   1025  N1        -8.5500   10.9190   17.7610 N.ar   51  DA51       -0.2040
   1026  C2        -8.4940    9.6830   18.2690 C.ar   51  DA51        0.2016
   1027  N3        -9.2540    8.6250   17.9940 N.ar   51  DA51       -0.2048
   1028  C4       -10.1780    8.9330   17.0680 C.ar   51  DA51        0.1691
   1029  P        -15.5910    6.7900   19.2500 P.3    52  DC52        0.3939
   1030  OP1      -15.5470    5.3080   19.2110 O.3    52  DC52       -0.1496
   1031  OP2      -16.8690    7.5000   19.0510 O.3    52  DC52       -0.1425
   1032  O5'      -14.9840    7.2670   20.6680 O.3    52  DC52       -0.2926
   1033  C5'      -14.1520    6.5090   21.4920 C.3    52  DC52        0.1828
   1034  C4'      -12.8400    7.1770   21.9220 C.3    52  DC52        0.1747
   1035  O4'      -12.1300    7.7940   20.8110 O.3    52  DC52       -0.3327
   1036  C3'      -12.7850    8.2800   22.9910 C.3    52  DC52        0.1558
   1037  O3'      -13.1500    7.8310   24.2920 O.3    52  DC52       -0.3138
   1038  C2'      -11.3000    8.6090   22.8850 C.3    52  DC52        0.0866
   1039  C1'      -11.0440    8.5210   21.3790 C.3    52  DC52        0.2106
   1040  N1       -11.1570    9.9250   20.7100 N.ar   52  DC52       -0.2556
   1041  C2       -10.1370   10.8630   20.9060 C.ar   52  DC52        0.3531
   1042  O2        -9.2350   10.6040   21.7200 O.2    52  DC52       -0.2443
   1043  N3       -10.1650   12.0230   20.2070 N.ar   52  DC52       -0.1739
   1044  C4       -11.1550   12.2580   19.3450 C.ar   52  DC52        0.1759
   1045  N4       -11.1400   13.4150   18.6780 N.pl3  52  DC52       -0.1070
   1046  C5       -12.1970   11.3200   19.1320 C.ar   52  DC52        0.0566
   1047  C6       -12.1660   10.1760   19.8250 C.ar   52  DC52        0.0849
   1048  P        -13.6860    8.8710   25.4860 P.3    53  DG53        0.2141
   1049  OP1      -14.1060    8.0790   26.6690 O.3    53  DG53       -0.4373
   1050  OP2      -14.7130    9.5580   24.6570 O.2    53  DG53       -0.5172
   1051  O5'      -12.6070    9.9540   25.9570 O.3    53  DG53       -0.3114
   1052  C5'      -11.6510    9.6440   26.9720 C.3    53  DG53        0.1811
   1053  C4'      -10.6230   10.7540   27.1110 C.3    53  DG53        0.1746
   1054  O4'      -10.0120   11.0160   25.8160 O.3    53  DG53       -0.3327
   1055  C3'      -11.1040   12.1290   27.5490 C.3    53  DG53        0.1558
   1056  O3'      -11.2830   12.2210   28.9610 O.3    53  DG53       -0.3138
   1057  C2'       -9.9520   13.0150   27.0890 C.3    53  DG53        0.0865
   1058  C1'       -9.6040   12.3750   25.7480 C.3    53  DG53        0.2094
   1059  N9       -10.3020   13.0230   24.6400 N.ar   53  DG53       -0.2713
   1060  C8       -11.3220   12.5120   23.8750 C.ar   53  DG53        0.1816
   1061  N7       -11.7360   13.3360   22.9510 N.ar   53  DG53       -0.2173
   1062  C5       -10.9420   14.4570   23.1110 C.ar   53  DG53        0.1748
   1063  C6       -10.9240   15.6840   22.4000 C.ar   53  DG53        0.3023
   1064  O6       -11.6380   16.0300   21.4500 O.2    53  DG53       -0.2633
   1065  N1        -9.9570   16.5570   22.8920 N.ar   53  DG53       -0.1709
   1066  C2        -9.1110   16.2800   23.9390 C.ar   53  DG53        0.2606
   1067  N2        -8.2430   17.2460   24.2680 N.pl3  53  DG53       -0.0859
   1068  N3        -9.1160   15.1450   24.6090 N.ar   53  DG53       -0.1918
   1069  C4       -10.0490   14.2830   24.1500 C.ar   53  DG53        0.1722
   1070  P        -12.4150   13.1680   29.5170 P.3    54  DT54        0.2141
   1071  OP1      -12.9140   13.8590   30.7380 O.3    54  DT54       -0.4373
   1072  OP2      -13.3170   12.9810   28.3520 O.2    54  DT54       -0.5172
   1073  O5'      -11.0990   13.9010   28.9880 O.3    54  DT54       -0.3114
   1074  C5'       -9.9480   14.0910   29.8520 C.3    54  DT54        0.1811
   1075  C4'       -9.5540   15.5510   29.8790 C.3    54  DT54        0.1746
   1076  O4'       -9.0110   15.9380   28.6000 O.3    54  DT54       -0.3327
   1077  C3'      -10.7200   16.4850   30.1540 C.3    54  DT54        0.1558
   1078  O3'      -10.7330   16.7660   31.5420 O.3    54  DT54       -0.3138
   1079  C2'      -10.3900   17.7370   29.3610 C.3    54  DT54        0.0866
   1080  C1'       -9.5510   17.1800   28.2070 C.3    54  DT54        0.2106
   1081  N1       -10.2740   17.0640   27.0380 N.ar   54  DT54       -0.2559
   1082  C2       -10.2810   18.0970   26.1200 C.ar   54  DT54        0.3545
   1083  O2        -9.4880   19.0210   26.1530 O.2    54  DT54       -0.2443
   1084  N3       -11.2570   18.0110   25.1570 N.ar   54  DT54       -0.1533
   1085  C4       -12.2050   17.0180   25.0230 C.ar   54  DT54        0.2804
   1086  O4       -13.0180   17.0780   24.1030 O.2    54  DT54       -0.2654
   1087  C5       -12.1330   15.9820   26.0140 C.ar   54  DT54        0.0534
   1088  C6       -11.1930   16.0410   26.9620 C.ar   54  DT54        0.0824
   1089  C7       -13.1230   14.8560   25.9540 C.3    54  DT54        0.0377
   1090  P        -11.8000   17.7860   32.1850 P.3    55  DC55        0.2141
   1091  OP1      -11.8580   17.7620   33.6650 O.3    55  DC55       -0.4373
   1092  OP2      -12.9370   17.2420   31.4060 O.2    55  DC55       -0.5172
   1093  O5'      -11.5550   19.2970   31.7080 O.3    55  DC55       -0.3114
   1094  C5'      -10.5210   20.0680   32.3200 C.3    55  DC55        0.1811
   1095  C4'       -9.8830   21.0350   31.3410 C.3    55  DC55        0.1746
   1096  O4'       -9.6460   20.3940   30.0660 O.3    55  DC55       -0.3327
   1097  C3'      -10.7590   22.2150   30.9660 C.3    55  DC55        0.1558
   1098  O3'      -10.7390   23.2220   31.9650 O.3    55  DC55       -0.3138
   1099  C2'      -10.1420   22.6760   29.6440 C.3    55  DC55        0.0866
   1100  C1'       -9.7710   21.3400   29.0140 C.3    55  DC55        0.2106
   1101  N1       -10.8080   20.9580   28.1120 N.ar   55  DC55       -0.2556
   1102  C2       -10.8580   21.5840   26.8610 C.ar   55  DC55        0.3531
   1103  O2        -9.9590   22.3870   26.5580 O.2    55  DC55       -0.2443
   1104  N3       -11.8820   21.3000   26.0220 N.ar   55  DC55       -0.1739
   1105  C4       -12.8260   20.4320   26.3900 C.ar   55  DC55        0.1759
   1106  N4       -13.8160   20.1830   25.5300 N.pl3  55  DC55       -0.1070
   1107  C5       -12.7930   19.7870   27.6530 C.ar   55  DC55        0.0566
   1108  C6       -11.7800   20.0710   28.4790 C.ar   55  DC55        0.0849
   1109  P        -11.9500   24.1910   32.0100 P.3    56  DT56        0.2141
   1110  OP1      -11.8160   25.0650   33.1940 O.3    56  DT56       -0.4373
   1111  OP2      -13.1010   23.2570   31.9230 O.2    56  DT56       -0.5172
   1112  O5'      -11.9640   25.1250   30.7170 O.3    56  DT56       -0.3114
   1113  C5'      -10.8800   26.0340   30.4550 C.3    56  DT56        0.1811
   1114  C4'      -11.1080   26.7640   29.1540 C.3    56  DT56        0.1746
   1115  O4'      -11.0920   25.8170   28.0530 O.3    56  DT56       -0.3327
   1116  C3'      -12.4500   27.4610   29.0130 C.3    56  DT56        0.1558
   1117  O3'      -12.4660   28.7340   29.6420 O.3    56  DT56       -0.3138
   1118  C2'      -12.5910   27.5820   27.5060 C.3    56  DT56        0.0866
   1119  C1'      -11.9910   26.2510   27.0450 C.3    56  DT56        0.2106
   1120  N1       -13.0110   25.2320   26.8590 N.ar   56  DT56       -0.2559
   1121  C2       -13.6810   25.1470   25.6530 C.ar   56  DT56        0.3545
   1122  O2       -13.4660   25.8980   24.7190 O.2    56  DT56       -0.2443
   1123  N3       -14.6200   24.1460   25.5800 N.ar   56  DT56       -0.1533
   1124  C4       -14.9480   23.2420   26.5690 C.ar   56  DT56        0.2804
   1125  O4       -15.8140   22.3980   26.3540 O.2    56  DT56       -0.2654
   1126  C5       -14.2090   23.3960   27.7910 C.ar   56  DT56        0.0534
   1127  C6       -13.2910   24.3610   27.8890 C.ar   56  DT56        0.0824
   1128  C7       -14.4940   22.4600   28.9280 C.3    56  DT56        0.0377
   1129  P        -13.9030   29.4810   29.9500 P.3    57  DG57        0.2141
   1130  OP1      -13.8440   30.8460   30.5410 O.3    57  DG57       -0.4373
   1131  OP2      -14.9250   28.5040   30.4380 O.2    57  DG57       -0.5172
   1132  O5'      -14.0960   29.6320   28.3690 O.3    57  DG57       -0.3114
   1133  C5'      -13.2470   30.4830   27.5970 C.3    57  DG57        0.1811
   1134  C4'      -13.7570   30.5930   26.1760 C.3    57  DG57        0.1746
   1135  O4'      -13.7740   29.2760   25.5600 O.3    57  DG57       -0.3327
   1136  C3'      -15.1940   31.0720   26.0480 C.3    57  DG57        0.1558
   1137  O3'      -15.2540   32.4980   26.0850 O.3    57  DG57       -0.3138
   1138  C2'      -15.6110   30.5140   24.6910 C.3    57  DG57        0.0865
   1139  C1'      -14.8780   29.1740   24.6690 C.3    57  DG57        0.2094
   1140  N9       -15.6790   28.0390   25.1030 N.ar   57  DG57       -0.2713
   1141  C8       -15.8400   27.5110   26.3610 C.ar   57  DG57        0.1816
   1142  N7       -16.7770   26.6040   26.4230 N.ar   57  DG57       -0.2173
   1143  C5       -17.2640   26.5250   25.1320 C.ar   57  DG57        0.1748
   1144  C6       -18.2910   25.7160   24.5800 C.ar   57  DG57        0.3023
   1145  O6       -18.9970   24.8780   25.1540 O.2    57  DG57       -0.2633
   1146  N1       -18.4660   25.9540   23.2200 N.ar   57  DG57       -0.1709
   1147  C2       -17.7420   26.8580   22.4810 C.ar   57  DG57        0.2606
   1148  N2       -18.0550   26.9460   21.1820 N.pl3  57  DG57       -0.0859
   1149  N3       -16.7850   27.6170   22.9800 N.ar   57  DG57       -0.1918
   1150  C4       -16.5980   27.4040   24.3000 C.ar   57  DG57        0.1722
   1151  P        -16.6490   33.2700   26.2620 P.3    58  DC58        0.2141
   1152  OP1      -16.4450   34.7450   26.3170 O.2    58  DC58       -0.5172
   1153  OP2      -17.3130   32.5730   27.4030 O.3    58  DC58       -0.4373
   1154  O5'      -17.4870   32.9700   24.9450 O.3    58  DC58       -0.3114
   1155  C5'      -18.8060   33.4420   24.8570 C.3    58  DC58        0.1812
   1156  C4'      -19.5100   32.8500   23.6800 C.3    58  DC58        0.1775
   1157  O4'      -19.0550   31.5050   23.4290 O.3    58  DC58       -0.3326
   1158  C3'      -20.9810   32.7030   23.9870 C.3    58  DC58        0.1859
   1159  O3'      -21.6470   33.9210   23.8130 O.3    58  DC58       -0.2202
   1160  C2'      -21.4090   31.5710   23.0870 C.3    58  DC58        0.0895
   1161  C1'      -20.1680   30.6740   23.1430 C.3    58  DC58        0.2107
   1162  N1       -20.2470   29.6310   24.1830 N.ar   58  DC58       -0.2556
   1163  C2       -21.1750   28.6070   23.9630 C.ar   58  DC58        0.3531
   1164  O2       -21.8020   28.5880   22.8900 O.2    58  DC58       -0.2443
   1165  N3       -21.3630   27.6700   24.9240 N.ar   58  DC58       -0.1739
   1166  C4       -20.6690   27.7320   26.0600 C.ar   58  DC58        0.1759
   1167  N4       -20.8880   26.7870   26.9780 N.pl3  58  DC58       -0.1070
   1168  C5       -19.7240   28.7620   26.3020 C.ar   58  DC58        0.0566
   1169  C6       -19.5410   29.6840   25.3510 C.ar   58  DC58        0.0849
   1170  P        -22.3450   34.8150   25.2740 P.3    59  DA59        0.4149
   1171  OP1      -22.4430   36.1620   24.6400 O.3    59  DA59       -0.1481
   1172  OP2      -23.0000   34.5720   26.5870 O.2    59  DA59       -0.2668
   1173  O5'      -22.8960   33.7370   24.2360 O.3    59  DA59       -0.2177
   1174  C5'      -23.9760   34.0730   23.3240 C.3    59  DA59        0.2140
   1175  C4'      -25.1890   33.2130   23.5990 C.3    59  DA59        0.1776
   1176  O4'      -24.8050   31.8290   23.4280 O.3    59  DA59       -0.3326
   1177  C3'      -25.7650   33.2880   25.0100 C.3    59  DA59        0.1559
   1178  O3'      -26.7190   34.3480   25.1510 O.3    59  DA59       -0.3138
   1179  C2'      -26.4250   31.9230   25.1790 C.3    59  DA59        0.0865
   1180  C1'      -25.5060   31.0210   24.3530 C.3    59  DA59        0.2094
   1181  N9       -24.5580   30.3200   25.1060 N.ar   59  DA59       -0.2714
   1182  C8       -23.4080   30.7880   25.6850 C.ar   59  DA59        0.1815
   1183  N7       -22.9480   30.0200   26.6450 N.ar   59  DA59       -0.2193
   1184  C5       -23.8600   28.9780   26.7000 C.ar   59  DA59        0.1518
   1185  C6       -23.9380   27.8320   27.5110 C.ar   59  DA59        0.1919
   1186  N6       -23.0470   27.5350   28.4600 N.pl3  59  DA59       -0.1054
   1187  N1       -24.9760   26.9920   27.3100 N.ar   59  DA59       -0.2040
   1188  C2       -25.8680   27.2900   26.3580 C.ar   59  DA59        0.2016
   1189  N3       -25.9010   28.3340   25.5340 N.ar   59  DA59       -0.2048
   1190  C4       -24.8570   29.1490   25.7590 C.ar   59  DA59        0.1691
   1191  P        -27.3300   34.7210   26.5710 P.3    60  DC60        0.2141
   1192  OP1      -28.5270   35.5810   26.3780 O.2    60  DC60       -0.5172
   1193  OP2      -26.3220   35.0870   27.6020 O.3    60  DC60       -0.4373
   1194  O5'      -27.8310   33.2450   26.8880 O.3    60  DC60       -0.3114
   1195  C5'      -28.8470   32.6350   26.1020 C.3    60  DC60        0.1811
   1196  C4'      -29.3680   31.4140   26.8080 C.3    60  DC60        0.1746
   1197  O4'      -28.3820   30.3430   26.7490 O.3    60  DC60       -0.3327
   1198  C3'      -29.5760   31.6300   28.2920 C.3    60  DC60        0.1558
   1199  O3'      -30.7960   32.3000   28.5650 O.3    60  DC60       -0.3138
   1200  C2'      -29.5180   30.2050   28.8210 C.3    60  DC60        0.0866
   1201  C1'      -28.3700   29.6350   27.9830 C.3    60  DC60        0.2106
   1202  N1       -27.0980   29.7540   28.6570 N.ar   60  DC60       -0.2556
   1203  C2       -26.6370   28.6710   29.4150 C.ar   60  DC60        0.3531
   1204  O2       -27.2950   27.6170   29.4140 O.2    60  DC60       -0.2443
   1205  N3       -25.4910   28.8040   30.1240 N.ar   60  DC60       -0.1739
   1206  C4       -24.8180   29.9550   30.0960 C.ar   60  DC60        0.1759
   1207  N4       -23.6930   30.0390   30.8110 N.pl3  60  DC60       -0.1070
   1208  C5       -25.2690   31.0640   29.3340 C.ar   60  DC60        0.0566
   1209  C6       -26.4010   30.9280   28.6350 C.ar   60  DC60        0.0849
   1210  P        -31.1370   33.2270   30.1000 P.3    61  DA61        0.2141
   1211  OP1      -31.2230   34.7090   30.0990 O.2    61  DA61       -0.5172
   1212  OP2      -29.9340   32.5540   30.6420 O.3    61  DA61       -0.4373
   1213  O5'      -32.4340   32.7020   30.8560 O.3    61  DA61       -0.3114
   1214  C5'      -32.3480   31.9750   32.0760 C.3    61  DA61        0.1811
   1215  C4'      -33.1500   30.7060   31.9620 C.3    61  DA61        0.1746
   1216  O4'      -34.4270   31.0300   31.3500 O.3    61  DA61       -0.3327
   1217  C3'      -32.5130   29.6660   31.0560 C.3    61  DA61        0.1558
   1218  O3'      -31.6990   28.8050   31.8550 O.3    61  DA61       -0.3138
   1219  C2'      -33.7150   28.9340   30.4700 C.3    61  DA61        0.0865
   1220  C1'      -34.7570   30.0530   30.3860 C.3    61  DA61        0.2094
   1221  N9       -34.8360   30.7350   29.1130 N.ar   61  DA61       -0.2714
   1222  C8       -34.3400   31.9400   28.6890 C.ar   61  DA61        0.1815
   1223  N7       -34.4610   32.1380   27.3980 N.ar   61  DA61       -0.2193
   1224  C5       -35.0780   30.9830   26.9420 C.ar   61  DA61        0.1518
   1225  C6       -35.4840   30.5700   25.6600 C.ar   61  DA61        0.1919
   1226  N6       -35.3210   31.3080   24.5600 N.pl3  61  DA61       -0.1054
   1227  N1       -36.0690   29.3590   25.5490 N.ar   61  DA61       -0.2040
   1228  C2       -36.2320   28.6200   26.6530 C.ar   61  DA61        0.2016
   1229  N3       -35.8940   28.9000   27.9090 N.ar   61  DA61       -0.2048
   1230  C4       -35.3140   30.1100   27.9860 C.ar   61  DA61        0.1691
   1231  P        -30.3070   27.9150   31.0780 P.3    62  DT62        0.2141
   1232  OP1      -29.7450   27.1510   32.2120 O.3    62  DT62       -0.4373
   1233  OP2      -29.4360   28.8310   30.3100 O.2    62  DT62       -0.5172
   1234  O5'      -30.9650   26.8450   30.0930 O.3    62  DT62       -0.3114
   1235  C5'      -31.3670   25.6000   30.6330 C.3    62  DT62        0.1811
   1236  C4'      -32.2570   24.8730   29.6510 C.3    62  DT62        0.1746
   1237  O4'      -33.1970   25.7990   29.0490 O.3    62  DT62       -0.3327
   1238  C3'      -31.5400   24.3020   28.4410 C.3    62  DT62        0.1558
   1239  O3'      -30.8440   23.1170   28.7760 O.3    62  DT62       -0.3138
   1240  C2'      -32.7390   24.0510   27.5340 C.3    62  DT62        0.0866
   1241  C1'      -33.4650   25.3770   27.7190 C.3    62  DT62        0.2106
   1242  N1       -33.0000   26.3990   26.7770 N.ar   62  DT62       -0.2559
   1243  C2       -33.5180   26.4490   25.4960 C.ar   62  DT62        0.3545
   1244  O2       -34.3160   25.6330   25.0700 O.2    62  DT62       -0.2443
   1245  N3       -33.0650   27.4930   24.7270 N.ar   62  DT62       -0.1533
   1246  C4       -32.1670   28.4710   25.1000 C.ar   62  DT62        0.2804
   1247  O4       -31.8570   29.3470   24.2970 O.2    62  DT62       -0.2654
   1248  C5       -31.6740   28.3500   26.4440 C.ar   62  DT62        0.0534
   1249  C6       -32.0980   27.3440   27.2140 C.ar   62  DT62        0.0824
   1250  C7       -30.6910   29.3660   26.9450 C.3    62  DT62        0.0377
   1251  P        -29.6260   22.9020   28.1320 P.3    63  DA63        0.2141
   1252  OP1      -28.8350   22.0960   29.0890 O.3    63  DA63       -0.4373
   1253  OP2      -29.2380   24.2920   27.8010 O.2    63  DA63       -0.5172
   1254  O5'      -29.6110   22.1470   26.7240 O.3    63  DA63       -0.3114
   1255  C5'      -30.1250   20.8340   26.6240 C.3    63  DA63        0.1811
   1256  C4'      -30.4890   20.5260   25.1980 C.3    63  DA63        0.1746
   1257  O4'      -31.5850   21.3700   24.7590 O.3    63  DA63       -0.3327
   1258  C3'      -29.4080   20.8190   24.1790 C.3    63  DA63        0.1558
   1259  O3'      -28.3740   19.8540   24.1720 O.3    63  DA63       -0.3138
   1260  C2'      -30.2060   20.8920   22.8850 C.3    63  DA63        0.0865
   1261  C1'      -31.4600   21.6170   23.3730 C.3    63  DA63        0.2094
   1262  N9       -31.2780   23.0750   23.0680 N.ar   63  DA63       -0.2714
   1263  C8       -31.1710   24.0710   24.0040 C.ar   63  DA63        0.1815
   1264  N7       -31.1920   25.2800   23.4950 N.ar   63  DA63       -0.2193
   1265  C5       -31.3220   25.0640   22.1320 C.ar   63  DA63        0.1518
   1266  C6       -31.4040   25.9440   21.0390 C.ar   63  DA63        0.1919
   1267  N6       -31.3680   27.2730   21.1550 N.pl3  63  DA63       -0.1054
   1268  N1       -31.5270   25.4030   19.8080 N.ar   63  DA63       -0.2040
   1269  C2       -31.5640   24.0700   19.6920 C.ar   63  DA63        0.2016
   1270  N3       -31.4970   23.1420   20.6440 N.ar   63  DA63       -0.2048
   1271  C4       -31.3740   23.7110   21.8540 C.ar   63  DA63        0.1691
   1272  P        -27.1340   20.3740   24.2430 P.3    64  DC64        0.2141
   1273  OP1      -26.1380   19.3710   24.6760 O.2    64  DC64       -0.5172
   1274  OP2      -27.0980   21.7530   24.7790 O.3    64  DC64       -0.4373
   1275  O5'      -27.0390   20.5210   22.6570 O.3    64  DC64       -0.3114
   1276  C5'      -27.1090   19.4220   21.7340 C.3    64  DC64        0.1811
   1277  C4'      -27.0900   19.9590   20.3060 C.3    64  DC64        0.1746
   1278  O4'      -28.0820   21.0080   20.0940 O.3    64  DC64       -0.3327
   1279  C3'      -25.7680   20.6230   19.9700 C.3    64  DC64        0.1558
   1280  O3'      -25.5130   20.4790   18.5910 O.3    64  DC64       -0.3138
   1281  C2'      -26.0590   22.0670   20.3710 C.3    64  DC64        0.0866
   1282  C1'      -27.4180   22.2050   19.7090 C.3    64  DC64        0.2106
   1283  N1       -27.9980   23.3910   20.3520 N.ar   64  DC64       -0.2556
   1284  C2       -28.4070   24.5450   19.6740 C.ar   64  DC64        0.3531
   1285  O2       -28.7220   24.4540   18.4760 O.2    64  DC64       -0.2443
   1286  N3       -28.4450   25.7230   20.3420 N.ar   64  DC64       -0.1739
   1287  C4       -28.0960   25.7720   21.6280 C.ar   64  DC64        0.1759
   1288  N4       -28.1500   26.9550   22.2450 N.pl3  64  DC64       -0.1070
   1289  C5       -27.6790   24.6140   22.3330 C.ar   64  DC64        0.0566
   1290  C6       -27.6420   23.4530   21.6700 C.ar   64  DC64        0.0849
   1291  P        -23.8530   19.7580   18.2850 P.3    65  DC65        0.2141
   1292  OP1      -24.0170   18.6990   17.2490 O.2    65  DC65       -0.5172
   1293  OP2      -23.5300   19.3760   19.6820 O.3    65  DC65       -0.4373
   1294  O5'      -22.7660   20.7930   17.7610 O.3    65  DC65       -0.3114
   1295  C5'      -22.8770   21.3410   16.4550 C.3    65  DC65        0.1811
   1296  C4'      -22.2660   22.7060   16.4250 C.3    65  DC65        0.1746
   1297  O4'      -22.7980   23.4290   17.5440 O.3    65  DC65       -0.3327
   1298  C3'      -20.7580   22.7400   16.5930 C.3    65  DC65        0.1558
   1299  O3'      -20.2280   22.7910   15.2790 O.3    65  DC65       -0.3138
   1300  C2'      -20.5090   24.0790   17.2730 C.3    65  DC65        0.0866
   1301  C1'      -21.8070   24.2800   18.0690 C.3    65  DC65        0.2106
   1302  N1       -21.7440   24.0380   19.5090 N.ar   65  DC65       -0.2556
   1303  C2       -20.9640   24.8220   20.3670 C.ar   65  DC65        0.3531
   1304  O2       -20.3190   25.7710   19.8890 O.2    65  DC65       -0.2443
   1305  N3       -20.9340   24.5250   21.6880 N.ar   65  DC65       -0.1739
   1306  C4       -21.6420   23.4970   22.1570 C.ar   65  DC65        0.1759
   1307  N4       -21.5820   23.2420   23.4660 N.pl3  65  DC65       -0.1070
   1308  C5       -22.4390   22.6900   21.3040 C.ar   65  DC65        0.0566
   1309  C6       -22.4650   22.9870   20.0000 C.ar   65  DC65        0.0849
   1310  P        -18.5270   22.6400   15.0000 P.3    66  DA66        0.2141
   1311  OP1      -18.0420   22.4990   13.6050 O.2    66  DA66       -0.5172
   1312  OP2      -18.5520   21.4740   15.9150 O.3    66  DA66       -0.4373
   1313  O5'      -17.6260   23.7100   15.7860 O.3    66  DA66       -0.3114
   1314  C5'      -17.1810   24.9130   15.1700 C.3    66  DA66        0.1812
   1315  C4'      -16.5030   25.8480   16.1470 C.3    66  DA66        0.1775
   1316  O4'      -17.3080   25.9700   17.3490 O.3    66  DA66       -0.3326
   1317  C3'      -15.1360   25.4250   16.6720 C.3    66  DA66        0.1859
   1318  O3'      -14.0680   25.6880   15.7820 O.3    66  DA66       -0.2202
   1319  C2'      -15.0260   26.2090   17.9700 C.3    66  DA66        0.0894
   1320  C1'      -16.4690   26.1410   18.4740 C.3    66  DA66        0.2095
   1321  N9       -16.5890   24.9570   19.4040 N.ar   66  DA66       -0.2714
   1322  C8       -17.3180   23.8230   19.1580 C.ar   66  DA66        0.1815
   1323  N7       -17.3990   23.0130   20.1880 N.ar   66  DA66       -0.2193
   1324  C5       -16.6720   23.6590   21.1750 C.ar   66  DA66        0.1518
   1325  C6       -16.3770   23.3190   22.5070 C.ar   66  DA66        0.1919
   1326  N6       -16.7990   22.1960   23.0950 N.pl3  66  DA66       -0.1054
   1327  N1       -15.6250   24.1830   23.2230 N.ar   66  DA66       -0.2040
   1328  C2       -15.2050   25.3080   22.6330 C.ar   66  DA66        0.2016
   1329  N3       -15.4170   25.7370   21.3920 N.ar   66  DA66       -0.2048
   1330  C4       -16.1660   24.8560   20.7070 C.ar   66  DA66        0.1691
   1331  P        -13.2030   24.4100   15.2750 P.3    67  DG67        0.4149
   1332  OP1      -12.7180   24.5120   13.8770 O.3    67  DG67       -0.1481
   1333  OP2      -12.7930   23.2500   16.0680 O.2    67  DG67       -0.2668
   1334  O5'      -12.7800   25.7700   15.9910 O.3    67  DG67       -0.2177
   1335  C5'      -11.4150   25.9170   16.3030 C.3    67  DG67        0.2140
   1336  C4'      -11.1810   26.2250   17.7700 C.3    67  DG67        0.1776
   1337  O4'      -12.3440   25.9210   18.5650 O.3    67  DG67       -0.3326
   1338  C3'      -10.1030   25.3600   18.4110 C.3    67  DG67        0.1559
   1339  O3'       -8.7670   25.6590   17.9650 O.3    67  DG67       -0.3138
   1340  C2'      -10.4040   25.6680   19.8650 C.3    67  DG67        0.0865
   1341  C1'      -11.9170   25.6470   19.8950 C.3    67  DG67        0.2094
   1342  N9       -12.2880   24.3660   20.2200 N.ar   67  DG67       -0.2713
   1343  C8       -13.0270   23.5870   19.3640 C.ar   67  DG67        0.1816
   1344  N7       -13.4420   22.4750   19.9060 N.ar   67  DG67       -0.2173
   1345  C5       -12.9520   22.5200   21.1980 C.ar   67  DG67        0.1748
   1346  C6       -13.0740   21.5920   22.2650 C.ar   67  DG67        0.3023
   1347  O6       -13.6680   20.5060   22.2710 O.2    67  DG67       -0.2633
   1348  N1       -12.4190   22.0290   23.4120 N.ar   67  DG67       -0.1709
   1349  C2       -11.7310   23.2140   23.5190 C.ar   67  DG67        0.2606
   1350  N2       -11.1650   23.4630   24.7080 N.pl3  67  DG67       -0.0859
   1351  N3       -11.6070   24.0850   22.5370 N.ar   67  DG67       -0.1918
   1352  C4       -12.2350   23.6810   21.4120 C.ar   67  DG67        0.1722
   1353  P         -7.8350   24.3550   17.6510 P.3    68  DC68        0.2141
   1354  OP1       -6.5740   24.9760   17.2080 O.3    68  DC68       -0.4373
   1355  OP2       -8.1570   22.9900   17.1830 O.2    68  DC68       -0.5172
   1356  O5'       -7.8850   24.3910   19.2340 O.3    68  DC68       -0.3114
   1357  C5'       -6.8850   24.9620   19.9880 C.3    68  DC68        0.1811
   1358  C4'       -6.6740   24.0500   21.1480 C.3    68  DC68        0.1746
   1359  O4'       -7.9410   23.5850   21.6540 O.3    68  DC68       -0.3327
   1360  C3'       -6.0090   22.7570   20.7870 C.3    68  DC68        0.1558
   1361  O3'       -4.6290   22.9660   20.5160 O.3    68  DC68       -0.3138
   1362  C2'       -6.3030   21.9380   22.0390 C.3    68  DC68        0.0866
   1363  C1'       -7.7400   22.3390   22.2960 C.3    68  DC68        0.2106
   1364  N1        -8.6610   21.4130   21.7580 N.ar   68  DC68       -0.2556
   1365  C2        -8.9190   20.2170   22.4370 C.ar   68  DC68        0.3531
   1366  O2        -8.3250   19.9970   23.5070 O.2    68  DC68       -0.2443
   1367  N3        -9.8030   19.3370   21.9100 N.ar   68  DC68       -0.1739
   1368  C4       -10.4160   19.6150   20.7590 C.ar   68  DC68        0.1759
   1369  N4       -11.2800   18.7170   20.2780 N.pl3  68  DC68       -0.1070
   1370  C5       -10.1690   20.8210   20.0550 C.ar   68  DC68        0.0566
   1371  C6        -9.2950   21.6880   20.5790 C.ar   68  DC68        0.0849
   1372  P         -3.8760   21.8640   19.9000 P.3    69  DT69        0.2141
   1373  OP1       -2.4620   22.3090   19.6960 O.3    69  DT69       -0.4373
   1374  OP2       -4.7590   21.6180   18.7360 O.2    69  DT69       -0.5172
   1375  O5'       -3.8700   20.5400   20.8010 O.3    69  DT69       -0.3114
   1376  C5'       -2.7150   20.2310   21.5800 C.3    69  DT69        0.1811
   1377  C4'       -2.9270   18.9760   22.3890 C.3    69  DT69        0.1746
   1378  O4'       -4.3460   18.8450   22.6610 O.3    69  DT69       -0.3327
   1379  C3'       -2.6250   17.6750   21.6710 C.3    69  DT69        0.1558
   1380  O3'       -1.2430   17.4150   21.5520 O.3    69  DT69       -0.3138
   1381  C2'       -3.3360   16.7140   22.6100 C.3    69  DT69        0.0866
   1382  C1'       -4.6750   17.4670   22.7650 C.3    69  DT69        0.2106
   1383  N1        -5.7490   17.1340   21.7490 N.ar   69  DT69       -0.2559
   1384  C2        -6.2960   15.8650   21.7580 C.ar   69  DT69        0.3545
   1385  O2        -5.9520   15.0000   22.5440 O.2    69  DT69       -0.2443
   1386  N3        -7.2650   15.6430   20.8100 N.ar   69  DT69       -0.1533
   1387  C4        -7.7310   16.5420   19.8730 C.ar   69  DT69        0.2804
   1388  O4        -8.6080   16.1950   19.0860 O.2    69  DT69       -0.2654
   1389  C5        -7.1130   17.8370   19.9270 C.ar   69  DT69        0.0534
   1390  C6        -6.1690   18.0800   20.8390 C.ar   69  DT69        0.0824
   1391  C7        -7.5520   18.8850   18.9480 C.3    69  DT69        0.0377
   1392  P         -0.8710   16.9290   20.2830 P.3    70  DT70        0.2141
   1393  OP1        0.6140   16.9040   20.3190 O.3    70  DT70       -0.4373
   1394  OP2       -1.5720   17.2680   19.0160 O.2    70  DT70       -0.5172
   1395  O5'       -1.4190   15.5080   20.7590 O.3    70  DT70       -0.3114
   1396  C5'       -0.9920   14.9190   21.9890 C.3    70  DT70        0.1811
   1397  C4'       -1.5530   13.5180   22.1230 C.3    70  DT70        0.1746
   1398  O4'       -3.0030   13.5720   22.0690 O.3    70  DT70       -0.3327
   1399  C3'       -1.1730   12.5430   21.0170 C.3    70  DT70        0.1558
   1400  O3'        0.0720   11.9160   21.3010 O.3    70  DT70       -0.3138
   1401  C2'       -2.3040   11.5220   21.0580 C.3    70  DT70        0.0866
   1402  C1'       -3.4980   12.3910   21.4560 C.3    70  DT70        0.2106
   1403  N1        -4.2660   12.8400   20.3110 N.ar   70  DT70       -0.2559
   1404  C2        -5.2440   11.9910   19.8290 C.ar   70  DT70        0.3545
   1405  O2        -5.5580   10.9550   20.3870 O.2    70  DT70       -0.2443
   1406  N3        -5.8450   12.4000   18.6640 N.ar   70  DT70       -0.1533
   1407  C4        -5.5720   13.5470   17.9480 C.ar   70  DT70        0.2804
   1408  O4        -6.1980   13.7800   16.9160 O.2    70  DT70       -0.2654
   1409  C5        -4.5440   14.3750   18.5120 C.ar   70  DT70        0.0534
   1410  C6        -3.9430   14.0010   19.6440 C.ar   70  DT70        0.0824
   1411  C7        -4.1740   15.6460   17.8060 C.3    70  DT70        0.0377
   1412  P          0.7350   10.7190   20.1250 P.3    71  DA71        0.2141
   1413  OP1        1.9820   10.2640   20.7800 O.3    71  DA71       -0.4373
   1414  OP2        0.7100   12.0170   19.4130 O.2    71  DA71       -0.5172
   1415  O5'        0.2450    9.5650   19.1300 O.3    71  DA71       -0.3114
   1416  C5'        0.4800    8.2070   19.4930 C.3    71  DA71        0.1811
   1417  C4'       -0.7160    7.3240   19.1880 C.3    71  DA71        0.1746
   1418  O4'       -1.9620    8.0450   19.3570 O.3    71  DA71       -0.3327
   1419  C3'       -0.7970    6.8430   17.7520 C.3    71  DA71        0.1558
   1420  O3'        0.1310    5.7950   17.5370 O.3    71  DA71       -0.3138
   1421  C2'       -2.2500    6.3890   17.6970 C.3    71  DA71        0.0865
   1422  C1'       -2.9100    7.5570   18.4220 C.3    71  DA71        0.2094
   1423  N9        -3.2720    8.7300   17.4010 N.ar   71  DA71       -0.2714
   1424  C8        -2.9210   10.0050   17.7620 C.ar   71  DA71        0.1815
   1425  N7        -3.5450   10.9380   17.0830 N.ar   71  DA71       -0.2193
   1426  C5        -4.3620   10.2270   16.2170 C.ar   71  DA71        0.1518
   1427  C6        -5.2790   10.6360   15.2330 C.ar   71  DA71        0.1919
   1428  N6        -5.5350   11.9140   14.9460 N.pl3  71  DA71       -0.1054
   1429  N1        -5.9300    9.6740   14.5450 N.ar   71  DA71       -0.2040
   1430  C2        -5.6730    8.3930   14.8340 C.ar   71  DA71        0.2016
   1431  N3        -4.8360    7.8860   15.7360 N.ar   71  DA71       -0.2048
   1432  C4        -4.2040    8.8670   16.4010 C.ar   71  DA71        0.1691
   1433  P          1.2750    6.0370   16.6320 P.3    72  DT72        0.2141
   1434  OP1        2.3680    5.0500   16.7880 O.3    72  DT72       -0.4373
   1435  OP2        1.6070    7.4410   16.3110 O.2    72  DT72       -0.5172
   1436  O5'        0.2520    5.4940   15.5430 O.3    72  DT72       -0.3114
   1437  C5'       -0.5290    4.3160   15.8150 C.3    72  DT72        0.1811
   1438  C4'       -1.5900    4.1370   14.7610 C.3    72  DT72        0.1746
   1439  O4'       -2.5170    5.2460   14.8050 O.3    72  DT72       -0.3327
   1440  C3'       -1.0720    4.1070   13.3360 C.3    72  DT72        0.1558
   1441  O3'       -0.6960    2.7730   13.0050 O.3    72  DT72       -0.3138
   1442  C2'       -2.2730    4.5800   12.5310 C.3    72  DT72        0.0866
   1443  C1'       -2.9240    5.5740   13.4920 C.3    72  DT72        0.2106
   1444  N1        -2.5330    7.0290   13.4070 N.ar   72  DT72       -0.2559
   1445  C2        -3.1350    7.8260   12.4520 C.ar   72  DT72        0.3545
   1446  O2        -4.0450    7.4380   11.7400 O.2    72  DT72       -0.2443
   1447  N3        -2.6310    9.1010   12.3570 N.ar   72  DT72       -0.1533
   1448  C4        -1.6090    9.6470   13.1050 C.ar   72  DT72        0.2804
   1449  O4        -1.2670   10.8100   12.9050 O.2    72  DT72       -0.2654
   1450  C5        -1.0350    8.7560   14.0750 C.ar   72  DT72        0.0534
   1451  C6        -1.5050    7.5120   14.1880 C.ar   72  DT72        0.0824
   1452  C7         0.0850    9.2560   14.9390 C.3    72  DT72        0.0377
   1453  P          0.5050    2.4080   11.6860 P.3    73  DT73        0.2141
   1454  OP1        1.7550    1.6030   11.5550 O.3    73  DT73       -0.4373
   1455  OP2        0.5460    3.8840   11.4760 O.2    73  DT73       -0.5172
   1456  O5'       -0.5870    1.8270   10.6880 O.3    73  DT73       -0.3114
   1457  C5'       -0.3920    1.9450    9.3090 C.3    73  DT73        0.1811
   1458  C4'       -1.4980    2.7410    8.6730 C.3    73  DT73        0.1746
   1459  O4'       -1.9320    3.8810    9.4600 O.3    73  DT73       -0.3327
   1460  C3'       -0.9980    3.3940    7.4160 C.3    73  DT73        0.1558
   1461  O3'       -0.9520    2.4770    6.3850 O.3    73  DT73       -0.3138
   1462  C2'       -1.9970    4.4980    7.1600 C.3    73  DT73        0.0866
   1463  C1'       -2.3400    4.9310    8.5820 C.3    73  DT73        0.2106
   1464  N1        -1.7100    6.2030    8.9090 N.ar   73  DT73       -0.2559
   1465  C2        -2.2390    7.4170    8.5130 C.ar   73  DT73        0.3545
   1466  O2        -3.1450    7.5130    7.7040 O.2    73  DT73       -0.2443
   1467  N3        -1.6670    8.5200    9.0990 N.ar   73  DT73       -0.1533
   1468  C4        -0.6410    8.5310   10.0220 C.ar   73  DT73        0.2804
   1469  O4        -0.2330    9.6040   10.4600 O.2    73  DT73       -0.2654
   1470  C5        -0.1450    7.2330   10.3810 C.ar   73  DT73        0.0534
   1471  C6        -0.6830    6.1430    9.8270 C.ar   73  DT73        0.0824
   1472  C7         0.9720    7.1400   11.3780 C.3    73  DT73        0.0377
   1473  P          0.0510    2.7590    5.3780 P.3    74  DC74        0.2141
   1474  OP1       -0.1290    1.5040    4.6070 O.2    74  DC74       -0.5172
   1475  OP2        1.3580    3.0420    6.0390 O.3    74  DC74       -0.4373
   1476  O5'       -0.3760    3.9690    4.4280 O.3    74  DC74       -0.3114
   1477  C5'       -1.5120    3.8410    3.5710 C.3    74  DC74        0.1812
   1478  C4'       -1.9000    5.1780    2.9720 C.3    74  DC74        0.1775
   1479  O4'       -2.1960    6.1140    4.0450 O.3    74  DC74       -0.3326
   1480  C3'       -0.8560    5.9260    2.1530 C.3    74  DC74        0.1864
   1481  O3'       -0.7310    5.4420    0.8220 O.3    74  DC74       -0.2133
   1482  C2'       -1.4290    7.3320    2.1610 C.3    74  DC74        0.0895
   1483  C1'       -1.9020    7.4390    3.6120 C.3    74  DC74        0.2107
   1484  N1        -0.8350    7.9490    4.4940 N.ar   74  DC74       -0.2556
   1485  C2        -0.6520    9.3280    4.6500 C.ar   74  DC74        0.3531
   1486  O2        -1.3020   10.1030    3.9280 O.2    74  DC74       -0.2443
   1487  N3         0.2260    9.7750    5.5790 N.ar   74  DC74       -0.1739
   1488  C4         0.9030    8.9060    6.3300 C.ar   74  DC74        0.1759
   1489  N4         1.7580    9.3940    7.2330 N.pl3  74  DC74       -0.1070
   1490  C5         0.7320    7.5050    6.1880 C.ar   74  DC74        0.0566
   1491  C6        -0.1360    7.0680    5.2690 C.ar   74  DC74        0.0849
   1492  P          0.6740    5.5890   -0.0030 P.3    75  DA75        0.3939
   1493  OP1       -0.5230    5.0970   -0.7000 O.3    75  DA75       -0.1496
   1494  OP2        1.6410    4.4890    0.2380 O.3    75  DA75       -0.1425
   1495  O5'        1.3500    6.7710   -0.8350 O.3    75  DA75       -0.2926
   1496  C5'        0.4620    7.7420   -1.4170 C.3    75  DA75        0.1828
   1497  C4'        0.7330    9.2310   -1.0570 C.3    75  DA75        0.1747
   1498  O4'        0.4870    9.4320    0.3530 O.3    75  DA75       -0.3327
   1499  C3'        2.1540    9.7240   -1.2410 C.3    75  DA75        0.1558
   1500  O3'        2.3710   10.0630   -2.5900 O.3    75  DA75       -0.3138
   1501  C2'        2.2270   10.9290   -0.3070 C.3    75  DA75        0.0865
   1502  C1'        1.2680   10.5290    0.8120 C.3    75  DA75        0.2094
   1503  N9         1.8690   10.1560    2.0320 N.ar   75  DA75       -0.2714
   1504  C8         1.9170    8.9050    2.5900 C.ar   75  DA75        0.1815
   1505  N7         2.6050    8.8490    3.7050 N.ar   75  DA75       -0.2193
   1506  C5         3.0400   10.1520    3.8920 C.ar   75  DA75        0.1518
   1507  C6         3.8180   10.7540    4.8960 C.ar   75  DA75        0.1919
   1508  N6         4.3140   10.0920    5.9440 N.pl3  75  DA75       -0.1054
   1509  N1         4.0710   12.0760    4.7850 N.ar   75  DA75       -0.2040
   1510  C2         3.5720   12.7380    3.7350 C.ar   75  DA75        0.2016
   1511  N3         2.8280   12.2830    2.7290 N.ar   75  DA75       -0.2048
   1512  C4         2.5960   10.9670    2.8690 C.ar   75  DA75        0.1691
   1513  P          3.5960    9.4970   -3.2190 P.3    76  DA76        0.2141
   1514  OP1        3.3070    9.3250   -4.6540 O.2    76  DA76       -0.5172
   1515  OP2        4.1560    8.4050   -2.3960 O.3    76  DA76       -0.4373
   1516  O5'        4.6180   10.7060   -3.1180 O.3    76  DA76       -0.3114
   1517  C5'        4.3830   11.9220   -3.7770 C.3    76  DA76        0.1811
   1518  C4'        5.0760   13.0080   -2.9800 C.3    76  DA76        0.1746
   1519  O4'        4.6750   12.8930   -1.5990 O.3    76  DA76       -0.3327
   1520  C3'        6.5980   12.9180   -2.9510 C.3    76  DA76        0.1558
   1521  O3'        7.1450   13.5470   -4.1070 O.3    76  DA76       -0.3138
   1522  C2'        6.9090   13.6620   -1.6620 C.3    76  DA76        0.0865
   1523  C1'        5.7470   13.2640   -0.7610 C.3    76  DA76        0.2094
   1524  N9         6.0410   12.1940    0.0590 N.ar   76  DA76       -0.2714
   1525  C8         5.4490   10.9620   -0.0400 C.ar   76  DA76        0.1815
   1526  N7         5.8570   10.1050    0.8660 N.ar   76  DA76       -0.2193
   1527  C5         6.7800   10.8230    1.6100 C.ar   76  DA76        0.1518
   1528  C6         7.5720   10.4800    2.7210 C.ar   76  DA76        0.1919
   1529  N6         7.5560    9.2760    3.2970 N.pl3  76  DA76       -0.1054
   1530  N1         8.3890   11.4300    3.2240 N.ar   76  DA76       -0.2040
   1531  C2         8.4040   12.6360    2.6460 C.ar   76  DA76        0.2016
   1532  N3         7.7070   13.0770    1.6020 N.ar   76  DA76       -0.2048
   1533  C4         6.9050   12.1100    1.1240 C.ar   76  DA76        0.1691
   1534  P          8.3690   12.9250   -4.9700 P.3    77  DT77        0.2141
   1535  OP1        8.2310   13.2440   -6.4110 O.2    77  DT77       -0.5172
   1536  OP2        8.6450   11.5290   -4.5600 O.3    77  DT77       -0.4373
   1537  O5'        9.5740   13.7870   -4.3550 O.3    77  DT77       -0.3114
   1538  C5'        9.5420   15.2000   -4.1120 C.3    77  DT77        0.1811
   1539  C4'       10.3010   15.5730   -2.8410 C.3    77  DT77        0.1746
   1540  O4'        9.5480   15.1790   -1.6580 O.3    77  DT77       -0.3327
   1541  C3'       11.6640   14.9200   -2.6180 C.3    77  DT77        0.1558
   1542  O3'       12.6990   15.5190   -3.4300 O.3    77  DT77       -0.3138
   1543  C2'       11.8340   15.1430   -1.1180 C.3    77  DT77        0.0866
   1544  C1'       10.4410   14.7260   -0.6460 C.3    77  DT77        0.2106
   1545  N1        10.3060   13.2000   -0.3600 N.ar   77  DT77       -0.2559
   1546  C2        10.8840   12.7070    0.7940 C.ar   77  DT77        0.3545
   1547  O2        11.4870   13.4080    1.5870 O.2    77  DT77       -0.2443
   1548  N3        10.7300   11.3550    0.9890 N.ar   77  DT77       -0.1533
   1549  C4        10.0720   10.4670    0.1640 C.ar   77  DT77        0.2804
   1550  O4        10.0160    9.2800    0.4750 O.2    77  DT77       -0.2654
   1551  C5         9.5000   11.0560   -1.0140 C.ar   77  DT77        0.0534
   1552  C6         9.6350   12.3670   -1.2290 C.ar   77  DT77        0.0824
   1553  C7         8.7630   10.1720   -1.9760 C.3    77  DT77        0.0377
   1554  P         13.5680   14.4110   -3.6220 P.3    78  DT78        0.2141
   1555  OP1       14.2260   14.8660   -4.8770 O.2    78  DT78       -0.5172
   1556  OP2       13.0160   13.0310   -3.5280 O.3    78  DT78       -0.4373
   1557  O5'       14.5820   14.5480   -2.4160 O.3    78  DT78       -0.3114
   1558  C5'       15.0940   15.8030   -2.0490 C.3    78  DT78        0.1811
   1559  C4'       16.0110   15.6100   -0.8940 C.3    78  DT78        0.1753
   1560  O4'       15.2280   15.3150    0.2840 O.3    78  DT78       -0.3510
   1561  C3'       16.9140   14.4060   -1.0660 C.3    78  DT78        0.1839
   1562  O3'       18.0550   14.7480   -1.8480 O.3    78  DT78       -0.2204
   1563  C2'       17.2260   14.0060    0.3710 C.3    78  DT78        0.0676
   1564  C1'       15.9370   14.4100    1.0970 C.3    78  DT78        0.1450
   1565  N1        14.4660   13.0070    0.6160 N.2    78  DT78       -0.1608
   1566  C2        14.4350   12.1030    1.6610 C.1    78  DT78        0.2395
   1567  O2        14.9570   12.3170    2.7400 O.2    78  DT78       -0.2041
   1568  N3        13.7680   10.9310    1.3950 N.am   78  DT78       -0.0881
   1569  C4        13.1420   10.5810    0.2170 C.2    78  DT78        0.2768
   1570  O4        12.5820    9.4910    0.1300 O.2    78  DT78       -0.2676
   1571  C5        13.2190   11.5720   -0.8200 C.2    78  DT78        0.0541
   1572  C6        13.8620   12.7200   -0.5890 C.2    78  DT78        0.1126
   1573  C7        12.5690   11.2850   -2.1410 C.3    78  DT78        0.0376
@<TRIPOS>BOND
     1   444   443    2
     2   425   424    2
     3   443   445    1
     4   443   446    1
     5   443   432    1
     6   424   427    1
     7   424   426    1
     8   424   412    1
     9   428   427    1
    10   428   429    1
    11   405   404    2
    12   446   447    1
    13   432   431    1
    14   431   429    1
    15   431   433    1
    16   429   430    1
    17   412   411    1
    18   456   455   ar
    19   456   457   ar
    20   447   448    1
    21   459   458    2
    22   455   454   ar
    23   404   406    1
    24   404   407    1
    25   404   391    1
    26   433   434    1
    27   457   458   ar
    28   457   464   ar
    29   411   409    1
    30   411   413    1
    31   458   460   ar
    32   430   434    1
    33   408   407    1
    34   408   409    1
    35   449   448    1
    36   449   453    1
    37   448   450    1
    38   454   464   ar
    39   454   453    1
    40   434   435    1
    41   409   410    1
    42   391   390    1
    43   384   383    2
    44   442   441   ar
    45   442   435   ar
    46   413   414    1
    47   464   463   ar
    48   450   451    1
    49   450   452    1
    50   453   452    1
    51   460   461   ar
    52   441   439   ar
    53   435   436   ar
    54   387   386    1
    55   387   388    1
    56   390   388    1
    57   390   392    1
    58   451   465    1
    59   467   465    2
    60   410   414    1
    61   386   383    1
    62   383   385    1
    63   383   370    1
    64   463   461   ar
    65   414   415    1
    66   481   480    1
    67   461   462    1
    68   388   389    1
    69   422   415   ar
    70   422   421   ar
    71   439   438   ar
    72   439   440    1
    73   423   421    1
    74   436   437    2
    75   436   438   ar
    76   415   416   ar
    77   392   393    1
    78   480   482   ar
    79   480   479   ar
    80   482   483   ar
    81   421   419   ar
    82   465   468    1
    83   465   466    1
    84   363   362    2
    85   479   477   ar
    86   483   476   ar
    87   370   369    1
    88   416   417    2
    89   416   418   ar
    90   389   393    1
    91   419   418   ar
    92   419   420    2
    93   471   475    1
    94   471   470    1
    95   468   469    1
    96   477   476   ar
    97   477   478    2
    98   476   475    1
    99   395   394   ar
   100   395   396   ar
   101   393   394    1
   102   364   362    1
   103   469   470    1
   104   394   403   ar
   105   475   474    1
   106   396   397   ar
   107   362   350    1
   108   362   365    1
   109   369   371    1
   110   369   367    1
   111   470   472    1
   112   403   397   ar
   113   403   402   ar
   114   397   398   ar
   115   371   372    1
   116   366   367    1
   117   366   365    1
   118   501   502   ar
   119   501   499   ar
   120   402   401   ar
   121   343   342    1
   122   500   499    1
   123   367   368    1
   124   350   349    1
   125   502   503   ar
   126   499   498   ar
   127   474   472    1
   128   398   399    1
   129   398   400   ar
   130   472   473    1
   131   503   504   ar
   132   498   504   ar
   133   498   497   ar
   134   504   495   ar
   135   401   400   ar
   136   497   496   ar
   137   495   496   ar
   138   495   494    1
   139   372   368    1
   140   372   373    1
   141   349   347    1
   142   349   351    1
   143   494   490    1
   144   494   493    1
   145   342   345    1
   146   342   344    1
   147   490   489    1
   148   374   373   ar
   149   374   375   ar
   150   473   484    1
   151   346   345    1
   152   346   347    1
   153   373   382   ar
   154   375   376   ar
   155   485   484    2
   156   347   348    1
   157   382   376   ar
   158   382   381   ar
   159   376   377   ar
   160   351   352    1
   161   381   380   ar
   162   344   330    1
   163   330   329    1
   164   377   378    1
   165   377   379   ar
   166   493   491    1
   167   489   488    1
   168   489   491    1
   169   323   322    2
   170   518   517    2
   171   380   379   ar
   172   519   517   ar
   173   519   520   ar
   174   484   487    1
   175   484   486    1
   176   488   487    1
   177   521   520    2
   178   517   516   ar
   179   520   522   ar
   180   348   352    1
   181   491   492    1
   182   352   353    1
   183   516   515    1
   184   516   523   ar
   185   515   511    1
   186   515   514    1
   187   329   327    1
   188   329   331    1
   189   522   523   ar
   190   522   524    1
   191   511   510    1
   192   360   353   ar
   193   360   359   ar
   194   353   354   ar
   195   322   325    1
   196   322   324    1
   197   322   309    1
   198   325   326    1
   199   326   327    1
   200   361   359    1
   201   359   357   ar
   202   354   355    2
   203   354   356   ar
   204   327   328    1
   205   309   308    1
   206   492   505    1
   207   331   332    1
   208   357   356   ar
   209   357   358    2
   210   514   512    1
   211   538   537    2
   212   510   509    1
   213   510   512    1
   214   539   537   ar
   215   539   540   ar
   216   537   536   ar
   217   508   509    1
   218   508   505    1
   219   541   540    2
   220   540   542   ar
   221   535   536    1
   222   535   531    1
   223   535   534    1
   224   505   507    2
   225   505   506    1
   226   536   543   ar
   227   328   332    1
   228   512   513    1
   229   308   306    1
   230   308   310    1
   231   531   530    1
   232   332   333    1
   233   563   562   ar
   234   563   564   ar
   235   542   543   ar
   236   542   544    1
   237   340   333   ar
   238   340   339   ar
   239   302   301    2
   240   562   560   ar
   241   564   565   ar
   242   305   306    1
   243   305   304    1
   244   333   334   ar
   245   341   339    1
   246   306   307    1
   247   339   337   ar
   248   310   311    1
   249   513   525    1
   250   534   532    1
   251   560   561    1
   252   560   559   ar
   253   530   529    1
   254   530   532    1
   255   565   559   ar
   256   565   556   ar
   257   334   335    2
   258   334   336   ar
   259   304   301    1
   260   337   336   ar
   261   337   338    2
   262   559   558   ar
   263   555   556    1
   264   555   551    1
   265   555   554    1
   266   301   288    1
   267   301   303    1
   268   556   557   ar
   269   529   528    1
   270   579   578    2
   271   532   533    1
   272   551   550    1
   273   307   311    1
   274   558   557   ar
   275   311   312    1
   276   288   287    1
   277   525   528    1
   278   525   527    2
   279   525   526    1
   280   554   552    1
   281   578   580   ar
   282   578   577   ar
   283   580   581   ar
   284   533   545    1
   285   312   313   ar
   286   312   321   ar
   287   576   577    1
   288   576   572    1
   289   576   575    1
   290   577   584   ar
   291   313   314   ar
   292   598   597    2
   293   550   552    1
   294   550   549    1
   295   572   571    1
   296   581   582    1
   297   581   583   ar
   298   320   321   ar
   299   320   319   ar
   300   321   315   ar
   301   548   545    1
   302   548   549    1
   303   287   289    1
   304   287   285    1
   305   597   599   ar
   306   597   596   ar
   307   552   553    1
   308   575   573    1
   309   599   600   ar
   310   584   583   ar
   311   289   290    1
   312   314   315   ar
   313   319   318   ar
   314   545   547    2
   315   545   546    1
   316   315   316   ar
   317   596   595    1
   318   596   603   ar
   319   571   573    1
   320   571   570    1
   321   595   591    1
   322   595   594    1
   323   591   590    1
   324   285   284    1
   325   285   286    1
   326   600   601    1
   327   600   602   ar
   328   284   283    1
   329   617   616    2
   330   603   602   ar
   331   553   566    1
   332   318   316   ar
   333   316   317    1
   334   573   574    1
   335   570   569    1
   336   281   280    2
   337   290   286    1
   338   290   291    1
   339   616   615   ar
   340   616   618   ar
   341   614   610    1
   342   614   615    1
   343   614   613    1
   344   283   280    1
   345   590   589    1
   346   590   592    1
   347   594   592    1
   348   637   636    2
   349   649   650    1
   350   649   648    1
   351   649   651    1
   352   650   654    1
   353   574   585    1
   354   648   647    1
   355   610   609    1
   356   569   566    1
   357   634   630    1
   358   634   633    1
   359   634   635    1
   360   615   622   ar
   361   618   619   ar
   362   630   629    1
   363   299   300   ar
   364   299   298   ar
   365   613   611    1
   366   633   631    1
   367   291   300   ar
   368   291   292   ar
   369   589   588    1
   370   280   282    1
   371   280   269    1
   372   629   631    1
   373   629   628    1
   374   652   651    1
   375   652   665    1
   376   654   653    1
   377   654   655    1
   378   566   568    2
   379   566   567    1
   380   592   593    1
   381   300   294   ar
   382   609   611    1
   383   609   608    1
   384   588   585    1
   385   653   651    1
   386   636   635   ar
   387   636   638   ar
   388   622   621   ar
   389   298   297   ar
   390   619   620    2
   391   619   621   ar
   392   635   642   ar
   393   666   665    2
   394   632   631    1
   395   632   644    1
   396   292   293   ar
   397   621   623    1
   398   628   627    1
   399   585   587    2
   400   585   586    1
   401   611   612    1
   402   647   644    1
   403   645   644    2
   404   593   604    1
   405   294   293   ar
   406   294   295   ar
   407   608   607    1
   408   297   295   ar
   409   669   668    1
   410   669   670    1
   411   665   668    1
   412   665   667    1
   413   638   639   ar
   414   655   664   ar
   415   655   656   ar
   416   269   268    1
   417   612   624    1
   418   644   646    1
   419   663   664   ar
   420   663   662   ar
   421   295   296    1
   422   642   641   ar
   423   670   671    1
   424   670   672    1
   425   607   604    1
   426   671   675    1
   427   627   624    1
   428   270   268    1
   429   270   271    1
   430   664   658   ar
   431   656   657   ar
   432   268   266    1
   433   639   641   ar
   434   639   640    2
   435   604   606    2
   436   604   605    1
   437   274   273    2
   438   662   661   ar
   439   641   643    1
   440   624   625    2
   441   624   626    1
   442   675   674    1
   443   675   676    1
   444   673   672    1
   445   673   685    1
   446   672   674    1
   447   658   657   ar
   448   658   659   ar
   449   271   272    1
   450   271   267    1
   451   273   275   ar
   452   273   272   ar
   453   266   267    1
   454   266   265    1
   455   275   276   ar
   456   661   659   ar
   457   272   279   ar
   458   686   685    2
   459   676   683   ar
   460   676   677   ar
   461   685   687    1
   462   685   688    1
   463   659   660    1
   464   683   682   ar
   465   689   688    1
   466   689   690    1
   467   276   277    1
   468   276   278   ar
   469   265   264    1
   470   279   278   ar
   471   678   677    2
   472   677   679   ar
   473   264   261    1
   474   682   684    1
   475   682   680   ar
   476   690   691    1
   477   690   692    1
   478   691   695    1
   479   679   680   ar
   480   680   681    2
   481   261   262    2
   482   261   263    1
   483   261   249    1
   484   695   696    1
   485   695   694    1
   486   692   693    1
   487   692   694    1
   488   697   696   ar
   489   697   698   ar
   490   693   706    1
   491   696   705   ar
   492   698   699   ar
   493   249   248    1
   494   254   253    2
   495   255   253   ar
   496   255   256   ar
   497   250   248    1
   498   250   251    1
   499   257   256    2
   500   705   699   ar
   501   705   704   ar
   502   706   707    2
   503   706   709    1
   504   706   708    1
   505   253   252   ar
   506   256   258   ar
   507   699   700   ar
   508   248   246    1
   509   709   710    1
   510   704   703   ar
   511   710   711    1
   512   252   251    1
   513   252   259   ar
   514   258   259   ar
   515   258   260    1
   516   251   247    1
   517   712   711    1
   518   712   716    1
   519   700   701    1
   520   700   702   ar
   521   703   702   ar
   522   711   713    1
   523    99    98    2
   524   246   247    1
   525   246   245    1
   526   724   723   ar
   527   724   717   ar
   528   120   119    2
   529   716   717    1
   530   716   715    1
   531   723   721   ar
   532   717   718   ar
   533   245   244    1
   534   244   241    1
   535   237   236    2
   536   713   715    1
   537   713   714    1
   538   121   119    1
   539    98   100    1
   540    98    87    1
   541    98   101    1
   542   119   122    1
   543   119   106    1
   544   235   236   ar
   545   235   233   ar
   546   721   722    1
   547   721   720   ar
   548   243   241    2
   549   236   238   ar
   550   718   720   ar
   551   718   719    2
   552   714   725    1
   553   234   233    2
   554    87    86    1
   555   233   232   ar
   556   241   242    1
   557   241   229    1
   558    80    79    2
   559   102   101    1
   560   102   103    1
   561   143   141    2
   562   142   141    1
   563   238   240    1
   564   238   239   ar
   565   216   215    1
   566   122   123    1
   567   106   105    1
   568    83    84    1
   569    83    82    1
   570   232   239   ar
   571   232   231    1
   572   230   228    1
   573   230   231    1
   574   725   726    2
   575   725   728    1
   576   725   727    1
   577   123   124    1
   578    84    86    1
   579    84    85    1
   580    86    88    1
   581   141   127    1
   582   141   144    1
   583   229   228    1
   584   228   226    1
   585   103   105    1
   586   103   104    1
   587   215   217   ar
   588   215   214   ar
   589  1535  1534    2
   590   105   107    1
   591    79    82    1
   592    79    68    1
   593    79    81    1
   594   217   218   ar
   595   728   729    1
   596   231   227    1
   597   127   126    1
   598    88    89    1
   599   162   160    2
   600    68    67    1
   601   742   743   ar
   602   742   740   ar
   603   199   197    1
   604   144   145    1
   605   124   126    1
   606   124   125    1
   607   214   213   ar
   608   214   220   ar
   609    85    89    1
   610   126   128    1
   611   743   736   ar
   612   218   219   ar
   613   731   735    1
   614   731   730    1
   615   213   212   ar
   616   161   160    1
   617   741   740    1
   618   104   108    1
   619   740   739   ar
   620   226   227    1
   621   226   225    1
   622   729   730    1
   623    89    90    1
   624   196   195    2
   625   160   149    1
   626   160   163    1
   627   179   177    1
   628  1534  1536    1
   629  1534  1537    1
   630  1534  1521    1
   631   107   108    1
   632  1555  1554    2
   633   224   225    1
   634   224   221    1
   635   223   221    2
   636   220   219   ar
   637   220   211   ar
   638   736   735    1
   639   736   737   ar
   640   145   146    1
   641   735   734    1
   642  1514  1513    2
   643   730   732    1
   644   125   129    1
   645    67    69    1
   646    67    65    1
   647   197   195   ar
   648   197   198   ar
   649   212   211   ar
   650   110   109   ar
   651   110   111   ar
   652   176   175    2
   653   739   737   ar
   654   131   132   ar
   655   131   130   ar
   656  1537  1538    1
   657   195   194   ar
   658   182   180    2
   659   108   109    1
   660   158   159   ar
   661   158   156   ar
   662    69    70    1
   663   737   738    2
   664  1538  1539    1
   665  1521  1520    1
   666   132   133   ar
   667   157   156    1
   668   128   129    1
   669   211   210    1
   670   149   148    1
   671    65    64    1
   672    65    66    1
   673   221   222    1
   674   221   208    1
   675   148   146    1
   676   148   150    1
   677   163   164    1
   678   177   175   ar
   679   177   178   ar
   680  1517  1516    1
   681  1517  1518    1
   682   109   118   ar
   683    90    97   ar
   684    90    91   ar
   685   111   112   ar
   686    64    63    1
   687   159   152   ar
   688   175   174   ar
   689   198   191   ar
   690   202   200    2
   691  1554  1556    1
   692  1554  1542    1
   693  1554  1557    1
   694   129   130    1
   695   146   147    1
   696   130   140   ar
   697   156   155   ar
   698   760   759    1
   699    97    96   ar
   700  1542  1541    1
   701   181   180    1
   702   183   180    1
   703   183   184    1
   704   180   168    1
   705   732   734    1
   706   732   733    1
   707  1513  1516    1
   708  1513  1500    1
   709  1513  1515    1
   710   194   192   ar
   711    92    91    2
   712   178   171   ar
   713  1518  1520    1
   714  1518  1519    1
   715   201   200    1
   716  1520  1522    1
   717   147   151    1
   718    61    60    2
   719   133   140   ar
   720   133   134   ar
   721   207   209    1
   722   207   208    1
   723   207   205    1
   724  1539  1541    1
   725  1539  1540    1
   726    63    60    1
   727    70    66    1
   728    70    71    1
   729    91    93   ar
   730   209   210    1
   731   164   165    1
   732   210   206    1
   733   150   151    1
   734   174   172   ar
   735  1541  1543    1
   736  1500  1499    1
   737   140   139   ar
   738   191   192   ar
   739   191   190    1
   740   200   188    1
   741   200   203    1
   742   759   761   ar
   743   759   758   ar
   744   152   151    1
   745   152   153   ar
   746   118   112   ar
   747   118   117   ar
   748   112   113   ar
   749  1557  1558    1
   750   184   185    1
   751   155   153   ar
   752   187   188    1
   753   187   189    1
   754   187   185    1
   755   192   193    2
   756   757   758   ar
   757   757   756   ar
   758    96    94   ar
   759   135   134    2
   760   206   205    1
   761   733   744    1
   762    73    72    2
   763  1573  1571    1
   764   134   136   ar
   765   761   762   ar
   766   167   168    1
   767   167   165    1
   768   167   169    1
   769   746   744    2
   770  1558  1559    1
   771   204   205    1
   772   204   203    1
   773   758   764   ar
   774    60    47    1
   775    60    62    1
   776  1553  1551    1
   777   171   172   ar
   778   171   170    1
   779   781   780    2
   780  1562  1561    1
   781   153   154    2
   782   189   190    1
   783   172   173    2
   784    71    72   ar
   785    71    78   ar
   786   185   186    1
   787   165   166    1
   788  1522  1523    1
   789   186   190    1
   790  1540  1544    1
   791  1519  1523    1
   792    93    94   ar
   793   139   137   ar
   794   117   116   ar
   795   756   755   ar
   796  1496  1497    1
   797  1496  1495    1
   798    72    74   ar
   799   113   114    1
   800   113   115   ar
   801    94    95    1
   802   744   745    1
   803   744   747    1
   804  1499  1497    1
   805  1499  1501    1
   806   166   170    1
   807  1552  1551   ar
   808  1552  1545   ar
   809   762   763   ar
   810    47    46    1
   811   780   782   ar
   812   780   779   ar
   813   782   783   ar
   814  1543  1544    1
   815   764   755   ar
   816   764   763   ar
   817  1561  1559    1
   818  1561  1563    1
   819  1497  1498    1
   820   136   137   ar
   821   169   170    1
   822  1551  1549   ar
   823    78    77   ar
   824  1559  1560    1
   825  1495  1492    1
   826  1571  1572    2
   827  1571  1569    1
   828   137   138    1
   829  1523  1524    1
   830   755   754    1
   831  1493  1492    1
   832  1493  1481    1
   833  1544  1545    1
   834  1572  1565    1
   835    48    46    1
   836    48    49    1
   837   116   115   ar
   838   784   783    1
   839  1545  1546   ar
   840    74    75   ar
   841   783   785   ar
   842  1501  1502    1
   843   779   778   ar
   844   779   786   ar
   845    46    44    1
   846   750   754    1
   847   750   749    1
   848  1525  1524   ar
   849  1525  1526   ar
   850  1492  1494    1
   851   747   748    1
   852  1524  1533   ar
   853   778   777   ar
   854   803   802    1
   855  1570  1569    2
   856    77    75   ar
   857   754   753    1
   858  1549  1550    2
   859  1549  1548   ar
   860  1569  1568   am
   861  1560  1564    1
   862  1498  1502    1
   863  1563  1564    1
   864    75    76    1
   865    58    57   ar
   866    58    59   ar
   867    57    56   ar
   868   786   785   ar
   869   786   776   ar
   870  1565  1566    2
   871  1546  1548   ar
   872  1546  1547    2
   873    49    50    1
   874    49    45    1
   875   748   749    1
   876  1502  1503    1
   877  1481  1480    1
   878  1526  1527   ar
   879    44    45    1
   880    44    43    1
   881   801   802   ar
   882   801   799   ar
   883   777   776   ar
   884   802   804   ar
   885    56    54   ar
   886   749   751    1
   887  1533  1532   ar
   888  1533  1527   ar
   889    59    50   ar
   890    59    53   ar
   891   776   775    1
   892  1568  1566   am
   893    50    51   ar
   894   822   821    2
   895  1532  1531   ar
   896  1527  1528   ar
   897   753   751    1
   898  1566  1567    2
   899    54    53   ar
   900    54    55    2
   901   799   800    2
   902   799   798   ar
   903    43    42    1
   904   751   752    1
   905    53    52   ar
   906   820   821   ar
   907   820   818   ar
   908   804   805   ar
   909  1503  1504   ar
   910  1503  1512   ar
   911  1480  1482    1
   912  1480  1478    1
   913  1482  1483    1
   914    51    52   ar
   915   819   818    2
   916    42    39    1
   917   821   823   ar
   918   775   771    1
   919   775   774    1
   920    55   862    1
   921  1504  1505   ar
   922  1531  1530   ar
   923   818   817   ar
   924  1528  1530   ar
   925  1528  1529    1
   926  1511  1512   ar
   927  1511  1510   ar
   928   771   770    1
   929   798   805   ar
   930   798   797    1
   931  1512  1506   ar
   932  1478  1477    1
   933  1478  1479    1
   934    40    39    2
   935   767   765    2
   936   862   861    2
   937   752   765    1
   938    39    41    1
   939    39    27    1
   940   863   861   ar
   941   863   864   ar
   942   842   841    2
   943   839   838    2
   944   840   838   ar
   945   840   841   ar
   946  1477  1476    1
   947  1483  1479    1
   948  1483  1484    1
   949   823   825    1
   950   823   824   ar
   951   861   860   ar
   952   768   765    1
   953   768   769    1
   954  1505  1506   ar
   955   774   772    1
   956  1510  1509   ar
   957   797   793    1
   958   797   796    1
   959   838   837   ar
   960   841   843   ar
   961  1506  1507   ar
   962  1486  1485    2
   963   817   824   ar
   964   817   816    1
   965   864   865   ar
   966   765   766    1
   967   770   769    1
   968   770   772    1
   969   793   792    1
   970    27    26    1
   971  1476  1473    1
   972   772   773    1
   973  1484  1485   ar
   974  1484  1491   ar
   975   860   866   ar
   976   860   859   ar
   977   952   951    1
   978   952   953    1
   979   952   954    1
   980  1474  1473    2
   981   951   950    1
   982  1485  1487   ar
   983   837   836    1
   984   837   844   ar
   985   816   815    1
   986   816   812    1
   987   843   844   ar
   988   843   845    1
   989   865   866   ar
   990  1509  1507   ar
   991  1507  1508    1
   992   836   832    1
   993   836   835    1
   994   796   794    1
   995   900   899    2
   996   920   919    2
   997   953   957    1
   998   955   954    1
   999   955   968    1
  1000   866   857   ar
  1001   859   858   ar
  1002   880   879    2
  1003   969   968    2
  1004    26    28    1
  1005    26    24    1
  1006  1491  1490   ar
  1007    28    29    1
  1008    32    31    2
  1009  1473  1475    1
  1010  1473  1461    1
  1011   935   936    1
  1012   935   933    1
  1013   881   879   ar
  1014   881   882   ar
  1015   815   813    1
  1016   832   831    1
  1017   954   956    1
  1018  1487  1488   ar
  1019   790   791    1
  1020   790   787    1
  1021   948   947    2
  1022   934   933    1
  1023   934   947    1
  1024   812   811    1
  1025   956   957    1
  1026   789   787    2
  1027   883   882    2
  1028   879   878   ar
  1029   792   794    1
  1030   792   791    1
  1031   957   958    1
  1032   936   932    1
  1033   936   937    1
  1034   899   901   ar
  1035   899   898   ar
  1036   858   857   ar
  1037   773   787    1
  1038   857   856    1
  1039   972   971    1
  1040   972   973    1
  1041   794   795    1
  1042   901   902   ar
  1043   919   921   ar
  1044   919   918   ar
  1045   932   931    1
  1046   950   947    1
  1047    31    33   ar
  1048    31    30   ar
  1049   968   971    1
  1050   968   970    1
  1051   835   833    1
  1052   931   933    1
  1053   931   930    1
  1054   882   884   ar
  1055   917   916    1
  1056   917   918    1
  1057   917   913    1
  1058  1490  1488   ar
  1059   916   914    1
  1060    33    34   ar
  1061  1488  1489    1
  1062  1461  1460    1
  1063   947   949    1
  1064   921   922   ar
  1065   787   788    1
  1066   897   898    1
  1067   897   896    1
  1068   897   893    1
  1069   856   852    1
  1070   856   855    1
  1071   918   925   ar
  1072    30    29    1
  1073    30    37   ar
  1074   973   974    1
  1075   973   975    1
  1076    29    25    1
  1077    24    23    1
  1078    24    25    1
  1079   898   905   ar
  1080    22    23    1
  1081    22    19    1
  1082   813   811    1
  1083   813   814    1
  1084   945   944   ar
  1085   945   946   ar
  1086   878   877    1
  1087   878   885   ar
  1088   831   833    1
  1089   831   830    1
  1090   902   903    2
  1091   902   904   ar
  1092   913   912    1
  1093   808   806    2
  1094    21    19    2
  1095   811   810    1
  1096   896   894    1
  1097    34    35    2
  1098    34    36   ar
  1099   929   930    1
  1100   929   926    1
  1101   974   978    1
  1102   937   946   ar
  1103   937   938   ar
  1104   893   892    1
  1105   884   885   ar
  1106   884   886    1
  1107  1462  1460    1
  1108  1462  1463    1
  1109   877   876    1
  1110   877   873    1
  1111   852   851    1
  1112   958   959   ar
  1113   958   967   ar
  1114   795   806    1
  1115   833   834    1
  1116   809   806    1
  1117   809   810    1
  1118   944   943   ar
  1119   912   914    1
  1120   912   911    1
  1121    37    36   ar
  1122  1460  1458    1
  1123   946   940   ar
  1124   922   923    1
  1125   922   924   ar
  1126   914   915    1
  1127   915   927    1
  1128    19    20    1
  1129    19     6    1
  1130   855   853    1
  1131    36    38    1
  1132   905   904   ar
  1133   925   924   ar
  1134  1466  1465    2
  1135   904   906    1
  1136   876   874    1
  1137   959   960   ar
  1138   829   830    1
  1139   829   826    1
  1140   976   975    1
  1141   976   988    1
  1142   806   807    1
  1143   814   826    1
  1144   975   977    1
  1145   938   939   ar
  1146   966   967   ar
  1147   966   965   ar
  1148   927   926    1
  1149   967   961   ar
  1150   873   872    1
  1151   892   894    1
  1152   892   891    1
  1153   828   826    2
  1154   926   928    1
  1155   978   977    1
  1156   978   979    1
  1157   989   988    2
  1158   894   895    1
  1159   834   846    1
  1160   943   941   ar
  1161   940   939   ar
  1162   940   941   ar
  1163  1465  1464   ar
  1164  1465  1467   ar
  1165  1463  1464    1
  1166  1463  1459    1
  1167   851   853    1
  1168   851   850    1
  1169   849   846    1
  1170   849   850    1
  1171  1458  1457    1
  1172  1458  1459    1
  1173   911   910    1
  1174   826   827    1
  1175   853   854    1
  1176   988   990    1
  1177   988   991    1
  1178  1464  1471   ar
  1179   848   846    2
  1180   895   907    1
  1181   960   961   ar
  1182   941   942    1
  1183   846   847    1
  1184  1467  1468   ar
  1185   986   979   ar
  1186   986   985   ar
  1187   965   964   ar
  1188     6     5    1
  1189   874   872    1
  1190   874   875    1
  1191   961   962   ar
  1192   979   980   ar
  1193  1457  1456    1
  1194   992   991    1
  1195   992   993    1
  1196   891   890    1
  1197   872   871    1
  1198   910   907    1
  1199   987   985    1
  1200   890   887    1
  1201  1471  1470   ar
  1202   907   908    2
  1203   907   909    1
  1204   985   983   ar
  1205   854   867    1
  1206  1468  1470   ar
  1207  1468  1469    2
  1208     5     7    1
  1209     5     3    1
  1210     7     8    1
  1211   994   993    1
  1212   994   998    1
  1213   875   887    1
  1214   993   995    1
  1215   964   962   ar
  1216   962   963    1
  1217  1470  1472    1
  1218   980   981    2
  1219   980   982   ar
  1220   870   871    1
  1221   870   867    1
  1222  1456  1453    1
  1223   869   867    2
  1224   867   868    1
  1225    15    16   ar
  1226    15    13   ar
  1227   887   889    2
  1228   887   888    1
  1229    14    13    1
  1230    16    17   ar
  1231   983   982   ar
  1232   983   984    2
  1233    13    12   ar
  1234   998   999    1
  1235   998   997    1
  1236    17    18   ar
  1237  1455  1453    2
  1238     3     2    1
  1239     3     4    1
  1240    12    18   ar
  1241    12    11   ar
  1242     8     9    1
  1243     8     4    1
  1244  1454  1453    1
  1245    18     9   ar
  1246   995   996    1
  1247   995   997    1
  1248  1453  1441    1
  1249  1006   999   ar
  1250  1006  1005   ar
  1251    11    10   ar
  1252  1446  1445    2
  1253     9    10   ar
  1254   996  1008    1
  1255  1007  1005    1
  1256   999  1000   ar
  1257     2     1    1
  1258  1005  1003   ar
  1259  1447  1445   ar
  1260  1447  1448   ar
  1261  1445  1444   ar
  1262  1442  1440    1
  1263  1442  1443    1
  1264  1000  1001    2
  1265  1000  1002   ar
  1266  1449  1448    2
  1267  1441  1440    1
  1268  1003  1002   ar
  1269  1003  1004    2
  1270  1448  1450   ar
  1271  1010  1008    2
  1272  1009  1008    1
  1273  1440  1438    1
  1274  1008  1011    1
  1275  1444  1443    1
  1276  1444  1451   ar
  1277  1443  1439    1
  1278  1311  1310    2
  1279  1332  1331    1
  1280  1450  1451   ar
  1281  1450  1452    1
  1282  1429  1430   ar
  1283  1429  1427   ar
  1284  1011  1012    1
  1285  1438  1439    1
  1286  1438  1437    1
  1287  1430  1431   ar
  1288  1428  1427    1
  1289  1310  1299    1
  1290  1310  1313    1
  1291  1310  1312    1
  1292  1012  1013    1
  1293  1314  1313    1
  1294  1314  1315    1
  1295  1427  1426   ar
  1296  1331  1333    2
  1297  1299  1298    1
  1298  1436  1437    1
  1299  1436  1433    1
  1300  1021  1020   ar
  1301  1021  1022   ar
  1302  1020  1019   ar
  1303  1431  1432   ar
  1304  1318  1334    1
  1305  1318  1317    1
  1306  1014  1013    1
  1307  1014  1018    1
  1308  1334  1335    1
  1309  1315  1317    1
  1310  1315  1316    1
  1311  1426  1432   ar
  1312  1426  1425   ar
  1313  1335  1336    1
  1314  1435  1433    2
  1315  1013  1015    1
  1316  1024  1023    1
  1317  1432  1423   ar
  1318  1296  1295    1
  1319  1296  1298    1
  1320  1296  1297    1
  1321  1022  1023   ar
  1322  1022  1028   ar
  1323  1295  1294    1
  1324  1019  1018    1
  1325  1019  1028   ar
  1326  1298  1300    1
  1327  1433  1434    1
  1328  1433  1420    1
  1329  1317  1319    1
  1330  1023  1025   ar
  1331  1408  1407    2
  1332  1018  1017    1
  1333  1028  1027   ar
  1334  1425  1424   ar
  1335  1355  1353    2
  1336  1354  1353    1
  1337  1292  1291    2
  1338  1300  1301    1
  1339  1316  1320    1
  1340  1423  1424   ar
  1341  1423  1422    1
  1342  1015  1017    1
  1343  1015  1016    1
  1344  1420  1419    1
  1345  1297  1301    1
  1346  1353  1339    1
  1347  1353  1356    1
  1348  1421  1419    1
  1349  1421  1422    1
  1350  1419  1417    1
  1351  1294  1291    1
  1352  1025  1026   ar
  1353  1336  1338    1
  1354  1336  1337    1
  1355  1411  1409    1
  1356  1407  1409   ar
  1357  1407  1406   ar
  1358  1339  1338    1
  1359  1319  1320    1
  1360  1027  1026   ar
  1361  1301  1302    1
  1362  1291  1280    1
  1363  1291  1293    1
  1364  1016  1030    1
  1365  1338  1340    1
  1366  1422  1418    1
  1367  1320  1321    1
  1368  1285  1284    2
  1369  1409  1410   ar
  1370  1337  1341    1
  1371  1280  1279    1
  1372  1406  1404   ar
  1373  1045  1044    1
  1374  1374  1372    2
  1375  1391  1389    1
  1376  1394  1392    2
  1377  1031  1029    1
  1378  1388  1387    2
  1379  1415  1416    1
  1380  1415  1412    1
  1381  1046  1044   ar
  1382  1046  1047   ar
  1383  1322  1321   ar
  1384  1322  1323   ar
  1385  1417  1418    1
  1386  1417  1416    1
  1387  1030  1029    1
  1388  1356  1357    1
  1389  1029  1032    1
  1390  1044  1043   ar
  1391  1343  1344   ar
  1392  1343  1342   ar
  1393  1321  1330   ar
  1394  1414  1412    2
  1395  1302  1309   ar
  1396  1302  1303   ar
  1397  1410  1403   ar
  1398  1284  1286   ar
  1399  1284  1283   ar
  1400  1269  1268   ar
  1401  1269  1270   ar
  1402  1373  1372    1
  1403  1282  1278    1
  1404  1282  1283    1
  1405  1282  1281    1
  1406  1268  1266   ar
  1407  1047  1040   ar
  1408  1404  1403   ar
  1409  1404  1405    2
  1410  1340  1341    1
  1411  1387  1389   ar
  1412  1387  1386   ar
  1413  1304  1303    2
  1414  1341  1342    1
  1415  1372  1361    1
  1416  1372  1375    1
  1417  1344  1345   ar
  1418  1389  1390   ar
  1419  1279  1277    1
  1420  1279  1281    1
  1421  1357  1358    1
  1422  1309  1308   ar
  1423  1370  1371   ar
  1424  1370  1368   ar
  1425  1278  1277    1
  1426  1412  1413    1
  1427  1412  1400    1
  1428  1323  1324   ar
  1429  1043  1041   ar
  1430  1342  1352   ar
  1431  1369  1368    1
  1432  1392  1393    1
  1433  1392  1395    1
  1434  1392  1380    1
  1435  1277  1276    1
  1436  1403  1402    1
  1437  1286  1287   ar
  1438  1283  1290   ar
  1439  1303  1305   ar
  1440  1361  1360    1
  1441  1371  1364   ar
  1442  1270  1271   ar
  1443  1032  1033    1
  1444  1330  1324   ar
  1445  1330  1329   ar
  1446  1040  1041   ar
  1447  1040  1039    1
  1448  1368  1367   ar
  1449  1395  1396    1
  1450  1360  1358    1
  1451  1360  1362    1
  1452  1375  1376    1
  1453  1386  1384   ar
  1454  1035  1039    1
  1455  1035  1034    1
  1456  1390  1383   ar
  1457  1041  1042    2
  1458  1399  1401    1
  1459  1399  1400    1
  1460  1399  1397    1
  1461  1266  1267    1
  1462  1266  1265   ar
  1463  1401  1402    1
  1464  1358  1359    1
  1465  1324  1325   ar
  1466  1148  1147    1
  1467  1345  1352   ar
  1468  1345  1346   ar
  1469  1308  1306   ar
  1470  1039  1038    1
  1471  1329  1328   ar
  1472  1352  1351   ar
  1473  1064  1063    2
  1474  1402  1398    1
  1475  1033  1034    1
  1476  1380  1379    1
  1477  1376  1377    1
  1478  1287  1288    1
  1479  1287  1289   ar
  1480  1359  1363    1
  1481  1290  1289   ar
  1482  1379  1377    1
  1483  1379  1381    1
  1484  1305  1306   ar
  1485  1276  1275    1
  1486  1383  1384   ar
  1487  1383  1382    1
  1488  1384  1385    2
  1489  1364  1363    1
  1490  1364  1365   ar
  1491  1271  1265   ar
  1492  1271  1262   ar
  1493  1367  1365   ar
  1494  1034  1036    1
  1495  1396  1397    1
  1496  1362  1363    1
  1497  1398  1397    1
  1498  1265  1264   ar
  1499  1306  1307    1
  1500  1346  1347    2
  1501  1346  1348   ar
  1502  1377  1378    1
  1503  1063  1065   ar
  1504  1063  1062   ar
  1505  1365  1366    2
  1506  1147  1149   ar
  1507  1147  1146   ar
  1508  1325  1326    1
  1509  1325  1327   ar
  1510  1351  1349   ar
  1511  1381  1382    1
  1512  1328  1327   ar
  1513  1275  1272    1
  1514  1378  1382    1
  1515  1260  1261    1
  1516  1260  1258    1
  1517  1038  1036    1
  1518  1164  1163    2
  1519  1065  1066   ar
  1520  1061  1062   ar
  1521  1061  1060   ar
  1522  1149  1150   ar
  1523  1036  1037    1
  1524  1262  1261    1
  1525  1262  1263   ar
  1526  1160  1161    1
  1527  1160  1158    1
  1528  1062  1069   ar
  1529  1161  1157    1
  1530  1161  1162    1
  1531  1146  1144   ar
  1532  1174  1175    1
  1533  1174  1173    1
  1534  1261  1257    1
  1535  1348  1349   ar
  1536  1176  1175    1
  1537  1176  1180    1
  1538  1157  1156    1
  1539  1264  1263   ar
  1540  1349  1350    1
  1541  1175  1177    1
  1542  1156  1158    1
  1543  1156  1155    1
  1544  1159  1158    1
  1545  1159  1173    1
  1546  1060  1059   ar
  1547  1066  1067    1
  1548  1066  1068   ar
  1549  1163  1162   ar
  1550  1163  1165   ar
  1551  1086  1085    2
  1552  1069  1068   ar
  1553  1069  1059   ar
  1554  1259  1258    1
  1555  1259  1272    1
  1556  1258  1256    1
  1557  1162  1169   ar
  1558  1272  1273    2
  1559  1272  1274    1
  1560  1037  1048    1
  1561  1247  1246    2
  1562  1150  1140   ar
  1563  1150  1143   ar
  1564  1180  1181    1
  1565  1180  1179    1
  1566  1226  1225    1
  1567  1144  1143   ar
  1568  1144  1145    2
  1569  1059  1058    1
  1570  1171  1170    1
  1571  1050  1048    2
  1572  1139  1138    1
  1573  1139  1140    1
  1574  1139  1135    1
  1575  1138  1136    1
  1576  1122  1121    2
  1577  1245  1246   ar
  1578  1245  1243   ar
  1579  1257  1256    1
  1580  1155  1154    1
  1581  1165  1166   ar
  1582  1154  1151    1
  1583  1177  1178    1
  1584  1177  1179    1
  1585  1085  1084   ar
  1586  1085  1087   ar
  1587  1244  1243    2
  1588  1246  1248   ar
  1589  1140  1141   ar
  1590  1181  1182   ar
  1591  1181  1190   ar
  1592  1143  1142   ar
  1593  1178  1191    1
  1594  1084  1082   ar
  1595  1256  1255    1
  1596  1170  1172    2
  1597  1169  1168   ar
  1598  1048  1051    1
  1599  1048  1049    1
  1600  1243  1242   ar
  1601  1106  1105    1
  1602  1189  1190   ar
  1603  1189  1188   ar
  1604  1227  1225   ar
  1605  1227  1228   ar
  1606  1135  1134    1
  1607  1123  1121   ar
  1608  1123  1124   ar
  1609  1121  1120   ar
  1610  1225  1224   ar
  1611  1182  1183   ar
  1612  1058  1054    1
  1613  1058  1057    1
  1614  1190  1184   ar
  1615  1054  1053    1
  1616  1089  1087    1
  1617  1051  1052    1
  1618  1087  1088   ar
  1619  1104  1105   ar
  1620  1104  1102   ar
  1621  1136  1137    1
  1622  1136  1134    1
  1623  1166  1168   ar
  1624  1166  1167    1
  1625  1137  1151    1
  1626  1195  1196    1
  1627  1195  1194    1
  1628  1082  1083    2
  1629  1082  1081   ar
  1630  1134  1133    1
  1631  1151  1152    2
  1632  1151  1153    1
  1633  1125  1124    2
  1634  1188  1187   ar
  1635  1141  1142   ar
  1636  1192  1191    2
  1637  1105  1107   ar
  1638  1248  1250    1
  1639  1248  1249   ar
  1640  1103  1102    2
  1641  1124  1126   ar
  1642  1191  1194    1
  1643  1191  1193    1
  1644  1255  1254    1
  1645  1183  1184   ar
  1646  1228  1229   ar
  1647  1184  1185   ar
  1648  1254  1251    1
  1649  1197  1196    1
  1650  1197  1201    1
  1651  1242  1249   ar
  1652  1242  1241    1
  1653  1196  1198    1
  1654  1120  1119    1
  1655  1120  1127   ar
  1656  1102  1101   ar
  1657  1224  1223   ar
  1658  1224  1230   ar
  1659  1088  1081   ar
  1660  1052  1053    1
  1661  1081  1080    1
  1662  1119  1118    1
  1663  1119  1115    1
  1664  1057  1055    1
  1665  1053  1055    1
  1666  1187  1185   ar
  1667  1223  1222   ar
  1668  1118  1116    1
  1669  1185  1186    1
  1670  1240  1241    1
  1671  1240  1238    1
  1672  1055  1056    1
  1673  1133  1132    1
  1674  1107  1108   ar
  1675  1241  1237    1
  1676  1126  1127   ar
  1677  1126  1128    1
  1678  1253  1251    2
  1679  1229  1230   ar
  1680  1201  1202    1
  1681  1201  1200    1
  1682  1230  1221   ar
  1683  1115  1114    1
  1684  1101  1108   ar
  1685  1101  1100    1
  1686  1251  1239    1
  1687  1251  1252    1
  1688  1080  1076    1
  1689  1080  1079    1
  1690  1198  1199    1
  1691  1198  1200    1
  1692  1072  1070    2
  1693  1132  1129    1
  1694  1238  1239    1
  1695  1238  1236    1
  1696  1199  1210    1
  1697  1076  1075    1
  1698  1209  1202   ar
  1699  1209  1208   ar
  1700  1202  1203   ar
  1701  1222  1221   ar
  1702  1056  1070    1
  1703  1073  1070    1
  1704  1073  1074    1
  1705  1116  1114    1
  1706  1116  1117    1
  1707  1100  1099    1
  1708  1100  1096    1
  1709  1237  1236    1
  1710  1221  1220    1
  1711  1114  1113    1
  1712  1208  1206   ar
  1713  1079  1077    1
  1714  1204  1203    2
  1715  1203  1205   ar
  1716  1070  1071    1
  1717  1117  1129    1
  1718  1099  1097    1
  1719  1236  1235    1
  1720  1074  1075    1
  1721  1075  1077    1
  1722  1129  1131    2
  1723  1129  1130    1
  1724  1096  1095    1
  1725  1234  1235    1
  1726  1234  1231    1
  1727  1206  1205   ar
  1728  1206  1207    1
  1729  1211  1210    2
  1730  1210  1212    1
  1731  1210  1213    1
  1732  1077  1078    1
  1733  1233  1231    2
  1734  1220  1219    1
  1735  1220  1216    1
  1736  1113  1112    1
  1737  1219  1217    1
  1738  1112  1109    1
  1739  1213  1214    1
  1740  1097  1095    1
  1741  1097  1098    1
  1742  1217  1218    1
  1743  1217  1215    1
  1744  1231  1218    1
  1745  1231  1232    1
  1746  1095  1094    1
  1747  1216  1215    1
  1748  1092  1090    2
  1749  1078  1090    1
  1750  1093  1090    1
  1751  1093  1094    1
  1752  1111  1109    2
  1753  1215  1214    1
  1754  1098  1109    1
  1755  1109  1110    1
  1756  1090  1091    1
