@<TRIPOS>MOLECULE
dna.pdb
 1946 2183 0 0 0
SMALL
GASTEIGER

@<TRIPOS>ATOM
      1  O5'        7.9380    7.9740    7.5770 O.3     1  DA1        -0.2176
      2  C5'        6.8410    7.4090    8.2810 C.3     1  DA1         0.2140
      3  C4'        5.5780    8.1970    8.0440 C.3     1  DA1         0.1776
      4  O4'        5.6280    9.4500    8.7730 O.3     1  DA1        -0.3326
      5  C3'        5.3150    8.6030    6.6080 C.3     1  DA1         0.1559
      6  O3'        4.7230    7.5370    5.8830 O.3     1  DA1        -0.3138
      7  C2'        4.3770    9.7880    6.7860 C.3     1  DA1         0.0865
      8  C1'        4.9810   10.4610    8.0200 C.3     1  DA1         0.2094
      9  N9         5.9620   11.4610    7.6350 N.ar    1  DA1        -0.2714
     10  C8         7.3190   11.3390    7.4820 C.ar    1  DA1         0.1815
     11  N7         7.9080   12.4430    7.0850 N.ar    1  DA1        -0.2193
     12  C5         6.8670   13.3510    6.9700 C.ar    1  DA1         0.1518
     13  C6         6.8310   14.7040    6.5890 C.ar    1  DA1         0.1919
     14  N6         7.9130   15.4040    6.2420 N.pl3   1  DA1        -0.1054
     15  N1         5.6290   15.3190    6.5780 N.ar    1  DA1        -0.2040
     16  C2         4.5450   14.6170    6.9280 C.ar    1  DA1         0.2016
     17  N3         4.4530   13.3440    7.3040 N.ar    1  DA1        -0.2048
     18  C4         5.6630   12.7610    7.3040 C.ar    1  DA1         0.1691
     19  P          4.6360    7.6150    4.2120 P.3     2  DT2         0.2141
     20  OP1        3.9380    6.3950    3.7120 O.2     2  DT2        -0.5172
     21  OP2        6.1090    7.6070    4.3520 O.3     2  DT2        -0.4373
     22  O5'        4.2240    8.8620    3.3100 O.3     2  DT2        -0.3114
     23  C5'        2.8350    9.1190    3.0200 C.3     2  DT2         0.1811
     24  C4'        2.6880   10.3480    2.1670 C.3     2  DT2         0.1746
     25  O4'        2.8450   11.5380    2.9760 O.3     2  DT2        -0.3327
     26  C3'        3.6820   10.4930    1.0270 C.3     2  DT2         0.1558
     27  O3'        3.2270    9.7810   -0.1170 O.3     2  DT2        -0.3138
     28  C2'        3.6780   11.9950    0.7880 C.3     2  DT2         0.0866
     29  C1'        3.4650   12.5490    2.2030 C.3     2  DT2         0.2106
     30  N1         4.6750   12.9880    2.8930 N.ar    2  DT2        -0.2559
     31  C2         5.0580   14.3130    2.7970 C.ar    2  DT2         0.3545
     32  O2         4.3620   15.1700    2.2830 O.2     2  DT2        -0.2443
     33  N3         6.2930   14.6000    3.3260 N.ar    2  DT2        -0.1533
     34  C4         7.1640   13.7170    3.9290 C.ar    2  DT2         0.2804
     35  O4         8.2400   14.1250    4.3580 O.2     2  DT2        -0.2654
     36  C5         6.6950   12.3610    3.9890 C.ar    2  DT2         0.0534
     37  C6         5.4980   12.0530    3.4820 C.ar    2  DT2         0.0824
     38  C7         7.5720   11.3240    4.6260 C.3     2  DT2         0.0377
     39  P          4.3060    9.3700   -1.3620 P.3     3  DA3         0.2141
     40  OP1        3.3980    8.2170   -1.5630 O.3     3  DA3        -0.4373
     41  OP2        5.7590    9.2270   -1.6100 O.2     3  DA3        -0.5172
     42  O5'        3.7780   10.6100   -2.2220 O.3     3  DA3        -0.3114
     43  C5'        4.3980   11.8750   -2.0410 C.3     3  DA3         0.1811
     44  C4'        3.6140   12.9790   -2.7240 C.3     3  DA3         0.1745
     45  O4'        3.5120   12.7100   -4.1430 O.3     3  DA3        -0.3344
     46  C3'        2.1620   13.1180   -2.2970 C.3     3  DA3         0.1538
     47  O3'        2.0610   13.8060   -1.0560 O.3     3  DA3        -0.3139
     48  C2'        1.6120   13.9570   -3.4480 C.3     3  DA3         0.0643
     49  C1'        2.3910   13.4150   -4.6480 C.3     3  DA3         0.1930
     50  N9         1.9560   12.3280   -5.3470 N.ar    3  DA3        -0.2729
     51  C8         2.1660   10.9970   -5.0980 C.ar    3  DA3         0.1815
     52  N7         1.3430   10.2030   -5.7420 N.ar    3  DA3        -0.2193
     53  C5         0.5370   11.0720   -6.4600 C.ar    3  DA3         0.1518
     54  C6        -0.5360   10.8560   -7.3430 C.ar    3  DA3         0.1919
     55  N6        -0.9960    9.6440   -7.6640 N.pl3   3  DA3        -0.1054
     56  N1        -1.1240   11.9400   -7.8910 N.ar    3  DA3        -0.2040
     57  C2        -0.6610   13.1530   -7.5700 C.ar    3  DA3         0.2016
     58  N3         0.3380   13.4830   -6.7550 N.ar    3  DA3        -0.2048
     59  C4         0.9020   12.3840   -6.2260 C.ar    3  DA3         0.1691
     60  P          0.9380   13.5660   -0.2100 P.3     4  DC4         0.2141
     61  OP1        1.0310   14.0360    1.1930 O.3     4  DC4        -0.4373
     62  OP2        0.7280   12.1260   -0.4890 O.2     4  DC4        -0.5172
     63  O5'       -0.2630   14.2830   -1.0060 O.3     4  DC4        -0.3114
     64  C5'       -0.4280   15.6960   -0.9530 C.3     4  DC4         0.1811
     65  C4'       -1.6000   16.2050   -1.7620 C.3     4  DC4         0.1744
     66  O4'       -1.4300   15.8950   -3.1700 O.3     4  DC4        -0.3347
     67  C3'       -2.9710   15.6270   -1.4520 C.3     4  DC4         0.1555
     68  O3'       -3.5690   16.1230   -0.2750 O.3     4  DC4        -0.3139
     69  C2'       -3.7440   16.0170   -2.6950 C.3     4  DC4         0.0837
     70  C1'       -2.6990   15.6950   -3.7600 C.3     4  DC4         0.2015
     71  N1        -2.8690   14.2650   -4.1980 N.am    4  DC4        -0.1944
     72  C2        -3.7610   13.9870   -5.2410 C.2     4  DC4         0.4408
     73  O2        -4.3660   14.9310   -5.7780 O.2     4  DC4        -0.2193
     74  N3        -3.9390   12.7030   -5.6320 N.am    4  DC4         0.0488
     75  C4        -3.2690   11.7220   -5.0260 C.2     4  DC4         0.3912
     76  N4        -3.4760   10.4720   -5.4460 N.pl3   4  DC4         0.2090
     77  C5        -2.3610   11.9820   -3.9680 C.3     4  DC4         0.1749
     78  C6        -2.1880   13.2520   -3.5840 C.3     4  DC4         0.2111
     79  P         -4.1980   15.2660    0.1000 P.3     5  DC5         0.2141
     80  OP1       -4.3550   15.3740    1.5680 O.3     5  DC5        -0.4373
     81  OP2       -4.5080   13.9960   -0.5960 O.2     5  DC5        -0.5172
     82  O5'       -5.1360   16.3510   -0.6170 O.3     5  DC5        -0.3114
     83  C5'       -6.5560   16.2450   -0.5730 C.3     5  DC5         0.1811
     84  C4'       -7.1840   16.6520   -1.8860 C.3     5  DC5         0.1744
     85  O4'       -6.3180   16.2340   -2.9740 O.3     5  DC5        -0.3348
     86  C3'       -8.5340   16.0230   -2.2130 C.3     5  DC5         0.1555
     87  O3'       -9.6450   16.6840   -1.6270 O.3     5  DC5        -0.3139
     88  C2'       -8.5550   16.0360   -3.7380 C.3     5  DC5         0.0836
     89  C1'       -7.0860   15.7760   -4.0650 C.3     5  DC5         0.1999
     90  N1        -6.8230   14.4810   -4.4810 N.pl3   5  DC5        -0.2132
     91  C2        -7.1040   14.0280   -5.7750 C.2     5  DC5         0.4331
     92  O2        -7.7170   14.7810   -6.5520 O.2     5  DC5        -0.2850
     93  N3        -6.7030   12.7880   -6.1420 N.2     5  DC5         0.0237
     94  C4        -6.0490   12.0140   -5.2750 C.2     5  DC5         0.4172
     95  N4        -5.6740   10.7990   -5.6810 N.pl3   5  DC5         0.2162
     96  C5        -5.7540   12.4540   -3.9590 C.2     5  DC5         0.0937
     97  C6        -6.1520   13.6800   -3.6010 C.3     5  DC5         0.1340
     98  P        -11.1710   16.0860   -1.7590 P.3     6  DA6         0.2141
     99  OP1      -11.8350   16.4220   -0.4720 O.3     6  DA6        -0.4373
    100  OP2      -10.8650   14.6690   -2.0790 O.2     6  DA6        -0.5172
    101  O5'      -12.0300   16.7050   -2.9460 O.3     6  DA6        -0.3114
    102  C5'      -12.5380   18.0280   -2.8640 C.3     6  DA6         0.1811
    103  C4'      -13.4160   18.3120   -4.0550 C.3     6  DA6         0.1746
    104  O4'      -12.6060   18.4230   -5.2520 O.3     6  DA6        -0.3327
    105  C3'      -14.3910   17.1970   -4.3780 C.3     6  DA6         0.1558
    106  O3'      -15.5490   17.2940   -3.5660 O.3     6  DA6        -0.3138
    107  C2'      -14.6900   17.4430   -5.8500 C.3     6  DA6         0.0865
    108  C1'      -13.3200   17.8980   -6.3580 C.3     6  DA6         0.2094
    109  N9       -12.5120   16.7460   -6.9370 N.ar    6  DA6        -0.2714
    110  C8       -11.3310   16.1830   -6.5280 C.ar    6  DA6         0.1815
    111  N7       -10.9350   15.1810   -7.2760 N.ar    6  DA6        -0.2193
    112  C5       -11.9240   15.0770   -8.2420 C.ar    6  DA6         0.1518
    113  C6       -12.0930   14.2070   -9.3340 C.ar    6  DA6         0.1919
    114  N6       -11.2300   13.2380   -9.6460 N.pl3   6  DA6        -0.1054
    115  N1       -13.1910   14.3710  -10.1010 N.ar    6  DA6        -0.2040
    116  C2       -14.0550   15.3440   -9.7880 C.ar    6  DA6         0.2016
    117  N3       -14.0050   16.2230   -8.7900 N.ar    6  DA6        -0.2048
    118  C4       -12.9020   16.0330   -8.0450 C.ar    6  DA6         0.1691
    119  P        -15.8510   16.1330   -2.5040 P.3     7  DG7         0.2141
    120  OP1      -17.1700   16.4530   -1.9130 O.2     7  DG7        -0.5172
    121  OP2      -14.7790   15.6480   -1.5990 O.3     7  DG7        -0.4373
    122  O5'      -16.1020   15.0860   -3.6920 O.3     7  DG7        -0.3114
    123  C5'      -17.3980   15.2270   -4.2820 C.3     7  DG7         0.1811
    124  C4'      -17.5670   14.4560   -5.5470 C.3     7  DG7         0.1746
    125  O4'      -16.4440   14.7280   -6.3890 O.3     7  DG7        -0.3327
    126  C3'      -17.5300   12.9580   -5.3750 C.3     7  DG7         0.1558
    127  O3'      -18.7060   12.3420   -4.7890 O.3     7  DG7        -0.3138
    128  C2'      -17.0900   12.4720   -6.7340 C.3     7  DG7         0.0865
    129  C1'      -16.1260   13.5360   -7.1230 C.3     7  DG7         0.2094
    130  N9       -14.8310   13.0170   -6.8740 N.ar    7  DG7        -0.2713
    131  C8       -14.0570   13.4730   -5.8340 C.ar    7  DG7         0.1816
    132  N7       -12.9080   12.8620   -5.7410 N.ar    7  DG7        -0.2173
    133  C5       -12.9180   11.9500   -6.7790 C.ar    7  DG7         0.1748
    134  C6       -11.9440   11.0020   -7.1850 C.ar    7  DG7         0.3023
    135  O6       -10.8370   10.7780   -6.6810 O.2     7  DG7        -0.2633
    136  N1       -12.3600   10.2710   -8.2940 N.ar    7  DG7        -0.1709
    137  C2       -13.5660   10.4330   -8.9340 C.ar    7  DG7         0.2606
    138  N2       -13.7880    9.6360   -9.9880 N.pl3   7  DG7        -0.0859
    139  N3       -14.4800   11.3100   -8.5680 N.ar    7  DG7        -0.1918
    140  C4       -14.0990   12.0300   -7.4930 C.ar    7  DG7         0.1722
    141  P        -18.6350   11.0550   -3.6260 P.3     8  DC8         0.2141
    142  OP1      -19.9890   10.9860   -3.0080 O.2     8  DC8        -0.5172
    143  OP2      -17.4340   11.1850   -2.7560 O.3     8  DC8        -0.4373
    144  O5'      -18.4440    9.7730   -4.5620 O.3     8  DC8        -0.3114
    145  C5'      -19.5610    9.2290   -5.2720 C.3     8  DC8         0.1811
    146  C4'      -19.1180    8.1570   -6.2580 C.3     8  DC8         0.1746
    147  O4'      -17.9170    8.6270   -6.9410 O.3     8  DC8        -0.3327
    148  C3'      -18.6790    6.8160   -5.6740 C.3     8  DC8         0.1558
    149  O3'      -19.7630    5.9130   -5.4520 O.3     8  DC8        -0.3138
    150  C2'      -17.7870    6.2660   -6.7750 C.3     8  DC8         0.0866
    151  C1'      -17.0750    7.5310   -7.2490 C.3     8  DC8         0.2106
    152  N1       -15.8270    7.6810   -6.6130 N.ar    8  DC8        -0.2556
    153  C2       -14.7340    6.8840   -6.9730 C.ar    8  DC8         0.3531
    154  O2       -14.8910    6.0150   -7.8480 O.2     8  DC8        -0.2443
    155  N3       -13.5430    7.0810   -6.3600 N.ar    8  DC8        -0.1739
    156  C4       -13.4210    8.0250   -5.4260 C.ar    8  DC8         0.1759
    157  N4       -12.2280    8.1830   -4.8490 N.pl3   8  DC8        -0.1070
    158  C5       -14.5160    8.8430   -5.0470 C.ar    8  DC8         0.0566
    159  C6       -15.6910    8.6450   -5.6550 C.ar    8  DC8         0.0849
    160  P        -19.5500    4.5750   -4.5220 P.3     9  DT9         0.2141
    161  OP1      -20.7940    3.9040   -4.0870 O.2     9  DT9        -0.5172
    162  OP2      -18.5020    4.8540   -3.5160 O.3     9  DT9        -0.4373
    163  O5'      -18.8910    3.7430   -5.7250 O.3     9  DT9        -0.3114
    164  C5'      -19.6870    3.3110   -6.8340 C.3     9  DT9         0.1811
    165  C4'      -18.8560    2.7050   -7.9560 C.3     9  DT9         0.1746
    166  O4'      -17.8510    3.6520   -8.4070 O.3     9  DT9        -0.3327
    167  C3'      -18.0460    1.4620   -7.6040 C.3     9  DT9         0.1558
    168  O3'      -18.8490    0.2890   -7.6320 O.3     9  DT9        -0.3138
    169  C2'      -16.9850    1.4800   -8.7000 C.3     9  DT9         0.0866
    170  C1'      -16.6460    2.9680   -8.7230 C.3     9  DT9         0.2106
    171  N1       -15.6120    3.3360   -7.7930 N.ar    9  DT9        -0.2559
    172  C2       -14.3010    2.9950   -8.0680 C.ar    9  DT9         0.3545
    173  O2       -13.9770    2.3320   -9.0370 O.2     9  DT9        -0.2443
    174  N3       -13.3780    3.4610   -7.1630 N.ar    9  DT9        -0.1533
    175  C4       -13.6280    4.2150   -6.0360 C.ar    9  DT9         0.2804
    176  O4       -12.6920    4.5600   -5.3190 O.2     9  DT9        -0.2654
    177  C5       -15.0130    4.5270   -5.8190 C.ar    9  DT9         0.0534
    178  C6       -15.9310    4.0870   -6.6830 C.ar    9  DT9         0.0824
    179  C7       -15.3880    5.3440   -4.6180 C.3     9  DT9         0.0377
    180  P        -18.8870   -0.4280   -6.4590 P.3    10  DT10        0.2141
    181  OP1      -20.0160   -1.3530   -6.7350 O.2    10  DT10       -0.5172
    182  OP2      -18.5370   -0.0240   -5.0780 O.3    10  DT10       -0.4373
    183  O5'      -17.5730   -1.0470   -7.1190 O.3    10  DT10       -0.3114
    184  C5'      -17.6000   -1.5390   -8.4330 C.3    10  DT10        0.1811
    185  C4'      -16.1820   -1.8240   -8.8640 C.3    10  DT10        0.1746
    186  O4'      -15.4100   -0.6040   -8.8230 O.3    10  DT10       -0.3327
    187  C3'      -15.3740   -2.7230   -7.9470 C.3    10  DT10        0.1558
    188  O3'      -15.7570   -4.0700   -8.0700 O.3    10  DT10       -0.3138
    189  C2'      -13.9830   -2.4710   -8.5090 C.3    10  DT10        0.0866
    190  C1'      -14.0400   -0.9540   -8.7000 C.3    10  DT10        0.2106
    191  N1       -13.4680   -0.2400   -7.5520 N.ar   10  DT10       -0.2559
    192  C2       -12.1030   -0.2880   -7.3440 C.ar   10  DT10        0.3545
    193  O2       -11.3390   -0.8840   -8.0830 O.2    10  DT10       -0.2443
    194  N3       -11.6600    0.3880   -6.2330 N.ar   10  DT10       -0.1533
    195  C4       -12.4280    1.0930   -5.3300 C.ar   10  DT10        0.2804
    196  O4       -11.8850    1.6500   -4.3790 O.2    10  DT10       -0.2654
    197  C5       -13.8350    1.0950   -5.6140 C.ar   10  DT10        0.0534
    198  C6       -14.2930    0.4460   -6.6880 C.ar   10  DT10        0.0824
    199  C7       -14.7550    1.8340   -4.6880 C.3    10  DT10        0.0377
    200  P        -15.7640   -4.8800   -6.8580 P.3    11  DA11        0.2141
    201  OP1      -16.6600   -5.2400   -7.9760 O.2    11  DA11       -0.5172
    202  OP2      -16.2260   -5.0550   -5.4620 O.3    11  DA11       -0.4373
    203  O5'      -14.4180   -5.7130   -7.0570 O.3    11  DA11       -0.3114
    204  C5'      -13.8390   -5.8560   -8.3700 C.3    11  DA11        0.1811
    205  C4'      -12.3900   -5.4030   -8.3800 C.3    11  DA11        0.1746
    206  O4'      -12.2750   -3.9900   -8.0350 O.3    11  DA11       -0.3327
    207  C3'      -11.4540   -6.0790   -7.3960 C.3    11  DA11        0.1558
    208  O3'      -11.0780   -7.3680   -7.8520 O.3    11  DA11       -0.3138
    209  C2'      -10.2860   -5.0980   -7.3450 C.3    11  DA11        0.0865
    210  C1'      -11.0180   -3.7550   -7.4120 C.3    11  DA11        0.2094
    211  N9       -11.1790   -3.3070   -6.1550 N.ar   11  DA11       -0.2714
    212  C8       -12.3930   -3.1850   -5.5300 C.ar   11  DA11        0.1815
    213  N7       -12.3230   -2.6290   -4.3440 N.ar   11  DA11       -0.2193
    214  C5       -10.9720   -2.3690   -4.1780 C.ar   11  DA11        0.1518
    215  C6       -10.2430   -1.7860   -3.1270 C.ar   11  DA11        0.1919
    216  N6       -10.8010   -1.3400   -1.9990 N.pl3  11  DA11       -0.1054
    217  N1        -8.9060   -1.6760   -3.2770 N.ar   11  DA11       -0.2040
    218  C2        -8.3480   -2.1220   -4.4090 C.ar   11  DA11        0.2016
    219  N3        -8.9270   -2.6870   -5.4660 N.ar   11  DA11       -0.2048
    220  C4       -10.2550   -2.7830   -5.2840 C.ar   11  DA11        0.1691
    221  P        -10.9510   -8.4740   -6.8510 P.3    12  DT12        0.2141
    222  OP1      -10.8640   -9.8520   -7.3850 O.2    12  DT12       -0.5172
    223  OP2      -12.1490   -8.0310   -6.0990 O.3    12  DT12       -0.4373
    224  O5'       -9.7430   -8.2250   -5.8230 O.3    12  DT12       -0.3114
    225  C5'       -8.4260   -8.6490   -6.1570 C.3    12  DT12        0.1811
    226  C4'       -7.3530   -7.9070   -5.3950 C.3    12  DT12        0.1746
    227  O4'       -7.6660   -6.4910   -5.3390 O.3    12  DT12       -0.3327
    228  C3'       -7.1740   -8.2760   -3.9330 C.3    12  DT12        0.1558
    229  O3'       -6.4670   -9.4870   -3.7280 O.3    12  DT12       -0.3138
    230  C2'       -6.4500   -7.0480   -3.3980 C.3    12  DT12        0.0866
    231  C1'       -7.1980   -5.9370   -4.1280 C.3    12  DT12        0.2106
    232  N1        -8.3590   -5.4930   -3.2380 N.ar   12  DT12       -0.2559
    233  C2        -8.1060   -4.6000   -2.2140 C.ar   12  DT12        0.3545
    234  O2        -6.9810   -4.3370   -1.8240 O.2    12  DT12       -0.2443
    235  N3        -9.2210   -4.0220   -1.6570 N.ar   12  DT12       -0.1533
    236  C4       -10.5350   -4.2430   -2.0130 C.ar   12  DT12        0.2804
    237  O4       -11.4310   -3.6480   -1.4200 O.2    12  DT12       -0.2654
    238  C5       -10.7160   -5.1840   -3.0830 C.ar   12  DT12        0.0534
    239  C6        -9.6480   -5.7600   -3.6430 C.ar   12  DT12        0.0824
    240  C7       -12.1100   -5.4930   -3.5430 C.3    12  DT12        0.0377
    241  P         -7.1240  -10.5590   -2.7450 P.3    13  DT13        0.2141
    242  OP1       -6.4910  -11.8600   -3.0890 O.2    13  DT13       -0.5172
    243  OP2       -8.5910  -10.4910   -2.5390 O.3    13  DT13       -0.4373
    244  O5'       -6.4200   -9.9720   -1.4420 O.3    13  DT13       -0.3114
    245  C5'       -5.0010   -9.9330   -1.3420 C.3    13  DT13        0.1811
    246  C4'       -4.5750   -9.1110   -0.1440 C.3    13  DT13        0.1746
    247  O4'       -5.0150   -7.7350   -0.3130 O.3    13  DT13       -0.3327
    248  C3'       -5.1730   -9.4930    1.1980 C.3    13  DT13        0.1558
    249  O3'       -4.5170  -10.5970    1.7950 O.3    13  DT13       -0.3138
    250  C2'       -4.9190   -8.2320    2.0010 C.3    13  DT13        0.0866
    251  C1'       -5.2260   -7.1520    0.9630 C.3    13  DT13        0.2106
    252  N1        -6.6490   -6.6550    1.0660 N.ar   13  DT13       -0.2559
    253  C2        -6.8850   -5.7430    2.0770 C.ar   13  DT13        0.3545
    254  O2        -6.0080   -5.3260    2.8130 O.2    13  DT13       -0.2443
    255  N3        -8.1910   -5.3340    2.1980 N.ar   13  DT13       -0.1533
    256  C4        -9.2610   -5.7370    1.4260 C.ar   13  DT13        0.2804
    257  O4       -10.3780   -5.2790    1.6560 O.2    13  DT13       -0.2654
    258  C5        -8.9360   -6.6850    0.3990 C.ar   13  DT13        0.0534
    259  C6        -7.6740   -7.1000    0.2590 C.ar   13  DT13        0.0824
    260  C7       -10.0330   -7.1850   -0.4930 C.3    13  DT13        0.0377
    261  P         -5.2850  -11.4460    3.1120 P.3    14  DC14        0.2141
    262  OP1       -4.4360  -12.6180    3.4220 O.3    14  DC14       -0.4373
    263  OP2       -6.7020  -11.6420    2.7270 O.2    14  DC14       -0.5172
    264  O5'       -5.3740  -10.4580    4.3750 O.3    14  DC14       -0.3114
    265  C5'       -4.2220  -10.1320    5.1420 C.3    14  DC14        0.1811
    266  C4'       -4.4070   -8.9190    6.0310 C.3    14  DC14        0.1746
    267  O4'       -4.7970   -7.7500    5.2590 O.3    14  DC14       -0.3327
    268  C3'       -5.4900   -8.9910    7.0960 C.3    14  DC14        0.1558
    269  O3'       -5.1670   -9.8170    8.2000 O.3    14  DC14       -0.3138
    270  C2'       -5.6470   -7.5180    7.4540 C.3    14  DC14        0.0866
    271  C1'       -5.5900   -6.8930    6.0620 C.3    14  DC14        0.2106
    272  N1        -6.9520   -6.7620    5.4820 N.ar   14  DC14       -0.2556
    273  C2        -7.8050   -5.7830    6.0040 C.ar   14  DC14        0.3531
    274  O2        -7.3970   -5.0720    6.9390 O.2    14  DC14       -0.2443
    275  N3        -9.0440   -5.6390    5.4780 N.ar   14  DC14       -0.1739
    276  C4        -9.4390   -6.4250    4.4760 C.ar   14  DC14        0.1759
    277  N4       -10.6700   -6.2470    3.9900 N.pl3  14  DC14       -0.1070
    278  C5        -8.5900   -7.4230    3.9330 C.ar   14  DC14        0.0566
    279  C6        -7.3670   -7.5620    4.4550 C.ar   14  DC14        0.0849
    280  P         -6.1510  -10.7460    8.6630 P.3    15  DA15        0.2141
    281  OP1       -5.2740  -11.7040    9.3810 O.3    15  DA15       -0.4373
    282  OP2       -6.7540  -11.1310    7.3540 O.2    15  DA15       -0.5172
    283  O5'       -7.2950  -10.2490    9.6580 O.3    15  DA15       -0.3114
    284  C5'       -6.9670   -9.5600   10.8690 C.3    15  DA15        0.1811
    285  C4'       -8.1530   -8.7510   11.3460 C.3    15  DA15        0.1746
    286  O4'       -8.3980   -7.6640   10.4170 O.3    15  DA15       -0.3327
    287  C3'       -9.4730   -9.4980   11.3980 C.3    15  DA15        0.1558
    288  O3'       -9.6170  -10.2460   12.5910 O.3    15  DA15       -0.3138
    289  C2'      -10.4930   -8.3730   11.2780 C.3    15  DA15        0.0865
    290  C1'       -9.7980   -7.4620   10.2680 C.3    15  DA15        0.2094
    291  N9       -10.2030   -7.8040    8.8640 N.ar   15  DA15       -0.2714
    292  C8        -9.4460   -8.3520    7.8620 C.ar   15  DA15        0.1815
    293  N7       -10.0860   -8.4730    6.7220 N.ar   15  DA15       -0.2193
    294  C5       -11.3490   -7.9720    6.9950 C.ar   15  DA15        0.1518
    295  C6       -12.4990   -7.8210    6.2010 C.ar   15  DA15        0.1919
    296  N6       -12.5610   -8.1760    4.9150 N.pl3  15  DA15       -0.1054
    297  N1       -13.5950   -7.2870    6.7800 N.ar   15  DA15       -0.2040
    298  C2       -13.5310   -6.9310    8.0680 C.ar   15  DA15        0.2016
    299  N3       -12.5090   -7.0220    8.9160 N.ar   15  DA15       -0.2048
    300  C4       -11.4360   -7.5570    8.3110 C.ar   15  DA15        0.1691
    301  P         -9.9610  -11.8260   12.4810 P.3    16  DA16        0.2141
    302  OP1       -9.6820  -12.5040   13.7780 O.3    16  DA16       -0.4373
    303  OP2       -9.7710  -12.6600   11.2540 O.2    16  DA16       -0.5172
    304  O5'      -11.4030  -11.1390   12.5510 O.3    16  DA16       -0.3114
    305  C5'      -11.7680  -10.5150   13.7440 C.3    16  DA16        0.1811
    306  C4'      -13.0490   -9.7380   13.5580 C.3    16  DA16        0.1746
    307  O4'      -12.9480   -8.8710   12.4110 O.3    16  DA16       -0.3327
    308  C3'      -14.3000  -10.5320   13.2250 C.3    16  DA16        0.1558
    309  O3'      -14.7530  -11.1980   14.3620 O.3    16  DA16       -0.3138
    310  C2'      -15.1970   -9.3940   12.7360 C.3    16  DA16        0.0865
    311  C1'      -14.2120   -8.7590   11.7780 C.3    16  DA16        0.2094
    312  N9       -14.1250   -9.4970   10.4290 N.ar   16  DA16       -0.2714
    313  C8       -13.1280  -10.3220    9.9770 C.ar   16  DA16        0.1815
    314  N7       -13.3200  -10.7640    8.7570 N.ar   16  DA16       -0.2190
    315  C5       -14.5260  -10.1920    8.3820 C.ar   16  DA16        0.1560
    316  C6       -15.2820  -10.2690    7.1990 C.ar   16  DA16        0.2232
    317  N6       -14.9150  -10.9830    6.1330 N.2    16  DA16       -0.0540
    318  N1       -16.4400   -9.5770    7.1500 N.ar   16  DA16       -0.2004
    319  C2       -16.8060   -8.8610    8.2200 C.ar   16  DA16        0.2018
    320  N3       -16.1800   -8.7100    9.3850 N.ar   16  DA16       -0.2048
    321  C4       -15.0340   -9.4100    9.4020 C.ar   16  DA16        0.1694
    322  P        -15.3990  -12.4600   14.1470 P.3    17  DT17        0.2141
    323  OP1      -15.6860  -12.9090   15.5300 O.3    17  DT17       -0.4373
    324  OP2      -14.5040  -13.2320   13.2540 O.2    17  DT17       -0.5172
    325  O5'      -16.7610  -12.3870   13.3180 O.3    17  DT17       -0.3114
    326  C5'      -17.8480  -11.6650   13.8820 C.3    17  DT17        0.1811
    327  C4'      -19.1180  -11.8670   13.0990 C.3    17  DT17        0.1746
    328  O4'      -19.1030  -10.9640   11.9600 O.3    17  DT17       -0.3327
    329  C3'      -19.2980  -13.2740   12.5320 C.3    17  DT17        0.1558
    330  O3'      -20.2640  -14.0660   13.2180 O.3    17  DT17       -0.3138
    331  C2'      -19.7560  -13.0790   11.0910 C.3    17  DT17        0.0866
    332  C1'      -19.5730  -11.6020   10.7910 C.3    17  DT17        0.2106
    333  N1       -18.5350  -11.6430    9.7580 N.ar   17  DT17       -0.2559
    334  C2       -18.9930  -11.6690    8.4550 C.ar   17  DT17        0.3545
    335  O2       -20.1730  -11.5950    8.1640 O.2    17  DT17       -0.2443
    336  N3       -18.0140  -11.7860    7.4980 N.ar   17  DT17       -0.1548
    337  C4       -16.6540  -11.8770    7.7090 C.ar   17  DT17        0.2598
    338  O4       -15.8980  -11.9770    6.7460 O.3    17  DT17       -0.3326
    339  C5       -16.2580  -11.8440    9.0880 C.ar   17  DT17        0.0516
    340  C6       -17.1890  -11.7310   10.0390 C.ar   17  DT17        0.0824
    341  C7       -14.7980  -11.9380    9.4210 C.3    17  DT17        0.0376
    342  P        -19.9880  -15.5180   13.0790 P.3    18  DT18        0.2141
    343  OP1      -20.3300  -16.3300   14.2700 O.3    18  DT18       -0.4373
    344  OP2      -18.7000  -15.7130   12.3710 O.2    18  DT18       -0.5172
    345  O5'      -21.0830  -15.7690   11.9400 O.3    18  DT18       -0.3114
    346  C5'      -22.3180  -15.0750   11.9720 C.3    18  DT18        0.1811
    347  C4'      -23.0550  -15.2320   10.6690 C.3    18  DT18        0.1746
    348  O4'      -22.4320  -14.4300    9.6330 O.3    18  DT18       -0.3327
    349  C3'      -23.0430  -16.6280   10.0740 C.3    18  DT18        0.1558
    350  O3'      -23.9230  -17.5250   10.7250 O.3    18  DT18       -0.3138
    351  C2'      -23.3740  -16.3500    8.6150 C.3    18  DT18        0.0866
    352  C1'      -22.5360  -15.0950    8.3890 C.3    18  DT18        0.2106
    353  N1       -21.1580  -15.4860    7.7970 N.ar   18  DT18       -0.2559
    354  C2       -21.0860  -15.8440    6.4650 C.ar   18  DT18        0.3545
    355  O2       -22.0680  -15.9580    5.7530 O.2    18  DT18       -0.2443
    356  N3       -19.8150  -16.0680    5.9910 N.ar   18  DT18       -0.1533
    357  C4       -18.6360  -15.9700    6.7000 C.ar   18  DT18        0.2804
    358  O4       -17.5700  -16.2010    6.1350 O.2    18  DT18       -0.2654
    359  C5       -18.7940  -15.5940    8.0770 C.ar   18  DT18        0.0534
    360  C6       -20.0180  -15.3710    8.5630 C.ar   18  DT18        0.0824
    361  C7       -17.5690  -15.4620    8.9330 C.3    18  DT18        0.0377
    362  P        -23.1650  -18.8740   11.5020 P.3    19  DA19        0.2141
    363  OP1      -24.0600  -19.5880   12.4490 O.3    19  DA19       -0.4373
    364  OP2      -21.8410  -18.3920   11.9630 O.2    19  DA19       -0.5172
    365  O5'      -22.9300  -19.8190   10.2380 O.3    19  DA19       -0.3114
    366  C5'      -24.0370  -20.4680    9.5900 C.3    19  DA19        0.1811
    367  C4'      -23.6170  -21.0160    8.2460 C.3    19  DA19        0.1746
    368  O4'      -23.0720  -19.9380    7.4380 O.3    19  DA19       -0.3327
    369  C3'      -22.5210  -22.0740    8.2270 C.3    19  DA19        0.1558
    370  O3'      -23.0250  -23.3840    8.5190 O.3    19  DA19       -0.3138
    371  C2'      -22.0390  -21.9660    6.7900 C.3    19  DA19        0.0865
    372  C1'      -22.0640  -20.4500    6.5810 C.3    19  DA19        0.2094
    373  N9       -20.8600  -19.8700    6.9300 N.ar   19  DA19       -0.2714
    374  C8       -20.4200  -19.3630    8.1250 C.ar   19  DA19        0.1815
    375  N7       -19.1690  -18.9670    8.1030 N.ar   19  DA19       -0.2193
    376  C5       -18.7600  -19.2330    6.8060 C.ar   19  DA19        0.1518
    377  C6       -17.5350  -19.0420    6.1420 C.ar   19  DA19        0.1919
    378  N6       -16.4550  -18.5140    6.7220 N.pl3  19  DA19       -0.1054
    379  N1       -17.4590  -19.4160    4.8470 N.ar   19  DA19       -0.2040
    380  C2       -18.5430  -19.9430    4.2660 C.ar   19  DA19        0.2016
    381  N3       -19.7470  -20.1720    4.7850 N.ar   19  DA19       -0.2048
    382  C4       -19.7900  -19.7910    6.0720 C.ar   19  DA19        0.1691
    383  P        -22.0940  -24.4560    9.1050 P.3    20  DA20        0.2141
    384  OP1      -22.8110  -25.4450    9.9510 O.3    20  DA20       -0.4373
    385  OP2      -20.7100  -24.0650    9.4540 O.2    20  DA20       -0.5172
    386  O5'      -22.0690  -24.9350    7.5930 O.3    20  DA20       -0.3114
    387  C5'      -21.3020  -26.0470    7.2540 C.3    20  DA20        0.1811
    388  C4'      -20.4630  -25.7770    6.0410 C.3    20  DA20        0.1746
    389  O4'      -20.0420  -24.3870    5.8950 O.3    20  DA20       -0.3327
    390  C3'      -19.1520  -26.5140    6.1430 C.3    20  DA20        0.1558
    391  O3'      -19.3090  -27.9070    6.0450 O.3    20  DA20       -0.3138
    392  C2'      -18.2920  -25.8060    5.1100 C.3    20  DA20        0.0865
    393  C1'      -18.7360  -24.3500    5.3040 C.3    20  DA20        0.2094
    394  N9       -17.8470  -23.7530    6.3000 N.ar   20  DA20       -0.2714
    395  C8       -18.3570  -23.1520    7.4200 C.ar   20  DA20        0.1815
    396  N7       -17.5020  -22.3700    8.0360 N.ar   20  DA20       -0.2193
    397  C5       -16.3520  -22.4650    7.2690 C.ar   20  DA20        0.1518
    398  C6       -15.0820  -21.8740    7.3890 C.ar   20  DA20        0.1919
    399  N6       -14.7490  -21.0330    8.3720 N.pl3  20  DA20       -0.1054
    400  N1       -14.1570  -22.1790    6.4550 N.ar   20  DA20       -0.2040
    401  C2       -14.4930  -23.0210    5.4700 C.ar   20  DA20        0.2016
    402  N3       -15.6520  -23.6380    5.2500 N.ar   20  DA20       -0.2048
    403  C4       -16.5490  -23.3150    6.1960 C.ar   20  DA20        0.1691
    404  P        -18.6360  -28.7090    7.0930 P.3    21  DT21        0.2141
    405  OP1      -19.5600  -29.8360    7.3550 O.2    21  DT21       -0.5172
    406  OP2      -18.5030  -27.6200    8.0930 O.3    21  DT21       -0.4373
    407  O5'      -17.1630  -29.2680    6.8280 O.3    21  DT21       -0.3114
    408  C5'      -16.8280  -29.9350    5.6010 C.3    21  DT21        0.1811
    409  C4'      -15.3280  -29.9370    5.3760 C.3    21  DT21        0.1746
    410  O4'      -14.8200  -28.5800    5.3890 O.3    21  DT21       -0.3327
    411  C3'      -14.4510  -30.6370    6.4020 C.3    21  DT21        0.1558
    412  O3'      -14.4660  -32.0520    6.1940 O.3    21  DT21       -0.3138
    413  C2'      -13.0770  -30.0420    6.0990 C.3    21  DT21        0.0866
    414  C1'      -13.4400  -28.6030    5.7230 C.3    21  DT21        0.2106
    415  N1       -13.1750  -27.5460    6.8230 N.ar   21  DT21       -0.2559
    416  C2       -11.8790  -27.1290    7.0630 C.ar   21  DT21        0.3545
    417  O2       -10.9200  -27.5470    6.4390 O.2    21  DT21       -0.2443
    418  N3       -11.7440  -26.2020    8.0680 N.ar   21  DT21       -0.1533
    419  C4       -12.7510  -25.6610    8.8390 C.ar   21  DT21        0.2804
    420  O4       -12.4740  -24.8350    9.7050 O.2    21  DT21       -0.2654
    421  C5       -14.0680  -26.1440    8.5300 C.ar   21  DT21        0.0534
    422  C6       -14.2280  -27.0460    7.5580 C.ar   21  DT21        0.0824
    423  C7       -15.2320  -25.6160    9.3150 C.3    21  DT21        0.0377
    424  P        -13.7120  -33.1730    7.4340 P.3    22  DC22        0.2141
    425  OP1      -13.9600  -34.6370    7.3930 O.2    22  DC22       -0.5172
    426  OP2      -14.4130  -32.3380    8.4420 O.3    22  DC22       -0.4373
    427  O5'      -12.1410  -32.9340    7.5990 O.3    22  DC22       -0.3114
    428  C5'      -11.2030  -33.6580    6.8040 C.3    22  DC22        0.1811
    429  C4'       -9.7900  -33.1890    7.0840 C.3    22  DC22        0.1746
    430  O4'       -9.6820  -31.7700    6.7850 O.3    22  DC22       -0.3327
    431  C3'       -9.3020  -33.2790    8.5210 C.3    22  DC22        0.1558
    432  O3'       -8.8490  -34.5830    8.8660 O.3    22  DC22       -0.3138
    433  C2'       -8.1430  -32.2920    8.5120 C.3    22  DC22        0.0866
    434  C1'       -8.7170  -31.1740    7.6400 C.3    22  DC22        0.2106
    435  N1        -9.3790  -30.1410    8.4560 N.ar   22  DC22       -0.2556
    436  C2        -8.5840  -29.1890    9.1050 C.ar   22  DC22        0.3531
    437  O2        -7.3520  -29.2350    8.9520 O.2    22  DC22       -0.2443
    438  N3        -9.1790  -28.2490    9.8780 N.ar   22  DC22       -0.1739
    439  C4       -10.5060  -28.2390   10.0140 C.ar   22  DC22        0.1759
    440  N4       -11.0480  -27.2940   10.7860 N.pl3  22  DC22       -0.1070
    441  C5       -11.3290  -29.1950    9.3650 C.ar   22  DC22        0.0566
    442  C6       -10.7370  -30.1210    8.6020 C.ar   22  DC22        0.0849
    443  P         -8.6880  -34.9990   10.4390 P.3    23  DG23        0.2141
    444  OP1       -8.3400  -36.4330   10.6050 O.2    23  DG23       -0.5172
    445  OP2       -9.5270  -34.3230   11.4650 O.3    23  DG23       -0.4373
    446  O5'       -7.3370  -34.1720   10.3140 O.3    23  DG23       -0.3114
    447  C5'       -6.3950  -34.4610    9.3020 C.3    23  DG23        0.1811
    448  C4'       -5.2040  -33.5660    9.4720 C.3    23  DG23        0.1746
    449  O4'       -5.6200  -32.1910    9.2780 O.3    23  DG23       -0.3327
    450  C3'       -4.6330  -33.5880   10.8740 C.3    23  DG23        0.1558
    451  O3'       -3.6710  -34.6130   10.9750 O.3    23  DG23       -0.3138
    452  C2'       -3.9990  -32.2130   10.9780 C.3    23  DG23        0.0865
    453  C1'       -5.0650  -31.3670   10.2910 C.3    23  DG23        0.2094
    454  N9        -6.0330  -30.9380   11.3270 N.ar   23  DG23       -0.2713
    455  C8        -7.3390  -31.3280   11.5010 C.ar   23  DG23        0.1816
    456  N7        -7.9160  -30.7560   12.5210 N.ar   23  DG23       -0.2173
    457  C5        -6.9380  -29.9380   13.0550 C.ar   23  DG23        0.1748
    458  C6        -6.9710  -29.0690   14.1760 C.ar   23  DG23        0.3023
    459  O6        -7.9150  -28.8450   14.9440 O.2    23  DG23       -0.2633
    460  N1        -5.7540  -28.4230   14.3700 N.ar   23  DG23       -0.1709
    461  C2        -4.6410  -28.5930   13.5820 C.ar   23  DG23        0.2606
    462  N2        -3.5580  -27.8820   13.9260 N.pl3  23  DG23       -0.0859
    463  N3        -4.5940  -29.3970   12.5380 N.ar   23  DG23       -0.1918
    464  C4        -5.7650  -30.0360   12.3310 C.ar   23  DG23        0.1722
    465  P         -3.5890  -35.4200   12.3190 P.3    24  DC24        0.2141
    466  OP1       -3.0390  -36.7880   12.1700 O.2    24  DC24       -0.5172
    467  OP2       -4.1980  -34.9930   13.6010 O.3    24  DC24       -0.4373
    468  O5'       -2.4440  -34.3410   12.0510 O.3    24  DC24       -0.3114
    469  C5'       -1.2580  -34.4210   12.8130 C.3    24  DC24        0.1811
    470  C4'       -0.7560  -33.0660   13.2340 C.3    24  DC24        0.1746
    471  O4'       -1.7420  -32.0210   13.0180 O.3    24  DC24       -0.3327
    472  C3'       -0.4620  -32.9790   14.7130 C.3    24  DC24        0.1558
    473  O3'        0.7310  -33.6520   15.0610 O.3    24  DC24       -0.3138
    474  C2'       -0.4780  -31.4780   14.9630 C.3    24  DC24        0.0866
    475  C1'       -1.6250  -31.0520   14.0440 C.3    24  DC24        0.2106
    476  N1        -2.8860  -30.9080   14.7330 N.ar   24  DC24       -0.2556
    477  C2        -3.0940  -29.8900   15.6710 C.ar   24  DC24        0.3531
    478  O2        -2.1400  -29.1550   15.9770 O.2    24  DC24       -0.2443
    479  N3        -4.3250  -29.7380   16.2160 N.ar   24  DC24       -0.1739
    480  C4        -5.3190  -30.5510   15.8580 C.ar   24  DC24        0.1759
    481  N4        -6.5140  -30.3630   16.4220 N.pl3  24  DC24       -0.1070
    482  C5        -5.1280  -31.5880   14.9090 C.ar   24  DC24        0.0566
    483  C6        -3.9120  -31.7350   14.3730 C.ar   24  DC24        0.0849
    484  P          0.5860  -34.4500   16.1600 P.3    25  DA25        0.2141
    485  OP1        1.8360  -35.2110   16.0130 O.2    25  DA25       -0.5172
    486  OP2       -0.7010  -35.1780   16.2770 O.3    25  DA25       -0.4373
    487  O5'        0.7140  -33.4820   17.4220 O.3    25  DA25       -0.3114
    488  C5'        1.8720  -32.6370   17.6080 C.3    25  DA25        0.1811
    489  C4'        1.5770  -31.5620   18.6360 C.3    25  DA25        0.1746
    490  O4'        0.3660  -30.8620   18.2380 O.3    25  DA25       -0.3327
    491  C3'        1.2960  -32.0310   20.0610 C.3    25  DA25        0.1558
    492  O3'        2.5210  -32.2000   20.7900 O.3    25  DA25       -0.3138
    493  C2'        0.4550  -30.8840   20.6140 C.3    25  DA25        0.0865
    494  C1'       -0.3740  -30.4930   19.3880 C.3    25  DA25        0.2094
    495  N9        -1.6370  -31.1190   19.2440 N.ar   25  DA25       -0.2714
    496  C8        -1.9450  -32.1570   18.4030 C.ar   25  DA25        0.1815
    497  N7        -3.2230  -32.4530   18.3740 N.ar   25  DA25       -0.2193
    498  C5        -3.7930  -31.5480   19.2560 C.ar   25  DA25        0.1518
    499  C6        -5.1200  -31.3390   19.6700 C.ar   25  DA25        0.1919
    500  N6        -6.1540  -32.0580   19.2290 N.pl3  25  DA25       -0.1054
    501  N1        -5.3490  -30.3530   20.5630 N.ar   25  DA25       -0.2040
    502  C2        -4.3120  -29.6310   21.0040 C.ar   25  DA25        0.2016
    503  N3        -3.0230  -29.7320   20.6880 N.ar   25  DA25       -0.2048
    504  C4        -2.8280  -30.7210   19.8000 C.ar   25  DA25        0.1691
    505  P          2.6200  -33.1290   22.3120 P.3    26  DT26        0.2141
    506  OP1        3.9620  -33.5340   22.7840 O.3    26  DT26       -0.4373
    507  OP2        1.6960  -34.1500   21.7700 O.2    26  DT26       -0.5172
    508  O5'        1.8610  -32.3800   23.4990 O.3    26  DT26       -0.3114
    509  C5'        2.4300  -31.2260   24.0990 C.3    26  DT26        0.1811
    510  C4'        1.3360  -30.3570   24.6840 C.3    26  DT26        0.1746
    511  O4'        0.3270  -30.0930   23.6760 O.3    26  DT26       -0.3327
    512  C3'        0.5480  -30.9980   25.8120 C.3    26  DT26        0.1558
    513  O3'        1.2470  -30.8870   27.0370 O.3    26  DT26       -0.3138
    514  C2'       -0.7250  -30.1630   25.7910 C.3    26  DT26        0.0866
    515  C1'       -0.9530  -30.0320   24.2870 C.3    26  DT26        0.2106
    516  N1        -1.7980  -31.1850   23.7970 N.ar   26  DT26       -0.2559
    517  C2        -3.1640  -31.1910   24.0080 C.ar   26  DT26        0.3545
    518  O2        -3.7170  -30.4420   24.7940 O.2    26  DT26       -0.2443
    519  N3        -3.8630  -32.1090   23.2640 N.ar   26  DT26       -0.1533
    520  C4        -3.3460  -33.0030   22.3490 C.ar   26  DT26        0.2804
    521  O4        -4.1020  -33.7680   21.7560 O.2    26  DT26       -0.2654
    522  C5        -1.9210  -32.9360   22.1870 C.ar   26  DT26        0.0534
    523  C6        -1.2160  -32.0520   22.8980 C.ar   26  DT26        0.0824
    524  C7        -1.2630  -33.8690   21.2140 C.3    26  DT26        0.0377
    525  P          1.5950  -32.2210   27.9090 P.3    27  DT27        0.2141
    526  OP1        2.6270  -32.2490   28.9710 O.3    27  DT27       -0.4373
    527  OP2        1.5340  -33.3250   26.9200 O.2    27  DT27       -0.5172
    528  O5'        0.1620  -32.0240   28.6040 O.3    27  DT27       -0.3114
    529  C5'       -0.1080  -30.8040   29.2980 C.3    27  DT27        0.1811
    530  C4'       -1.5560  -30.3580   29.1710 C.3    27  DT27        0.1746
    531  O4'       -1.9100  -30.0430   27.7970 O.3    27  DT27       -0.3327
    532  C3'       -2.6040  -31.3860   29.5570 C.3    27  DT27        0.1558
    533  O3'       -2.6900  -31.5270   30.9620 O.3    27  DT27       -0.3138
    534  C2'       -3.8350  -30.7100   28.9750 C.3    27  DT27        0.0866
    535  C1'       -3.2870  -30.3310   27.6050 C.3    27  DT27        0.2106
    536  N1        -3.3650  -31.4800   26.6260 N.ar   27  DT27       -0.2559
    537  C2        -4.6140  -31.8660   26.1780 C.ar   27  DT27        0.3545
    538  O2        -5.6460  -31.3390   26.5550 O.2    27  DT27       -0.2443
    539  N3        -4.6130  -32.8960   25.2700 N.ar   27  DT27       -0.1533
    540  C4        -3.5130  -33.5650   24.7750 C.ar   27  DT27        0.2804
    541  O4        -3.6720  -34.4720   23.9610 O.2    27  DT27       -0.2654
    542  C5        -2.2530  -33.1070   25.2880 C.ar   27  DT27        0.0534
    543  C6        -2.2250  -32.1070   26.1730 C.ar   27  DT27        0.0824
    544  C7        -0.9960  -33.7720   24.8100 C.3    27  DT27        0.0377
    545  P         -2.5890  -32.7710   31.3060 P.3    28  DA28        0.2141
    546  OP1       -1.9510  -32.2660   32.5390 O.3    28  DA28       -0.4373
    547  OP2       -1.7810  -33.5210   30.3150 O.2    28  DA28       -0.5172
    548  O5'       -3.8140  -33.6990   31.7180 O.3    28  DA28       -0.3114
    549  C5'       -4.8530  -33.1890   32.5480 C.3    28  DA28        0.1811
    550  C4'       -6.1980  -33.3590   31.8770 C.3    28  DA28        0.1744
    551  O4'       -6.1080  -32.9660   30.4830 O.3    28  DA28       -0.3349
    552  C3'       -6.7740  -34.7610   31.8120 C.3    28  DA28        0.1555
    553  O3'       -7.3950  -35.0730   33.0510 O.3    28  DA28       -0.3139
    554  C2'       -7.8010  -34.6110   30.7000 C.3    28  DA28        0.0835
    555  C1'       -7.0540  -33.7000   29.7260 C.3    28  DA28        0.1974
    556  N9        -6.2910  -34.4250   28.9470 N.pl3  28  DA28       -0.2458
    557  C8        -4.9270  -34.5180   28.8510 C.2    28  DA28        0.1669
    558  N7        -4.5130  -35.1190   27.7610 N.2    28  DA28       -0.2207
    559  C5        -5.6840  -35.4450   27.0960 C.2    28  DA28        0.1919
    560  C6        -5.9290  -36.0980   25.8750 C.2    28  DA28        0.4324
    561  N6        -4.9630  -36.5560   25.0760 N.pl3  28  DA28        0.2176
    562  N1        -7.2150  -36.2640   25.5010 N.4    28  DA28        0.0008
    563  C2        -8.1820  -35.8040   26.3020 C.2    28  DA28        0.3340
    564  N3        -8.0780  -35.1740   27.4710 N.2    28  DA28       -0.2009
    565  C4        -6.7880  -35.0250   27.8150 C.3    28  DA28        0.2335
    566  P         -7.8310  -36.7700   33.4980 P.3    29  DC29        0.2141
    567  OP1       -8.0590  -37.1410   34.9080 O.3    29  DC29       -0.4373
    568  OP2       -6.4720  -36.8200   32.9410 O.2    29  DC29       -0.5172
    569  O5'       -8.7060  -37.6750   32.5150 O.3    29  DC29       -0.3114
    570  C5'      -10.1170  -37.8180   32.6590 C.3    29  DC29        0.1811
    571  C4'      -10.7700  -37.9490   31.2960 C.3    29  DC29        0.1746
    572  O4'      -10.0210  -37.1460   30.3440 O.3    29  DC29       -0.3327
    573  C3'      -10.8060  -39.3050   30.6080 C.3    29  DC29        0.1558
    574  O3'      -11.8330  -40.1610   31.0890 O.3    29  DC29       -0.3138
    575  C2'      -11.1030  -38.8930   29.1750 C.3    29  DC29        0.0866
    576  C1'      -10.1980  -37.6720   29.0360 C.3    29  DC29        0.2106
    577  N1        -8.8210  -38.1020   28.5880 N.ar   29  DC29       -0.2556
    578  C2        -8.6450  -38.4780   27.2520 C.ar   29  DC29        0.3531
    579  O2        -9.6220  -38.4380   26.4860 O.2    29  DC29       -0.2443
    580  N3        -7.4190  -38.8740   26.8350 N.ar   29  DC29       -0.1739
    581  C4        -6.3990  -38.9020   27.6940 C.ar   29  DC29        0.1759
    582  N4        -5.2090  -39.3000   27.2370 N.pl3  29  DC29       -0.1070
    583  C5        -6.5570  -38.5250   29.0520 C.ar   29  DC29        0.0566
    584  C6        -7.7690  -38.1340   29.4590 C.ar   29  DC29        0.0849
    585  P        -11.8280  -41.4120   30.6620 P.3    30  DC30        0.2141
    586  OP1      -12.7920  -42.1040   31.5500 O.3    30  DC30       -0.4373
    587  OP2      -10.3890  -41.7500   30.7110 O.2    30  DC30       -0.5172
    588  O5'      -12.2370  -41.6330   29.1330 O.3    30  DC30       -0.3114
    589  C5'      -13.5190  -41.1860   28.7240 C.3    30  DC30        0.1811
    590  C4'      -13.5460  -40.8000   27.2690 C.3    30  DC30        0.1744
    591  O4'      -12.5160  -39.8200   26.9950 O.3    30  DC30       -0.3348
    592  C3'      -13.2630  -41.9130   26.2730 C.3    30  DC30        0.1555
    593  O3'      -14.3930  -42.7330   26.0440 O.3    30  DC30       -0.3139
    594  C2'      -12.8240  -41.1450   25.0350 C.3    30  DC30        0.0836
    595  C1'      -12.1210  -39.9320   25.6440 C.3    30  DC30        0.1999
    596  N1       -10.7080  -39.9210   25.5030 N.pl3  30  DC30       -0.2150
    597  C2       -10.1010  -39.6290   24.2750 C.2    30  DC30        0.4076
    598  O2       -10.8090  -39.2090   23.3440 O.2    30  DC30       -0.4277
    599  N3        -8.7660  -39.8140   24.1390 N.2    30  DC30        0.0217
    600  C4        -8.0470  -40.2680   25.1660 C.2    30  DC30        0.4171
    601  N4        -6.7350  -40.4330   24.9850 N.pl3  30  DC30        0.2162
    602  C5        -8.6430  -40.5690   26.4180 C.2    30  DC30        0.0937
    603  C6        -9.9610  -40.3860   26.5480 C.3    30  DC30        0.1339
    604  P        -14.2520  -43.9550   25.0890 P.3    31  DT31        0.2141
    605  OP1      -15.6840  -44.0190   25.4720 O.3    31  DT31       -0.4373
    606  OP2      -13.3880  -45.1610   25.0250 O.2    31  DT31       -0.5172
    607  O5'      -14.1590  -43.3340   23.6170 O.3    31  DT31       -0.3114
    608  C5'      -12.9090  -43.1840   22.9580 C.3    31  DT31        0.1811
    609  C4'      -13.0640  -43.2890   21.4610 C.3    31  DT31        0.1746
    610  O4'      -13.7560  -44.5230   21.1470 O.3    31  DT31       -0.3327
    611  C3'      -13.9070  -42.2140   20.7890 C.3    31  DT31        0.1558
    612  O3'      -13.1830  -41.0280   20.5150 O.3    31  DT31       -0.3138
    613  C2'      -14.4420  -42.9000   19.5350 C.3    31  DT31        0.0866
    614  C1'      -14.5680  -44.3500   20.0070 C.3    31  DT31        0.2106
    615  N1       -16.0400  -44.8180   20.5100 N.ar   31  DT31       -0.2559
    616  C2       -17.0250  -44.8200   19.5410 C.ar   31  DT31        0.3545
    617  O2       -16.8640  -44.3500   18.4290 O.2    31  DT31       -0.2443
    618  N3       -18.2140  -45.3940   19.9220 N.ar   31  DT31       -0.1533
    619  C4       -18.5090  -45.9550   21.1470 C.ar   31  DT31        0.2804
    620  O4       -19.6240  -46.4340   21.3410 O.2    31  DT31       -0.2654
    621  C5       -17.4350  -45.9130   22.1000 C.ar   31  DT31        0.0534
    622  C6       -16.2690  -45.3610   21.7550 C.ar   31  DT31        0.0824
    623  C7       -17.6580  -46.4970   23.4640 C.3    31  DT31        0.0377
    624  P        -13.9170  -39.6940   20.3390 P.3    32  DT32        0.2141
    625  OP1      -14.6500  -39.7670   19.0460 O.2    32  DT32       -0.5172
    626  OP2      -12.6630  -38.8940   20.4350 O.3    32  DT32       -0.4373
    627  O5'      -14.8880  -39.1770   21.4830 O.3    32  DT32       -0.3114
    628  C5'      -15.0260  -37.7980   21.6930 C.3    32  DT32        0.1811
    629  C4'      -15.2260  -37.4880   23.1480 C.3    32  DT32        0.1744
    630  O4'      -14.2550  -38.1760   23.9840 O.3    32  DT32       -0.3348
    631  C3'      -14.9250  -36.0260   23.3750 C.3    32  DT32        0.1555
    632  O3'      -15.9380  -35.1610   22.9100 O.3    32  DT32       -0.3139
    633  C2'      -14.5080  -35.9620   24.8370 C.3    32  DT32        0.0836
    634  C1'      -13.7520  -37.2840   24.9820 C.3    32  DT32        0.1980
    635  N1       -12.2790  -37.0940   24.7650 N.am   32  DT32       -0.2361
    636  C2       -11.4880  -36.6370   25.8020 C.2    32  DT32        0.3317
    637  O2       -11.9460  -36.1830   26.8360 O.2    32  DT32       -0.2503
    638  N3       -10.1350  -36.7290   25.5850 N.am   32  DT32       -0.1241
    639  C4        -9.5070  -37.2210   24.4600 C.2    32  DT32        0.2901
    640  O4        -8.2790  -37.2400   24.4120 O.2    32  DT32       -0.2740
    641  C5       -10.3960  -37.6750   23.4280 C.3    32  DT32        0.2261
    642  C6       -11.7160  -37.5970   23.6130 C.3    32  DT32        0.1463
    643  C7        -9.8090  -38.2280   22.1630 C.3    32  DT32        0.0553
    644  P        -15.5380  -34.0520   22.0070 P.3    33  DA33        0.2141
    645  OP1      -16.7550  -33.3600   21.5390 O.3    33  DA33       -0.4373
    646  OP2      -14.5750  -34.5890   21.0180 O.2    33  DA33       -0.5172
    647  O5'      -14.7240  -33.0670   23.0020 O.3    33  DA33       -0.3114
    648  C5'      -15.3810  -32.3900   24.0690 C.3    33  DA33        0.1811
    649  C4'      -14.4350  -31.4560   24.8260 C.3    33  DA33        0.1746
    650  O4'      -13.3590  -32.2050   25.4500 O.3    33  DA33       -0.3327
    651  C3'      -13.7940  -30.4800   23.8890 C.3    33  DA33        0.1558
    652  O3'      -14.4740  -29.2310   23.8570 O.3    33  DA33       -0.3138
    653  C2'      -12.3830  -30.3320   24.3490 C.3    33  DA33        0.0865
    654  C1'      -12.0860  -31.5520   25.1560 C.3    33  DA33        0.2094
    655  N9       -11.3070  -32.4380   24.4640 N.ar   33  DA33       -0.2714
    656  C8       -11.7230  -33.3880   23.5680 C.ar   33  DA33        0.1815
    657  N7       -10.7450  -33.9490   22.8980 N.ar   33  DA33       -0.2193
    658  C5        -9.6080  -33.3240   23.3860 C.ar   33  DA33        0.1518
    659  C6        -8.2430  -33.4710   23.0810 C.ar   33  DA33        0.1919
    660  N6        -7.7770  -34.3320   22.1740 N.pl3  33  DA33       -0.1054
    661  N1        -7.3650  -32.6930   23.7490 N.ar   33  DA33       -0.2040
    662  C2        -7.8340  -31.8300   24.6590 C.ar   33  DA33        0.2016
    663  N3        -9.0910  -31.6030   25.0320 N.ar   33  DA33       -0.2048
    664  C4        -9.9380  -32.3900   24.3500 C.ar   33  DA33        0.1691
    665  P        -14.3530  -28.2250   22.5060 P.3    34  DT34        0.2141
    666  OP1      -15.4100  -27.2120   22.6990 O.3    34  DT34       -0.4373
    667  OP2      -14.1700  -28.9120   21.2200 O.2    34  DT34       -0.5172
    668  O5'      -12.9360  -27.5680   22.8340 O.3    34  DT34       -0.3114
    669  C5'      -12.7730  -26.7400   23.9860 C.3    34  DT34        0.1811
    670  C4'      -11.3080  -26.7050   24.3610 C.3    34  DT34        0.1746
    671  O4'      -10.7600  -28.0510   24.3210 O.3    34  DT34       -0.3327
    672  C3'      -10.4050  -25.9310   23.4200 C.3    34  DT34        0.1558
    673  O3'      -10.4790  -24.5460   23.6940 O.3    34  DT34       -0.3138
    674  C2'       -9.0590  -26.4890   23.8520 C.3    34  DT34        0.0866
    675  C1'       -9.3830  -27.9670   24.0080 C.3    34  DT34        0.2106
    676  N1        -9.1280  -28.8240   22.7780 N.ar   34  DT34       -0.2559
    677  C2        -7.8530  -28.9960   22.2730 C.ar   34  DT34        0.3545
    678  O2        -6.8850  -28.3840   22.6900 O.2    34  DT34       -0.2443
    679  N3        -7.7500  -29.9130   21.2550 N.ar   34  DT34       -0.1533
    680  C4        -8.7700  -30.6590   20.7040 C.ar   34  DT34        0.2804
    681  O4        -8.5220  -31.4450   19.7930 O.2    34  DT34       -0.2654
    682  C5       -10.0640  -30.4240   21.2810 C.ar   34  DT34        0.0534
    683  C6       -10.1930  -29.5370   22.2720 C.ar   34  DT34        0.0824
    684  C7       -11.2400  -31.1880   20.7490 C.3    34  DT34        0.0377
    685  P        -10.1900  -23.4970   22.6390 P.3    35  DA35        0.2141
    686  OP1      -10.6040  -22.1110   23.0040 O.3    35  DA35       -0.4373
    687  OP2      -10.7720  -24.1590   21.4340 O.2    35  DA35       -0.5172
    688  O5'       -8.6100  -23.4450   22.4850 O.3    35  DA35       -0.3114
    689  C5'       -7.8060  -22.8190   23.4760 C.3    35  DA35        0.1811
    690  C4'       -6.3550  -22.9930   23.1300 C.3    35  DA35        0.1746
    691  O4'       -5.9970  -24.3890   23.2600 O.3    35  DA35       -0.3327
    692  C3'       -5.9750  -22.5950   21.7220 C.3    35  DA35        0.1558
    693  O3'       -5.6790  -21.2060   21.7330 O.3    35  DA35       -0.3138
    694  C2'       -4.7380  -23.4510   21.4900 C.3    35  DA35        0.0865
    695  C1'       -5.1230  -24.7520   22.2080 C.3    35  DA35        0.2094
    696  N9        -5.7970  -25.7260   21.3910 N.ar   35  DA35       -0.2714
    697  C8        -7.1330  -25.8990   21.1400 C.ar   35  DA35        0.1815
    698  N7        -7.3820  -26.6340   20.0820 N.ar   35  DA35       -0.2193
    699  C5        -6.1230  -26.9660   19.6060 C.ar   35  DA35        0.1518
    700  C6        -5.7000  -27.7320   18.5050 C.ar   35  DA35        0.1919
    701  N6        -6.5380  -28.3270   17.6530 N.pl3  35  DA35       -0.1054
    702  N1        -4.3710  -27.8670   18.3100 N.ar   35  DA35       -0.2040
    703  C2        -3.5330  -27.2720   19.1650 C.ar   35  DA35        0.2016
    704  N3        -3.8090  -26.5280   20.2340 N.ar   35  DA35       -0.2048
    705  C4        -5.1370  -26.4130   20.4000 C.ar   35  DA35        0.1691
    706  P         -5.9000  -20.1430   20.1160 P.3    36  DC36        0.2141
    707  OP1       -5.4570  -18.7220   20.2520 O.3    36  DC36       -0.4373
    708  OP2       -7.2880  -20.6130   19.7720 O.2    36  DC36       -0.5172
    709  O5'       -4.8970  -20.9520   19.1500 O.3    36  DC36       -0.3114
    710  C5'       -3.5390  -20.5080   19.1480 C.3    36  DC36        0.1811
    711  C4'       -2.6090  -21.4140   18.3830 C.3    36  DC36        0.1746
    712  O4'       -2.8850  -22.7680   18.7650 O.3    36  DC36       -0.3327
    713  C3'       -2.8070  -21.5210   16.8990 C.3    36  DC36        0.1558
    714  O3'       -2.1440  -20.4970   16.2760 O.3    36  DC36       -0.3138
    715  C2'       -2.0970  -22.7990   16.5530 C.3    36  DC36        0.0866
    716  C1'       -2.6860  -23.6440   17.6650 C.3    36  DC36        0.2106
    717  N1        -4.0390  -24.2240   17.2400 N.ar   36  DC36       -0.2556
    718  C2        -4.0750  -25.2880   16.3310 C.ar   36  DC36        0.3531
    719  O2        -3.0060  -25.6960   15.8450 O.2    36  DC36       -0.2443
    720  N3        -5.2690  -25.8400   16.0090 N.ar   36  DC36       -0.1739
    721  C4        -6.3900  -25.3690   16.5550 C.ar   36  DC36        0.1759
    722  N4        -7.5440  -25.9450   16.2080 N.pl3  36  DC36       -0.1070
    723  C5        -6.3750  -24.2920   17.4780 C.ar   36  DC36        0.0566
    724  C6        -5.1940  -23.7490   17.7930 C.ar   36  DC36        0.0849
    725  P         -2.7430  -20.1500   15.3620 P.3    37  DC37        0.2141
    726  OP1       -2.0030  -18.8830   15.1680 O.2    37  DC37       -0.5172
    727  OP2       -4.2010  -20.1290   15.6160 O.3    37  DC37       -0.4373
    728  O5'       -2.5590  -21.0910   14.0730 O.3    37  DC37       -0.3114
    729  C5'       -1.2470  -21.4270   13.6360 C.3    37  DC37        0.1811
    730  C4'       -1.2170  -22.5150   12.5860 C.3    37  DC37        0.1746
    731  O4'       -1.8220  -23.7340   13.0890 O.3    37  DC37       -0.3327
    732  C3'       -1.9960  -22.2420   11.3160 C.3    37  DC37        0.1558
    733  O3'       -1.3330  -21.3590   10.4350 O.3    37  DC37       -0.3138
    734  C2'       -2.1970  -23.6380   10.7500 C.3    37  DC37        0.0866
    735  C1'       -2.4710  -24.4110   12.0320 C.3    37  DC37        0.2106
    736  N1        -3.9210  -24.5090   12.3330 N.ar   37  DC37       -0.2556
    737  C2        -4.6780  -25.4930   11.6870 C.ar   37  DC37        0.3531
    738  O2        -4.1220  -26.2210   10.8470 O.2    37  DC37       -0.2443
    739  N3        -5.9910  -25.6220   11.9940 N.ar   37  DC37       -0.1739
    740  C4        -6.5460  -24.8170   12.9010 C.ar   37  DC37        0.1759
    741  N4        -7.8430  -24.9810   13.1710 N.pl3  37  DC37       -0.1070
    742  C5        -5.7960  -23.8140   13.5670 C.ar   37  DC37        0.0566
    743  C6        -4.5000  -23.6900   13.2610 C.ar   37  DC37        0.0849
    744  P         -2.2060  -20.1430    9.9350 P.3    38  DA38        0.2141
    745  OP1       -1.3910  -19.0880    9.2570 O.2    38  DA38       -0.5172
    746  OP2       -3.4770  -19.7790   10.6140 O.3    38  DA38       -0.4373
    747  O5'       -2.5160  -21.2980    8.8890 O.3    38  DA38       -0.3114
    748  C5'       -1.4650  -22.0610    8.3080 C.3    38  DA38        0.1811
    749  C4'       -2.0330  -23.2760    7.6280 C.3    38  DA38        0.1746
    750  O4'       -2.7710  -24.0580    8.6000 O.3    38  DA38       -0.3327
    751  C3'       -3.0560  -23.0180    6.5420 C.3    38  DA38        0.1558
    752  O3'       -2.4850  -22.6790    5.3010 O.3    38  DA38       -0.3138
    753  C2'       -3.8190  -24.3290    6.4940 C.3    38  DA38        0.0865
    754  C1'       -3.8710  -24.6950    7.9680 C.3    38  DA38        0.2094
    755  N9        -5.0970  -24.2920    8.4120 N.ar   38  DA38       -0.2714
    756  C8        -5.3500  -23.1670    9.1520 C.ar   38  DA38        0.1815
    757  N7        -6.6050  -23.0420    9.5120 N.ar   38  DA38       -0.2193
    758  C5        -7.2180  -24.1610    8.9710 C.ar   38  DA38        0.1518
    759  C6        -8.5480  -24.6160    8.9970 C.ar   38  DA38        0.1919
    760  N6        -9.5390  -23.9690    9.6160 N.pl3  38  DA38       -0.1054
    761  N1        -8.8280  -25.7710    8.3570 N.ar   38  DA38       -0.2040
    762  C2        -7.8340  -26.4190    7.7380 C.ar   38  DA38        0.2016
    763  N3        -6.5470  -26.0920    7.6450 N.ar   38  DA38       -0.2048
    764  C4        -6.3020  -24.9400    8.2900 C.ar   38  DA38        0.1691
    765  P         -2.9810  -21.5790    4.8010 P.3    39  DG39        0.2141
    766  OP1       -2.1250  -20.9320    3.7710 O.2    39  DG39       -0.5172
    767  OP2       -3.6620  -20.7320    5.8100 O.3    39  DG39       -0.4373
    768  O5'       -4.1010  -22.4600    4.0840 O.3    39  DG39       -0.3114
    769  C5'       -3.7310  -23.6140    3.3560 C.3    39  DG39        0.1811
    770  C4'       -4.9450  -24.2910    2.7600 C.3    39  DG39        0.1746
    771  O4'       -5.6870  -25.0140    3.7730 O.3    39  DG39       -0.3327
    772  C3'       -5.9560  -23.3390    2.1490 C.3    39  DG39        0.1558
    773  O3'       -5.4970  -23.0850    0.8250 O.3    39  DG39       -0.3138
    774  C2'       -7.2480  -24.1560    2.1800 C.3    39  DG39        0.0865
    775  C1'       -7.0580  -25.0000    3.4450 C.3    39  DG39        0.2094
    776  N9        -7.6320  -24.7280    4.6010 N.ar   39  DG39       -0.2713
    777  C8        -7.1790  -23.8990    5.5980 C.ar   39  DG39        0.1816
    778  N7        -8.1190  -23.5170    6.4180 N.ar   39  DG39       -0.2173
    779  C5        -9.2620  -24.1300    5.9390 C.ar   39  DG39        0.1748
    780  C6       -10.5990  -24.0910    6.4120 C.ar   39  DG39        0.3023
    781  O6       -11.0470  -23.4790    7.3900 O.2    39  DG39       -0.2633
    782  N1       -11.4520  -24.8600    5.6260 N.ar   39  DG39       -0.1709
    783  C2       -11.0660  -25.5790    4.5210 C.ar   39  DG39        0.2606
    784  N2       -12.0330  -26.2610    3.8920 N.pl3  39  DG39       -0.0859
    785  N3        -9.8280  -25.6250    4.0690 N.ar   39  DG39       -0.1918
    786  C4        -8.9820  -24.8840    4.8160 C.ar   39  DG39        0.1722
    787  P         -5.8890  -21.5710   -0.0360 P.3    40  DC40        0.2141
    788  OP1       -5.0670  -20.7380   -0.9500 O.2    40  DC40       -0.5172
    789  OP2       -6.8550  -20.9480    0.8970 O.3    40  DC40       -0.4373
    790  O5'       -6.7450  -22.6310   -0.8740 O.3    40  DC40       -0.3114
    791  C5'       -7.9670  -22.2010   -1.4430 C.3    40  DC40        0.1811
    792  C4'       -9.0810  -23.2000   -1.2770 C.3    40  DC40        0.1746
    793  O4'       -9.1320  -23.7310    0.0740 O.3    40  DC40       -0.3327
    794  C3'      -10.4500  -22.5840   -1.4360 C.3    40  DC40        0.1558
    795  O3'      -10.7580  -22.2980   -2.7830 O.3    40  DC40       -0.3138
    796  C2'      -11.3520  -23.5900   -0.7370 C.3    40  DC40        0.0866
    797  C1'      -10.4780  -23.9410    0.4650 C.3    40  DC40        0.2106
    798  N1       -10.7100  -22.9890    1.7270 N.ar   40  DC40       -0.2556
    799  C2       -11.8730  -23.1710    2.4840 C.ar   40  DC40        0.3531
    800  O2       -12.7800  -23.8860    2.0240 O.2    40  DC40       -0.2443
    801  N3       -11.9770  -22.5640    3.6900 N.ar   40  DC40       -0.1739
    802  C4       -10.9790  -21.8040    4.1430 C.ar   40  DC40        0.1759
    803  N4       -11.1260  -21.2260    5.3370 N.pl3  40  DC40       -0.1070
    804  C5        -9.7920  -21.6070    3.3910 C.ar   40  DC40        0.0566
    805  C6        -9.6940  -22.2090    2.2010 C.ar   40  DC40        0.0849
    806  P        -11.2150  -20.8620   -2.9900 P.3    41  DT41        0.2141
    807  OP1      -11.1130  -20.8850   -4.4700 O.2    41  DT41       -0.5172
    808  OP2      -10.6260  -19.7280   -2.2370 O.3    41  DT41       -0.4373
    809  O5'      -12.7520  -20.9820   -2.5860 O.3    41  DT41       -0.3114
    810  C5'      -13.5660  -22.0470   -3.1060 C.3    41  DT41        0.1811
    811  C4'      -14.9410  -21.9960   -2.4950 C.3    41  DT41        0.1746
    812  O4'      -14.8990  -22.4380   -1.1120 O.3    41  DT41       -0.3327
    813  C3'      -15.5470  -20.6110   -2.4060 C.3    41  DT41        0.1558
    814  O3'      -16.0420  -20.1450   -3.6540 O.3    41  DT41       -0.3138
    815  C2'      -16.6070  -20.8070   -1.3290 C.3    41  DT41        0.0866
    816  C1'      -15.8570  -21.7140   -0.3510 C.3    41  DT41        0.2106
    817  N1       -15.1150  -20.9060    0.6850 N.ar   41  DT41       -0.2559
    818  C2       -15.8430  -20.5060    1.7890 C.ar   41  DT41        0.3545
    819  O2       -17.0040  -20.8270    1.9710 O.2    41  DT41       -0.2443
    820  N3       -15.1610  -19.7110    2.6780 N.ar   41  DT41       -0.1533
    821  C4       -13.8530  -19.2850    2.5760 C.ar   41  DT41        0.2804
    822  O4       -13.3780  -18.5740    3.4580 O.2    41  DT41       -0.2654
    823  C5       -13.1640  -19.7410    1.4020 C.ar   41  DT41        0.0534
    824  C6       -13.8040  -20.5150    0.5210 C.ar   41  DT41        0.0824
    825  C7       -11.7360  -19.3300    1.2000 C.3    41  DT41        0.0377
    826  P        -15.7930  -18.5870   -4.0740 P.3    42  DT42        0.2141
    827  OP1      -15.8930  -18.7240   -5.5450 O.2    42  DT42       -0.5172
    828  OP2      -14.4930  -18.2650   -3.4450 O.3    42  DT42       -0.4373
    829  O5'      -16.8880  -17.5220   -3.5980 O.3    42  DT42       -0.3114
    830  C5'      -18.2480  -17.7130   -3.9530 C.3    42  DT42        0.1811
    831  C4'      -19.1560  -17.4190   -2.7740 C.3    42  DT42        0.1746
    832  O4'      -18.7410  -18.1580   -1.5920 O.3    42  DT42       -0.3327
    833  C3'      -19.1110  -16.0000   -2.2450 C.3    42  DT42        0.1558
    834  O3'      -19.6930  -15.0670   -3.1510 O.3    42  DT42       -0.3138
    835  C2'      -19.8840  -16.2070   -0.9410 C.3    42  DT42        0.0866
    836  C1'      -19.1290  -17.4300   -0.4320 C.3    42  DT42        0.2106
    837  N1       -17.8660  -16.9810    0.3460 N.ar   42  DT42       -0.2559
    838  C2       -18.0490  -16.5300    1.6400 C.ar   42  DT42        0.3545
    839  O2       -19.1450  -16.2720    2.1050 O.2    42  DT42       -0.2443
    840  N3       -16.8960  -16.3900    2.3750 N.ar   42  DT42       -0.1533
    841  C4       -15.6080  -16.6490    1.9550 C.ar   42  DT42        0.2804
    842  O4       -14.6720  -16.4760    2.7320 O.2    42  DT42       -0.2654
    843  C5       -15.5010  -17.1120    0.6000 C.ar   42  DT42        0.0534
    844  C6       -16.6060  -17.2570   -0.1370 C.ar   42  DT42        0.0824
    845  C7       -14.1400  -17.4210    0.0500 C.3    42  DT42        0.0377
    846  P        -19.1460  -13.4190   -3.2070 P.3    43  DA43        0.2141
    847  OP1      -19.4300  -12.6280   -4.4130 O.2    43  DA43       -0.5172
    848  OP2      -17.8520  -13.3120   -2.4950 O.3    43  DA43       -0.4373
    849  O5'      -20.3340  -13.1430   -2.2100 O.3    43  DA43       -0.3114
    850  C5'      -21.4240  -12.3290   -2.6450 C.3    43  DA43        0.1811
    851  C4'      -22.4210  -12.1420   -1.4990 C.3    43  DA43        0.1746
    852  O4'      -22.1900  -13.1400   -0.4990 O.3    43  DA43       -0.3327
    853  C3'      -22.1560  -10.8780   -0.6980 C.3    43  DA43        0.1558
    854  O3'      -22.7260   -9.8020   -1.2910 O.3    43  DA43       -0.3138
    855  C2'      -22.7220  -11.1390    0.6830 C.3    43  DA43        0.0865
    856  C1'      -22.3590  -12.5770    0.7760 C.3    43  DA43        0.2094
    857  N9       -21.0270  -12.7320    1.4910 N.ar   43  DA43       -0.2714
    858  C8       -19.9570  -13.3860    0.9380 C.ar   43  DA43        0.1815
    859  N7       -18.9880  -13.6280    1.7900 N.ar   43  DA43       -0.2193
    860  C5       -19.4530  -13.0960    2.9820 C.ar   43  DA43        0.1518
    861  C6       -18.8940  -13.0300    4.2700 C.ar   43  DA43        0.1919
    862  N6       -17.6940  -13.5250    4.5810 N.pl3  43  DA43       -0.1054
    863  N1       -19.6200  -12.4310    5.2380 N.ar   43  DA43       -0.2040
    864  C2       -20.8230  -11.9360    4.9250 C.ar   43  DA43        0.2016
    865  N3       -21.4540  -11.9390    3.7540 N.ar   43  DA43       -0.2048
    866  C4       -20.7070  -12.5400    2.8130 C.ar   43  DA43        0.1691
    867  P        -21.8040   -8.9070   -1.6660 P.3    44  DT44        0.2141
    868  OP1      -22.5970   -8.0080   -2.5510 O.2    44  DT44       -0.5172
    869  OP2      -20.3730   -9.1770   -1.9800 O.3    44  DT44       -0.4373
    870  O5'      -21.8870   -8.3530   -0.1750 O.3    44  DT44       -0.3114
    871  C5'      -23.1670   -8.0430    0.3990 C.3    44  DT44        0.1811
    872  C4'      -23.0450   -7.6780    1.8620 C.3    44  DT44        0.1746
    873  O4'      -22.6420   -8.8220    2.6540 O.3    44  DT44       -0.3327
    874  C3'      -22.0670   -6.5830    2.2420 C.3    44  DT44        0.1558
    875  O3'      -22.6300   -5.3020    2.0070 O.3    44  DT44       -0.3138
    876  C2'      -21.8650   -6.8480    3.7270 C.3    44  DT44        0.0866
    877  C1'      -21.9280   -8.3750    3.7880 C.3    44  DT44        0.2106
    878  N1       -20.6190   -8.9240    3.7080 N.ar   44  DT44       -0.2559
    879  C2       -19.8370   -8.9650    4.8470 C.ar   44  DT44        0.3545
    880  O2       -20.2550   -8.6600    5.9500 O.2    44  DT44       -0.2443
    881  N3       -18.5420   -9.3780    4.6490 N.ar   44  DT44       -0.1533
    882  C4       -17.9620   -9.7450    3.4520 C.ar   44  DT44        0.2804
    883  O4       -16.7850  -10.0940    3.4320 O.2    44  DT44       -0.2654
    884  C5       -18.8370   -9.6750    2.3160 C.ar   44  DT44        0.0534
    885  C6       -20.1020   -9.2770    2.4800 C.ar   44  DT44        0.0824
    886  C7       -18.2990  -10.0540    0.9680 C.3    44  DT44        0.0377
    887  P        -21.6600   -3.9970    1.7080 P.3    45  DT45        0.2141
    888  OP1      -22.5150   -2.9530    1.0840 O.3    45  DT45       -0.4373
    889  OP2      -20.5680   -4.6200    0.9170 O.2    45  DT45       -0.5172
    890  O5'      -21.0520   -3.4290    3.0670 O.3    45  DT45       -0.3114
    891  C5'      -21.9170   -2.9800    4.0970 C.3    45  DT45        0.1811
    892  C4'      -21.2160   -3.0190    5.4280 C.3    45  DT45        0.1746
    893  O4'      -20.8090   -4.3870    5.7120 O.3    45  DT45       -0.3327
    894  C3'      -19.9140   -2.2360    5.4970 C.3    45  DT45        0.1558
    895  O3'      -20.1230   -0.8470    5.7220 O.3    45  DT45       -0.3138
    896  C2'      -19.1930   -2.9130    6.6560 C.3    45  DT45        0.0866
    897  C1'      -19.5830   -4.3750    6.4320 C.3    45  DT45        0.2106
    898  N1       -18.5900   -5.0740    5.6570 N.ar   45  DT45       -0.2559
    899  C2       -17.3940   -5.4300    6.2500 C.ar   45  DT45        0.3545
    900  O2       -17.1250   -5.1720    7.4100 O.2    45  DT45       -0.2443
    901  N3       -16.5170   -6.1020    5.4340 N.ar   45  DT45       -0.1533
    902  C4       -16.7110   -6.4470    4.1120 C.ar   45  DT45        0.2804
    903  O4       -15.8290   -7.0520    3.5090 O.2    45  DT45       -0.2654
    904  C5       -17.9770   -6.0420    3.5680 C.ar   45  DT45        0.0534
    905  C6       -18.8480   -5.3870    4.3400 C.ar   45  DT45        0.0824
    906  C7       -18.2830   -6.3710    2.1370 C.3    45  DT45        0.0377
    907  P        -19.0110    0.2570    5.1820 P.3    46  DC46        0.2141
    908  OP1      -19.6030    1.6060    5.3060 O.3    46  DC46       -0.4373
    909  OP2      -18.6110   -0.1630    3.8090 O.2    46  DC46       -0.5172
    910  O5'      -17.7910    0.0870    6.2180 O.3    46  DC46       -0.3114
    911  C5'      -17.7930    0.6990    7.5010 C.3    46  DC46        0.1811
    912  C4'      -16.5950    0.2190    8.2990 C.3    46  DC46        0.1746
    913  O4'      -16.4830   -1.2100    8.0820 O.3    46  DC46       -0.3327
    914  C3'      -15.2190    0.7830    7.9390 C.3    46  DC46        0.1558
    915  O3'      -14.9180    1.9800    8.6600 O.3    46  DC46       -0.3138
    916  C2'      -14.2760   -0.3560    8.3380 C.3    46  DC46        0.0866
    917  C1'      -15.1200   -1.5850    8.0300 C.3    46  DC46        0.2106
    918  N1       -14.9450   -2.2880    6.6920 N.ar   46  DC46       -0.2556
    919  C2       -13.8340   -3.1270    6.5470 C.ar   46  DC46        0.3531
    920  O2       -13.1310   -3.3650    7.5440 O.2    46  DC46       -0.2443
    921  N3       -13.5580   -3.6510    5.3290 N.ar   46  DC46       -0.1739
    922  C4       -14.3410   -3.3660    4.2880 C.ar   46  DC46        0.1759
    923  N4       -14.0300   -3.9060    3.1070 N.pl3  46  DC46       -0.1070
    924  C5       -15.4710   -2.5180    4.4140 C.ar   46  DC46        0.0566
    925  C6       -15.7400   -2.0030    5.6180 C.ar   46  DC46        0.0849
    926  P        -13.6710    2.9690    8.1570 P.3    47  DA47        0.2141
    927  OP1      -13.5020    4.2690    8.8630 O.3    47  DA47       -0.4373
    928  OP2      -14.1880    2.9280    6.7550 O.2    47  DA47       -0.5172
    929  O5'      -12.2670    2.2870    8.2530 O.3    47  DA47       -0.3114
    930  C5'      -11.6270    2.5850    9.3990 C.3    47  DA47        0.1811
    931  C4'      -10.3790    1.7760    9.3290 C.3    47  DA47        0.1746
    932  O4'      -10.7380    0.3760    9.1700 O.3    47  DA47       -0.3327
    933  C3'       -9.5080    2.0600    8.1160 C.3    47  DA47        0.1558
    934  O3'       -8.7130    3.1960    8.2610 O.3    47  DA47       -0.3138
    935  C2'       -8.6640    0.7940    8.1210 C.3    47  DA47        0.0865
    936  C1'       -9.7370   -0.2450    8.3810 C.3    47  DA47        0.2094
    937  N9       -10.2520   -0.7120    7.1570 N.ar   47  DA47       -0.2714
    938  C8       -11.4850   -0.3530    6.6800 C.ar   47  DA47        0.1815
    939  N7       -11.8030   -0.9330    5.5460 N.ar   47  DA47       -0.2193
    940  C5       -10.7020   -1.7250    5.2590 C.ar   47  DA47        0.1518
    941  C6       -10.4140   -2.5920    4.1900 C.ar   47  DA47        0.1919
    942  N6       -11.2490   -2.8140    3.1730 N.pl3  47  DA47       -0.1054
    943  N1        -9.2250   -3.2310    4.2050 N.ar   47  DA47       -0.2040
    944  C2        -8.3890   -3.0080    5.2260 C.ar   47  DA47        0.2016
    945  N3        -8.5480   -2.2190    6.2860 N.ar   47  DA47       -0.2048
    946  C4        -9.7390   -1.5980    6.2410 C.ar   47  DA47        0.1691
    947  P         -8.6730    4.3440    7.2220 P.3    48  DA48        0.2141
    948  OP1       -8.2040    5.5450    7.9540 O.3    48  DA48       -0.4373
    949  OP2       -9.9880    4.3180    6.5420 O.2    48  DA48       -0.5172
    950  O5'       -7.6260    4.0190    6.0630 O.3    48  DA48       -0.3114
    951  C5'       -6.2540    3.9070    6.4030 C.3    48  DA48        0.1811
    952  C4'       -5.5450    2.9430    5.4910 C.3    48  DA48        0.1746
    953  O4'       -6.2910    1.6990    5.4160 O.3    48  DA48       -0.3327
    954  C3'       -5.4230    3.3650    4.0370 C.3    48  DA48        0.1558
    955  O3'       -4.4100    4.3300    3.8150 O.3    48  DA48       -0.3138
    956  C2'       -5.1790    2.0340    3.3350 C.3    48  DA48        0.0865
    957  C1'       -6.0660    1.0970    4.1580 C.3    48  DA48        0.2094
    958  N9        -7.2870    0.7570    3.5340 N.ar   48  DA48       -0.2714
    959  C8        -8.5210    1.2910    3.7990 C.ar   48  DA48        0.1815
    960  N7        -9.4840    0.7890    3.0630 N.ar   48  DA48       -0.2193
    961  C5        -8.8390   -0.1370    2.2590 C.ar   48  DA48        0.1518
    962  C6        -9.3040   -1.0080    1.2580 C.ar   48  DA48        0.1919
    963  N6       -10.5830   -1.0880    0.8840 N.pl3  48  DA48       -0.1054
    964  N1        -8.3980   -1.8020    0.6480 N.ar   48  DA48       -0.2040
    965  C2        -7.1170   -1.7210    1.0240 C.ar   48  DA48        0.2016
    966  N3        -6.5600   -0.9450    1.9500 N.ar   48  DA48       -0.2048
    967  C4        -7.4850   -0.1670    2.5370 C.ar   48  DA48        0.1691
    968  P         -4.3700    5.3630    2.3420 P.3    49  DT49        0.2141
    969  OP1       -3.4700    6.3920    1.7700 O.2    49  DT49       -0.5172
    970  OP2       -5.8160    5.6330    2.5270 O.3    49  DT49       -0.4373
    971  O5'       -4.2120    4.0700    1.4390 O.3    49  DT49       -0.3114
    972  C5'       -2.9660    3.4310    1.4830 C.3    49  DT49        0.1811
    973  C4'       -3.1260    2.1100    0.7820 C.3    49  DT49        0.1746
    974  O4'       -4.3670    1.5110    1.2230 O.3    49  DT49       -0.3327
    975  C3'       -3.3200    2.2390   -0.7150 C.3    49  DT49        0.1558
    976  O3'       -2.0590    2.4420   -1.3620 O.3    49  DT49       -0.3138
    977  C2'       -3.9170    0.8680   -1.0090 C.3    49  DT49        0.0866
    978  C1'       -4.7530    0.5780    0.2380 C.3    49  DT49        0.2106
    979  N1        -6.1390    0.6510    0.0470 N.ar   49  DT49       -0.2559
    980  C2        -6.7050   -0.1250   -0.9470 C.ar   49  DT49        0.3545
    981  O2        -6.1080   -1.0290   -1.5040 O.2    49  DT49       -0.2443
    982  N3        -8.0010    0.1970   -1.2680 N.ar   49  DT49       -0.1533
    983  C4        -8.7710    1.1940   -0.7070 C.ar   49  DT49        0.2804
    984  O4        -9.9230    1.3630   -1.1010 O.2    49  DT49       -0.2654
    985  C5        -8.1130    1.9560    0.3160 C.ar   49  DT49        0.0534
    986  C6        -6.8520    1.6640    0.6480 C.ar   49  DT49        0.0824
    987  C7        -8.8680    3.0650    0.9870 C.3    49  DT49        0.0377
    988  P         -1.8400    3.7090   -2.3580 P.3    50  DT50        0.2141
    989  OP1       -1.0760    4.8910   -1.9040 O.3    50  DT50       -0.4373
    990  OP2       -3.2510    3.8650   -2.7770 O.2    50  DT50       -0.5172
    991  O5'       -1.0400    3.0000   -3.5460 O.3    50  DT50       -0.3114
    992  C5'       -0.9890    1.5840   -3.6190 C.3    50  DT50        0.1811
    993  C4'       -1.9370    1.0430   -4.6730 C.3    50  DT50        0.1746
    994  O4'       -3.1480    0.5540   -4.0500 O.3    50  DT50       -0.3327
    995  C3'       -2.4780    2.0350   -5.6890 C.3    50  DT50        0.1558
    996  O3'       -1.4910    2.3750   -6.6600 O.3    50  DT50       -0.3138
    997  C2'       -3.5830    1.1790   -6.2920 C.3    50  DT50        0.0866
    998  C1'       -4.1410    0.4780   -5.0540 C.3    50  DT50        0.2106
    999  N1        -5.2830    0.9710   -4.5580 N.ar   50  DT50       -0.2559
   1000  C2        -6.5210    0.5670   -5.0220 C.ar   50  DT50        0.3545
   1001  O2        -6.6770   -0.4090   -5.7340 O.2    50  DT50       -0.2443
   1002  N3        -7.5760    1.3510   -4.6210 N.ar   50  DT50       -0.1533
   1003  C4        -7.5190    2.4740   -3.8210 C.ar   50  DT50        0.2804
   1004  O4        -8.5550    3.0740   -3.5460 O.2    50  DT50       -0.2654
   1005  C5        -6.1990    2.8290   -3.3810 C.ar   50  DT50        0.0534
   1006  C6        -5.1550    2.0840   -3.7560 C.ar   50  DT50        0.0824
   1007  C7        -6.0320    4.0360   -2.5060 C.3    50  DT50        0.0377
   1008  P         -1.8880    3.2390   -7.8480 P.3    51  DA51        0.2141
   1009  OP1       -0.6080    3.2220   -8.5960 O.2    51  DA51       -0.5172
   1010  OP2       -2.2770    4.4120   -7.0420 O.3    51  DA51       -0.4373
   1011  O5'       -3.1260    2.9350   -8.8180 O.3    51  DA51       -0.3114
   1012  C5'       -3.0250    1.9420   -9.8350 C.3    51  DA51        0.1811
   1013  C4'       -4.3850    1.6520  -10.4370 C.3    51  DA51        0.1746
   1014  O4'       -5.2900    1.1380   -9.4290 O.3    51  DA51       -0.3327
   1015  C3'       -5.1220    2.8690  -10.9380 C.3    51  DA51        0.1558
   1016  O3'       -4.5970    3.2930  -12.1680 O.3    51  DA51       -0.3138
   1017  C2'       -6.5330    2.3060  -11.0330 C.3    51  DA51        0.0865
   1018  C1'       -6.6050    1.5980   -9.6960 C.3    51  DA51        0.2094
   1019  N9        -7.0430    2.5020   -8.6750 N.ar   51  DA51       -0.2714
   1020  C8        -6.2230    3.2470   -7.8690 C.ar   51  DA51        0.1815
   1021  N7        -6.8640    3.9370   -6.9550 N.ar   51  DA51       -0.2193
   1022  C5        -8.1960    3.6240   -7.1780 C.ar   51  DA51        0.1518
   1023  C6        -9.3820    4.0320   -6.5420 C.ar   51  DA51        0.1919
   1024  N6        -9.4140    4.8770   -5.5090 N.pl3  51  DA51       -0.1054
   1025  N1       -10.5460    3.5350   -7.0100 N.ar   51  DA51       -0.2040
   1026  C2       -10.5130    2.6870   -8.0440 C.ar   51  DA51        0.2016
   1027  N3        -9.4630    2.2300   -8.7230 N.ar   51  DA51       -0.2048
   1028  C4        -8.3220    2.7430   -8.2340 C.ar   51  DA51        0.1691
   1029  P         -4.7690    4.8010  -12.5740 P.3    52  DC52        0.2141
   1030  OP1       -3.9680    5.0340  -13.7960 O.2    52  DC52       -0.5172
   1031  OP2       -4.3340    5.3580  -11.2720 O.3    52  DC52       -0.4373
   1032  O5'       -6.2380    5.4010  -12.7970 O.3    52  DC52       -0.3114
   1033  C5'       -7.1210    4.8670  -13.7750 C.3    52  DC52        0.1812
   1034  C4'       -8.4530    5.5760  -13.7420 C.3    52  DC52        0.1775
   1035  O4'       -9.1600    5.2300  -12.5230 O.3    52  DC52       -0.3326
   1036  C3'       -8.3760    7.0960  -13.7240 C.3    52  DC52        0.1859
   1037  O3'       -8.2390    7.6510  -15.0240 O.3    52  DC52       -0.2202
   1038  C2'       -9.6600    7.5060  -13.0080 C.3    52  DC52        0.0895
   1039  C1'       -9.8770    6.3460  -12.0340 C.3    52  DC52        0.2107
   1040  N1        -9.4880    6.7430  -10.6760 N.ar   52  DC52       -0.2556
   1041  C2       -10.3320    7.5910   -9.9480 C.ar   52  DC52        0.3531
   1042  O2       -11.4400    7.8860  -10.4270 O.2    52  DC52       -0.2443
   1043  N3        -9.9170    8.0630   -8.7490 N.ar   52  DC52       -0.1739
   1044  C4        -8.7180    7.7210   -8.2750 C.ar   52  DC52        0.1759
   1045  N4        -8.3520    8.2110   -7.0890 N.pl3  52  DC52       -0.1070
   1046  C5        -7.8480    6.8630   -8.9970 C.ar   52  DC52        0.0566
   1047  C6        -8.2620    6.3990  -10.1810 C.ar   52  DC52        0.0849
   1048  P         -6.9030    8.6620  -15.5180 P.3    53  DG53        0.4149
   1049  OP1       -7.1610    8.2810  -16.9240 O.3    53  DG53       -0.1481
   1050  OP2       -6.0120    9.8090  -15.2260 O.2    53  DG53       -0.2668
   1051  O5'       -8.2720    9.0110  -14.7570 O.3    53  DG53       -0.2177
   1052  C5'       -9.2970    9.7820  -15.3770 C.3    53  DG53        0.2140
   1053  C4'       -9.7380   10.9640  -14.5400 C.3    53  DG53        0.1776
   1054  O4'      -10.0630   10.5310  -13.1950 O.3    53  DG53       -0.3326
   1055  C3'       -8.7120   12.0730  -14.3490 C.3    53  DG53        0.1559
   1056  O3'       -8.6880   12.9980  -15.4240 O.3    53  DG53       -0.3138
   1057  C2'       -9.1210   12.7080  -13.0280 C.3    53  DG53        0.0865
   1058  C1'       -9.6640   11.5050  -12.2550 C.3    53  DG53        0.2093
   1059  N9        -8.5690   10.8120  -11.4290 N.ar   53  DG53       -0.2728
   1060  C8        -7.8770    9.6590  -11.7100 C.ar   53  DG53        0.1814
   1061  N7        -6.9570    9.3820  -10.8260 N.ar   53  DG53       -0.2177
   1062  C5        -7.0450   10.4100   -9.9050 C.ar   53  DG53        0.1711
   1063  C6        -6.3010   10.6560   -8.7220 C.2    53  DG53        0.2985
   1064  O6        -5.3820    9.9810   -8.2410 O.2    53  DG53       -0.2655
   1065  N1        -6.7160   11.8180   -8.0790 N.am   53  DG53       -0.1042
   1066  C2        -7.7230   12.6430   -8.5210 C.1    53  DG53        0.1460
   1067  N2        -7.9810   13.7180   -7.7650 N.2    53  DG53       -0.0024
   1068  N3        -8.4220   12.4280   -9.6180 N.pl3  53  DG53       -0.1259
   1069  C4        -8.0360   11.3040  -10.2600 C.ar   53  DG53        0.1688
   1070  P         -7.2500   13.6810  -16.0090 P.3    54  DT54        0.2141
   1071  OP1       -7.5440   14.3690  -17.2880 O.2    54  DT54       -0.5172
   1072  OP2       -6.6030   12.3470  -15.9770 O.3    54  DT54       -0.4373
   1073  O5'       -6.3240   14.6050  -15.0790 O.3    54  DT54       -0.3114
   1074  C5'       -6.7950   15.8930  -14.7030 C.3    54  DT54        0.1811
   1075  C4'       -6.1280   16.4320  -13.4590 C.3    54  DT54        0.1746
   1076  O4'       -6.4660   15.6100  -12.3090 O.3    54  DT54       -0.3327
   1077  C3'       -4.6060   16.4490  -13.4430 C.3    54  DT54        0.1558
   1078  O3'       -4.0200   17.4920  -14.2050 O.3    54  DT54       -0.3138
   1079  C2'       -4.3220   16.5510  -11.9560 C.3    54  DT54        0.0866
   1080  C1'       -5.3770   15.5880  -11.4090 C.3    54  DT54        0.2106
   1081  N1        -4.7750   14.1880  -11.3320 N.ar   54  DT54       -0.2559
   1082  C2        -3.9570   13.9030  -10.2560 C.ar   54  DT54        0.3545
   1083  O2        -3.6630   14.7270   -9.4080 O.2    54  DT54       -0.2443
   1084  N3        -3.4890   12.6110  -10.2070 N.ar   54  DT54       -0.1533
   1085  C4        -3.7530   11.5990  -11.1060 C.ar   54  DT54        0.2804
   1086  O4        -3.2600   10.4880  -10.9280 O.2    54  DT54       -0.2654
   1087  C5        -4.6090   11.9740  -12.1960 C.ar   54  DT54        0.0534
   1088  C6        -5.0780   13.2230  -12.2680 C.ar   54  DT54        0.0824
   1089  C7        -4.9540   10.9420  -13.2290 C.3    54  DT54        0.0377
   1090  P         -2.8320   17.0720  -15.0960 P.3    55  DC55        0.2141
   1091  OP1       -2.6220   18.1330  -16.1130 O.2    55  DC55       -0.5172
   1092  OP2       -2.8090   15.6470  -15.5090 O.3    55  DC55       -0.4373
   1093  O5'       -1.7460   17.2740  -13.9480 O.3    55  DC55       -0.3114
   1094  C5'       -1.5910   18.5430  -13.2810 C.3    55  DC55        0.1811
   1095  C4'       -0.5180   18.4400  -12.2240 C.3    55  DC55        0.1746
   1096  O4'       -0.9190   17.4590  -11.2320 O.3    55  DC55       -0.3327
   1097  C3'        0.8240   17.9380  -12.7330 C.3    55  DC55        0.1558
   1098  O3'        1.6010   19.0100  -13.2670 O.3    55  DC55       -0.3138
   1099  C2'        1.4450   17.3330  -11.4780 C.3    55  DC55        0.0866
   1100  C1'        0.2140   16.7300  -10.7930 C.3    55  DC55        0.2106
   1101  N1        -0.0120   15.3060  -11.0840 N.ar   55  DC55       -0.2556
   1102  C2         0.6550   14.3470  -10.3140 C.ar   55  DC55        0.3531
   1103  O2         1.4320   14.7300   -9.4220 O.2    55  DC55       -0.2443
   1104  N3         0.4370   13.0330  -10.5620 N.ar   55  DC55       -0.1739
   1105  C4        -0.4050   12.6690  -11.5300 C.ar   55  DC55        0.1759
   1106  N4        -0.5890   11.3630  -11.7390 N.pl3  55  DC55       -0.1070
   1107  C5        -1.0910   13.6250  -12.3220 C.ar   55  DC55        0.0566
   1108  C6        -0.8720   14.9210  -12.0730 C.ar   55  DC55        0.0849
   1109  P          2.0480   19.1810  -15.0530 P.3    56  DT56        0.2141
   1110  OP1        1.6580   18.8750  -16.4610 O.2    56  DT56       -0.5172
   1111  OP2        2.9480   18.2640  -14.3170 O.3    56  DT56       -0.4373
   1112  O5'        2.6290   20.6620  -15.0560 O.3    56  DT56       -0.3114
   1113  C5'        1.9330   21.6950  -15.7440 C.3    56  DT56        0.1811
   1114  C4'        2.8660   22.8260  -16.0910 C.3    56  DT56        0.1746
   1115  O4'        3.4060   23.3880  -14.8670 O.3    56  DT56       -0.3327
   1116  C3'        4.1020   22.4470  -16.8930 C.3    56  DT56        0.1558
   1117  O3'        3.8220   22.3830  -18.2840 O.3    56  DT56       -0.3138
   1118  C2'        5.0530   23.5870  -16.5620 C.3    56  DT56        0.0866
   1119  C1'        4.7350   23.8230  -15.0910 C.3    56  DT56        0.2106
   1120  N1         5.6530   22.9830  -14.3150 N.ar   56  DT56       -0.2559
   1121  C2         6.8820   23.5200  -13.9800 C.ar   56  DT56        0.3545
   1122  O2         7.2000   24.6660  -14.2420 O.2    56  DT56       -0.2443
   1123  N3         7.7320   22.6610  -13.3260 N.ar   56  DT56       -0.1533
   1124  C4         7.4820   21.3500  -12.9790 C.ar   56  DT56        0.2804
   1125  O4         8.3460   20.7040  -12.3910 O.2    56  DT56       -0.2654
   1126  C5         6.1850   20.8660  -13.3620 C.ar   56  DT56        0.0534
   1127  C6         5.3390   21.6790  -13.9990 C.ar   56  DT56        0.0824
   1128  C7         5.8180   19.4500  -13.0300 C.3    56  DT56        0.0377
   1129  P          4.4090   21.6680  -18.6880 P.3    57  DG57        0.2141
   1130  OP1        3.5320   21.2690  -19.8230 O.2    57  DG57       -0.5172
   1131  OP2        4.7590   20.6590  -17.6500 O.3    57  DG57       -0.4373
   1132  O5'        5.7850   22.2750  -19.2340 O.3    57  DG57       -0.3114
   1133  C5'        5.8140   23.5720  -19.8200 C.3    57  DG57        0.1811
   1134  C4'        7.2050   24.1700  -19.7670 C.3    57  DG57        0.1746
   1135  O4'        7.6420   24.3570  -18.3960 O.3    57  DG57       -0.3327
   1136  C3'        8.3340   23.3940  -20.4180 C.3    57  DG57        0.1558
   1137  O3'        8.3510   23.6140  -21.8210 O.3    57  DG57       -0.3138
   1138  C2'        9.5740   23.9590  -19.7300 C.3    57  DG57        0.0865
   1139  C1'        9.0530   24.2410  -18.3220 C.3    57  DG57        0.2094
   1140  N9         9.2690   23.1820  -17.4720 N.ar   57  DG57       -0.2713
   1141  C8         8.4530   22.0870  -17.3240 C.ar   57  DG57        0.1816
   1142  N7         9.0150   21.1110  -16.6640 N.ar   57  DG57       -0.2173
   1143  C5        10.2750   21.5870  -16.3540 C.ar   57  DG57        0.1748
   1144  C6        11.3450   20.9780  -15.6490 C.ar   57  DG57        0.3023
   1145  O6        11.3820   19.8510  -15.1380 O.2    57  DG57       -0.2633
   1146  N1        12.4540   21.8150  -15.5610 N.ar   57  DG57       -0.1709
   1147  C2        12.5240   23.0820  -16.0880 C.ar   57  DG57        0.2606
   1148  N2        13.6780   23.7370  -15.9010 N.pl3  57  DG57       -0.0859
   1149  N3        11.5400   23.6610  -16.7470 N.ar   57  DG57       -0.1918
   1150  C4        10.4520   22.8660  -16.8450 C.ar   57  DG57        0.1722
   1151  P          9.2370   22.6410  -22.8170 P.3    58  DC58        0.2141
   1152  OP1        8.9600   22.9470  -24.2380 O.2    58  DC58       -0.5172
   1153  OP2        8.5990   21.4710  -22.1700 O.3    58  DC58       -0.4373
   1154  O5'       10.8070   22.4250  -22.5710 O.3    58  DC58       -0.3114
   1155  C5'       11.7530   23.2440  -23.2440 C.3    58  DC58        0.1811
   1156  C4'       13.1690   23.0110  -22.7740 C.3    58  DC58        0.1746
   1157  O4'       13.2250   23.1250  -21.3270 O.3    58  DC58       -0.3327
   1158  C3'       13.7810   21.6450  -23.0700 C.3    58  DC58        0.1558
   1159  O3'       14.2810   21.5030  -24.3910 O.3    58  DC58       -0.3138
   1160  C2'       14.8720   21.5540  -22.0110 C.3    58  DC58        0.0866
   1161  C1'       14.2010   22.2410  -20.8190 C.3    58  DC58        0.2106
   1162  N1        13.5400   21.2790  -19.9110 N.ar   58  DC58       -0.2556
   1163  C2        14.2720   20.6320  -18.9080 C.ar   58  DC58        0.3531
   1164  O2        15.4830   20.8850  -18.7950 O.2    58  DC58       -0.2443
   1165  N3        13.6410   19.7510  -18.0950 N.ar   58  DC58       -0.1739
   1166  C4        12.3390   19.5100  -18.2540 C.ar   58  DC58        0.1759
   1167  N4        11.7600   18.6350  -17.4290 N.pl3  58  DC58       -0.1070
   1168  C5        11.5800   20.1560  -19.2640 C.ar   58  DC58        0.0566
   1169  C6        12.2060   21.0240  -20.0650 C.ar   58  DC58        0.0849
   1170  P         14.5990   19.9910  -25.0130 P.3    59  DA59        0.2141
   1171  OP1       14.7420   19.5980  -26.4370 O.2    59  DA59       -0.5172
   1172  OP2       13.3870   19.5690  -24.2530 O.3    59  DA59       -0.4373
   1173  O5'       15.8770   19.4690  -24.2150 O.3    59  DA59       -0.3114
   1174  C5'       17.0850   20.2560  -24.1500 C.3    59  DA59        0.1811
   1175  C4'       18.0220   19.7110  -23.0960 C.3    59  DA59        0.1746
   1176  O4'       17.3490   19.7290  -21.8090 O.3    59  DA59       -0.3327
   1177  C3'       18.5230   18.2850  -23.3000 C.3    59  DA59        0.1558
   1178  O3'       19.8540   18.2340  -22.7860 O.3    59  DA59       -0.3138
   1179  C2'       17.5920   17.4660  -22.4090 C.3    59  DA59        0.0865
   1180  C1'       17.3660   18.4340  -21.2470 C.3    59  DA59        0.2094
   1181  N9        16.3050   18.2280  -20.5060 N.ar   59  DA59       -0.2714
   1182  C8        15.0570   18.1640  -21.0680 C.ar   59  DA59        0.1815
   1183  N7        14.2660   17.2850  -20.4980 N.ar   59  DA59       -0.2193
   1184  C5        15.0480   16.7350  -19.4950 C.ar   59  DA59        0.1518
   1185  C6        14.7910   15.7450  -18.5310 C.ar   59  DA59        0.1919
   1186  N6        13.6220   15.1090  -18.4180 N.pl3  59  DA59       -0.1054
   1187  N1        15.7880   15.4270  -17.6780 N.ar   59  DA59       -0.2040
   1188  C2        16.9580   16.0660  -17.7920 C.ar   59  DA59        0.2016
   1189  N3        17.3190   17.0130  -18.6540 N.ar   59  DA59       -0.2048
   1190  C4        16.3070   17.3050  -19.4880 C.ar   59  DA59        0.1691
   1191  P         20.9900   17.2240  -23.2860 P.3    60  DC60        0.2141
   1192  OP1       22.3650   17.4690  -23.8180 O.3    60  DC60       -0.4373
   1193  OP2       20.1640   16.1060  -23.8270 O.2    60  DC60       -0.5172
   1194  O5'       21.0970   17.0060  -21.7120 O.3    60  DC60       -0.3114
   1195  C5'       22.0880   17.6800  -20.9510 C.3    60  DC60        0.1811
   1196  C4'       22.3750   16.9030  -19.7030 C.3    60  DC60        0.1746
   1197  O4'       21.1390   16.8400  -18.9420 O.3    60  DC60       -0.3327
   1198  C3'       22.7680   15.4560  -19.9540 C.3    60  DC60        0.1558
   1199  O3'       24.1740   15.2940  -20.1860 O.3    60  DC60       -0.3138
   1200  C2'       22.2450   14.7480  -18.7030 C.3    60  DC60        0.0866
   1201  C1'       20.9550   15.5380  -18.4170 C.3    60  DC60        0.2106
   1202  N1        19.7600   14.9540  -19.0960 N.ar   60  DC60       -0.2556
   1203  C2        19.1700   13.8270  -18.5120 C.ar   60  DC60        0.3531
   1204  O2        19.6510   13.3800  -17.4570 O.2    60  DC60       -0.2443
   1205  N3        18.0980   13.2580  -19.1120 N.ar   60  DC60       -0.1739
   1206  C4        17.6160   13.7720  -20.2440 C.ar   60  DC60        0.1759
   1207  N4        16.5580   13.1770  -20.8000 N.pl3  60  DC60       -0.1070
   1208  C5        18.1990   14.9130  -20.8520 C.ar   60  DC60        0.0566
   1209  C6        19.2580   15.4720  -20.2560 C.ar   60  DC60        0.0849
   1210  P         24.7890   14.2320  -21.4550 P.3    61  DA61        0.2141
   1211  OP1       26.2640   14.4000  -21.4180 O.3    61  DA61       -0.4373
   1212  OP2       24.0680   14.1830  -22.7610 O.2    61  DA61       -0.5172
   1213  O5'       24.4640   12.9410  -20.6040 O.3    61  DA61       -0.3114
   1214  C5'       25.2100   12.6780  -19.4460 C.3    61  DA61        0.1811
   1215  C4'       24.6140   11.5130  -18.7080 C.3    61  DA61        0.1744
   1216  O4'       23.2250   11.8160  -18.4330 O.3    61  DA61       -0.3349
   1217  C3'       24.5050   10.1890  -19.4440 C.3    61  DA61        0.1555
   1218  O3'       25.7310    9.4690  -19.5070 O.3    61  DA61       -0.3139
   1219  C2'       23.4690    9.4710  -18.5890 C.3    61  DA61        0.0835
   1220  C1'       22.4890   10.6070  -18.3100 C.3    61  DA61        0.1974
   1221  N9        21.4340   10.5850  -19.3070 N.pl3  61  DA61       -0.2459
   1222  C8        21.2690   11.3410  -20.4380 C.2    61  DA61        0.1667
   1223  N7        20.1430   11.1070  -21.0710 N.2    61  DA61       -0.2252
   1224  C5        19.5280   10.1300  -20.3040 C.2    61  DA61        0.1393
   1225  C6        18.3030    9.4530  -20.4400 C.ar   61  DA61        0.2024
   1226  N6        17.4450    9.6710  -21.4390 N.ar   61  DA61       -0.1256
   1227  N1        17.9880    8.5350  -19.5010 N.ar   61  DA61       -0.2022
   1228  C2        18.8490    8.3190  -18.5000 C.2    61  DA61        0.1975
   1229  N3        20.0270    8.8910  -18.2660 N.2    61  DA61       -0.2252
   1230  C4        20.3120    9.7970  -19.2160 C.3    61  DA61        0.2267
   1231  P         25.8750    8.2890  -20.5800 P.3    62  DT62        0.2141
   1232  OP1       27.2310    7.7200  -20.6620 O.3    62  DT62       -0.4373
   1233  OP2       25.2400    8.8450  -21.7880 O.2    62  DT62       -0.5172
   1234  O5'       24.8580    7.1600  -20.0860 O.3    62  DT62       -0.3115
   1235  C5'       25.3250    6.1150  -19.2510 C.3    62  DT62        0.1785
   1236  C4'       24.1790    5.4200  -18.5640 C.3    62  DT62        0.1473
   1237  O4'       23.0990    6.3660  -18.3810 O.3    62  DT62       -0.3353
   1238  C3'       23.5010    4.3020  -19.3340 C.3    62  DT62        0.0368
   1239  O3'       24.2200    3.0870  -19.3430 O.3    62  DT62       -0.1270
   1240  C2'       22.1480    4.2170  -18.6440 C.3    62  DT62        0.0566
   1241  C1'       21.8590    5.7010  -18.4970 C.3    62  DT62        0.2081
   1242  N1        21.1360    6.3020  -19.6690 N.ar   62  DT62       -0.2559
   1243  C2        19.8220    5.9660  -19.9360 C.ar   62  DT62        0.3545
   1244  O2        19.2330    5.0730  -19.3530 O.2    62  DT62       -0.2443
   1245  N3        19.2190    6.7170  -20.9160 N.ar   62  DT62       -0.1533
   1246  C4        19.7840    7.7460  -21.6390 C.ar   62  DT62        0.2804
   1247  O4        19.1140    8.3290  -22.4880 O.2    62  DT62       -0.2654
   1248  C5        21.1500    8.0340  -21.3050 C.ar   62  DT62        0.0534
   1249  C6        21.7620    7.3190  -20.3560 C.ar   62  DT62        0.0824
   1250  C7        21.8540    9.1370  -22.0380 C.3    62  DT62        0.0377
   1251  P         24.3680    2.9170  -20.5240 P.3    63  DA63        0.5677
   1252  OP1       25.0420    1.8000  -21.2380 O.2    63  DA63       -0.2249
   1253  OP2       23.2640    3.6570  -21.1890 O.2    63  DA63       -0.2249
   1254  O5'       23.7990    2.3390  -19.1530 O.3    63  DA63       -0.2092
   1255  C5'       22.9640    1.1820  -19.1650 C.3    63  DA63        0.2145
   1256  C4'       22.7250    0.6810  -17.7630 C.3    63  DA63        0.1776
   1257  O4'       23.9960    0.3630  -17.1430 O.3    63  DA63       -0.3326
   1258  C3'       22.0720    1.6680  -16.8140 C.3    63  DA63        0.1559
   1259  O3'       20.6590    1.6150  -16.9510 O.3    63  DA63       -0.3138
   1260  C2'       22.5240    1.1420  -15.4590 C.3    63  DA63        0.0865
   1261  C1'       23.9610    0.7170  -15.7710 C.3    63  DA63        0.2094
   1262  N9        24.9760    1.9220  -15.6130 N.ar   63  DA63       -0.2714
   1263  C8        25.7450    2.4940  -16.5920 C.ar   63  DA63        0.1815
   1264  N7        26.6440    3.3340  -16.1370 N.ar   63  DA63       -0.2193
   1265  C5        26.4510    3.3130  -14.7640 C.ar   63  DA63        0.1518
   1266  C6        27.0900    3.9880  -13.7090 C.ar   63  DA63        0.1919
   1267  N6        28.0940    4.8500  -13.8840 N.pl3  63  DA63       -0.1054
   1268  N1        26.6560    3.7430  -12.4550 N.ar   63  DA63       -0.2040
   1269  C2        25.6500    2.8780  -12.2810 C.ar   63  DA63        0.2016
   1270  N3        24.9720    2.1830  -13.1910 N.ar   63  DA63       -0.2048
   1271  C4        25.4270    2.4490  -14.4270 C.ar   63  DA63        0.1691
   1272  P         19.6590    2.7770  -16.4200 P.3    64  DC64        0.2141
   1273  OP1       18.4920    3.3390  -17.1350 O.2    64  DC64       -0.5172
   1274  OP2       20.7270    3.6840  -15.9290 O.3    64  DC64       -0.4373
   1275  O5'       19.0980    1.8890  -15.2260 O.3    64  DC64       -0.3114
   1276  C5'       18.7840    2.4760  -13.9710 C.3    64  DC64        0.1811
   1277  C4'       19.6720    1.9010  -12.8930 C.3    64  DC64        0.1746
   1278  O4'       21.0650    2.1560  -13.2330 O.3    64  DC64       -0.3327
   1279  C3'       19.5140    2.5570  -11.5330 C.3    64  DC64        0.1558
   1280  O3'       18.4050    2.0210  -10.8130 O.3    64  DC64       -0.3138
   1281  C2'       20.8530    2.2650  -10.8670 C.3    64  DC64        0.0866
   1282  C1'       21.8120    2.3950  -12.0500 C.3    64  DC64        0.2106
   1283  N1        22.3770    3.7720  -12.0630 N.ar   64  DC64       -0.2556
   1284  C2        23.2650    4.1700  -11.0570 C.ar   64  DC64        0.3531
   1285  O2        23.4900    3.3900  -10.1150 O.2    64  DC64       -0.2443
   1286  N3        23.8520    5.3880  -11.1380 N.ar   64  DC64       -0.1739
   1287  C4        23.5800    6.1920  -12.1670 C.ar   64  DC64        0.1759
   1288  N4        24.1810    7.3830  -12.2040 N.pl3  64  DC64       -0.1070
   1289  C5        22.6830    5.8080  -13.1960 C.ar   64  DC64        0.0566
   1290  C6        22.1060    4.6040  -13.1130 C.ar   64  DC64        0.0849
   1291  P         17.5860    2.9870   -9.6280 P.3    65  DC65        0.2141
   1292  OP1       16.4300    2.2050   -9.1130 O.3    65  DC65       -0.4373
   1293  OP2       17.3690    4.1530  -10.5310 O.2    65  DC65       -0.5172
   1294  O5'       18.5650    3.4110   -8.4340 O.3    65  DC65       -0.3114
   1295  C5'       18.7170    2.5710   -7.2810 C.3    65  DC65        0.1811
   1296  C4'       19.9540    2.9330   -6.4590 C.3    65  DC65        0.1746
   1297  O4'       21.0940    3.2290   -7.3290 O.3    65  DC65       -0.3327
   1298  C3'       19.8860    4.1450   -5.5350 C.3    65  DC65        0.1558
   1299  O3'       19.1930    3.9230   -4.3030 O.3    65  DC65       -0.3138
   1300  C2'       21.3650    4.4730   -5.3260 C.3    65  DC65        0.0866
   1301  C1'       21.9340    4.2050   -6.7110 C.3    65  DC65        0.2106
   1302  N1        21.9480    5.4610   -7.4850 N.ar   65  DC65       -0.2556
   1303  C2        22.7520    6.5490   -7.1260 C.ar   65  DC65        0.3531
   1304  O2        23.4050    6.4880   -6.0710 O.2    65  DC65       -0.2443
   1305  N3        22.7940    7.6330   -7.9370 N.ar   65  DC65       -0.1739
   1306  C4        22.0750    7.6540   -9.0600 C.ar   65  DC65        0.1759
   1307  N4        22.1480    8.7440   -9.8280 N.pl3  65  DC65       -0.1070
   1308  C5        21.2540    6.5620   -9.4410 C.ar   65  DC65        0.0566
   1309  C6        21.2160    5.4930   -8.6380 C.ar   65  DC65        0.0849
   1310  P         18.3810    5.0320   -3.7290 P.3    66  DA66        0.2141
   1311  OP1       17.6750    3.8510   -3.1800 O.3    66  DA66       -0.4373
   1312  OP2       17.6840    5.9390   -4.6710 O.2    66  DA66       -0.5172
   1313  O5'       18.9560    5.8780   -2.5140 O.3    66  DA66       -0.3114
   1314  C5'       20.0900    5.3670   -1.7910 C.3    66  DA66        0.1811
   1315  C4'       21.3130    6.2390   -1.9930 C.3    66  DA66        0.1746
   1316  O4'       21.6030    6.4700   -3.4000 O.3    66  DA66       -0.3327
   1317  C3'       21.2260    7.6450   -1.4490 C.3    66  DA66        0.1558
   1318  O3'       21.3290    7.6320   -0.0400 O.3    66  DA66       -0.3138
   1319  C2'       22.4170    8.3090   -2.1310 C.3    66  DA66        0.0865
   1320  C1'       22.3310    7.6900   -3.5280 C.3    66  DA66        0.2094
   1321  N9        21.7010    8.4500   -4.4200 N.ar   66  DA66       -0.2714
   1322  C8        20.4770    8.0980   -4.9250 C.ar   66  DA66        0.1815
   1323  N7        20.0590    8.8800   -5.8930 N.ar   66  DA66       -0.2193
   1324  C5        21.0780    9.8090   -6.0320 C.ar   66  DA66        0.1518
   1325  C6        21.2440   10.9100   -6.8920 C.ar   66  DA66        0.1919
   1326  N6        20.3460   11.2710   -7.8110 N.pl3  66  DA66       -0.1054
   1327  N1        22.3770   11.6330   -6.7710 N.ar   66  DA66       -0.2040
   1328  C2        23.2770   11.2690   -5.8500 C.ar   66  DA66        0.2016
   1329  N3        23.2340   10.2570   -4.9870 N.ar   66  DA66       -0.2048
   1330  C4        22.0950    9.5580   -5.1310 C.ar   66  DA66        0.1691
   1331  P         20.6030    8.8550    0.9430 P.3    67  DG67        0.2141
   1332  OP1       21.2330    8.4750    2.2280 O.3    67  DG67       -0.4373
   1333  OP2       19.1850    9.2750    0.9040 O.2    67  DG67       -0.5172
   1334  O5'       21.5140    9.9810    0.2660 O.3    67  DG67       -0.3114
   1335  C5'       22.9130    9.9530    0.4950 C.3    67  DG67        0.1811
   1336  C4'       23.6490   10.9320   -0.4000 C.3    67  DG67        0.1746
   1337  O4'       23.3800   10.6440   -1.7960 O.3    67  DG67       -0.3327
   1338  C3'       23.2500   12.3870   -0.2670 C.3    67  DG67        0.1558
   1339  O3'       23.8480   12.9580    0.8890 O.3    67  DG67       -0.3138
   1340  C2'       23.8450   12.9270   -1.5620 C.3    67  DG67        0.0865
   1341  C1'       23.3930   11.8500   -2.5340 C.3    67  DG67        0.2094
   1342  N9        21.9810   12.1780   -2.9690 N.ar   67  DG67       -0.2713
   1343  C8        20.8210   11.5970   -2.5180 C.ar   67  DG67        0.1816
   1344  N7        19.7560   12.0190   -3.1450 N.ar   67  DG67       -0.2173
   1345  C5        20.2390   12.9310   -4.0650 C.ar   67  DG67        0.1748
   1346  C6        19.5590   13.7190   -5.0280 C.ar   67  DG67        0.3023
   1347  O6        18.3440   13.7630   -5.2630 O.2    67  DG67       -0.2633
   1348  N1        20.4330   14.5160   -5.7610 N.ar   67  DG67       -0.1709
   1349  C2        21.7960   14.5500   -5.5870 C.ar   67  DG67        0.2606
   1350  N2        22.4740   15.3820   -6.3900 N.pl3  67  DG67       -0.0859
   1351  N3        22.4430   13.8240   -4.6960 N.ar   67  DG67       -0.1918
   1352  C4        21.6130   13.0430   -3.9720 C.ar   67  DG67        0.1722
   1353  P         23.0730   13.3670    1.5280 P.3    68  DC68        0.2141
   1354  OP1       23.9530   13.6130    2.6910 O.3    68  DC68       -0.4373
   1355  OP2       21.7580   12.7130    1.7070 O.2    68  DC68       -0.5172
   1356  O5'       22.7240   14.7610    0.8160 O.3    68  DC68       -0.3114
   1357  C5'       23.6500   15.8420    0.8370 C.3    68  DC68        0.1811
   1358  C4'       23.2230   16.9950   -0.0470 C.3    68  DC68        0.1746
   1359  O4'       22.7390   16.4890   -1.3210 O.3    68  DC68       -0.3327
   1360  C3'       22.0730   17.8680    0.4470 C.3    68  DC68        0.1558
   1361  O3'       22.4370   18.8200    1.4340 O.3    68  DC68       -0.3138
   1362  C2'       21.5960   18.5050   -0.8510 C.3    68  DC68        0.0866
   1363  C1'       21.7000   17.3150   -1.8020 C.3    68  DC68        0.2106
   1364  N1        20.4430   16.5510   -1.8120 N.ar   68  DC68       -0.2556
   1365  C2        19.3400   16.9710   -2.5650 C.ar   68  DC68        0.3531
   1366  O2        19.3810   18.0850   -3.1140 O.2    68  DC68       -0.2443
   1367  N3        18.2650   16.1550   -2.6720 N.ar   68  DC68       -0.1739
   1368  C4        18.2650   14.9680   -2.0640 C.ar   68  DC68        0.1759
   1369  N4        17.1830   14.1980   -2.1980 N.pl3  68  DC68       -0.1070
   1370  C5        19.3720   14.5240   -1.2970 C.ar   68  DC68        0.0566
   1371  C6        20.4320   15.3330   -1.1940 C.ar   68  DC68        0.0849
   1372  P         21.3460   19.3020    2.4600 P.3    69  DT69        0.2141
   1373  OP1       21.8760   20.2680    3.4420 O.3    69  DT69       -0.4373
   1374  OP2       20.9070   17.9630    2.9130 O.2    69  DT69       -0.5172
   1375  O5'       20.1080   19.9850    1.6690 O.3    69  DT69       -0.3114
   1376  C5'       20.2200   21.2900    1.1090 C.3    69  DT69        0.1811
   1377  C4'       18.9070   21.7600    0.4810 C.3    69  DT69        0.1746
   1378  O4'       18.5240   20.8980   -0.6230 O.3    69  DT69       -0.3327
   1379  C3'       17.7920   21.7020    1.4790 C.3    69  DT69        0.1558
   1380  O3'       17.5610   22.9560    2.1080 O.3    69  DT69       -0.3138
   1381  C2'       16.5930   21.2260    0.7310 C.3    69  DT69        0.0866
   1382  C1'       17.1160   20.5370   -0.4850 C.3    69  DT69        0.2106
   1383  N1        16.9750   19.1380   -0.2250 N.ar   69  DT69       -0.2559
   1384  C2        15.8120   18.5360   -0.6670 C.ar   69  DT69        0.3545
   1385  O2        14.9640   19.1240   -1.3150 O.2    69  DT69       -0.2443
   1386  N3        15.6760   17.2130   -0.3220 N.ar   69  DT69       -0.1542
   1387  C4        16.5650   16.4490    0.4040 C.ar   69  DT69        0.2678
   1388  O4        16.3030   15.2710    0.6340 O.3    69  DT69       -0.3048
   1389  C5        17.7470   17.1460    0.8280 C.ar   69  DT69        0.0523
   1390  C6        17.9050   18.4320    0.5060 C.ar   69  DT69        0.0824
   1391  C7        18.7760   16.4010    1.6250 C.3    69  DT69        0.0376
   1392  P         16.7360   23.0150    3.5070 P.3    70  DT70        0.2141
   1393  OP1       16.7770   24.3970    4.0040 O.2    70  DT70       -0.5172
   1394  OP2       16.6400   21.9360    4.5280 O.3    70  DT70       -0.4373
   1395  O5'       15.5250   22.9320    2.4570 O.3    70  DT70       -0.3114
   1396  C5'       15.2310   24.0250    1.5630 C.3    70  DT70        0.1811
   1397  C4'       14.0730   23.6770    0.6380 C.3    70  DT70        0.1746
   1398  O4'       14.3560   22.4570   -0.0800 O.3    70  DT70       -0.3327
   1399  C3'       12.7690   23.3360    1.3300 C.3    70  DT70        0.1558
   1400  O3'       12.0890   24.4910    1.6010 O.3    70  DT70       -0.3138
   1401  C2'       12.0060   22.5770    0.2540 C.3    70  DT70        0.0866
   1402  C1'       13.1480   21.7240   -0.2610 C.3    70  DT70        0.2106
   1403  N1        13.2410   20.3960    0.3490 N.ar   70  DT70       -0.2559
   1404  C2        12.3120   19.4270    0.0220 C.ar   70  DT70        0.3545
   1405  O2        11.4250   19.6060   -0.7940 O.2    70  DT70       -0.2443
   1406  N3        12.4560   18.2350    0.6890 N.ar   70  DT70       -0.1533
   1407  C4        13.4160   17.9220    1.6290 C.ar   70  DT70        0.2804
   1408  O4        13.4190   16.8050    2.1420 O.2    70  DT70       -0.2654
   1409  C5        14.3430   18.9800    1.9150 C.ar   70  DT70        0.0534
   1410  C6        14.2260   20.1490    1.2800 C.ar   70  DT70        0.0824
   1411  C7        15.4250   18.7370    2.9250 C.3    70  DT70        0.0377
   1412  P         11.5190   24.6030    2.9800 P.3    71  DA71        0.2141
   1413  OP1       11.5210   26.0360    3.3830 O.2    71  DA71       -0.5172
   1414  OP2       12.0470   23.5810    3.9250 O.3    71  DA71       -0.4373
   1415  O5'       10.0440   24.1410    2.5670 O.3    71  DA71       -0.3114
   1416  C5'        9.4750   24.5750    1.3360 C.3    71  DA71        0.1811
   1417  C4'        8.3690   23.6440    0.8820 C.3    71  DA71        0.1746
   1418  O4'        8.8810   22.3110    0.6220 O.3    71  DA71       -0.3327
   1419  C3'        7.2010   23.4200    1.8240 C.3    71  DA71        0.1558
   1420  O3'        6.2690   24.4860    1.7300 O.3    71  DA71       -0.3138
   1421  C2'        6.6180   22.0980    1.3310 C.3    71  DA71        0.0865
   1422  C1'        7.8690   21.3500    0.8750 C.3    71  DA71        0.2094
   1423  N9         8.3480   20.4110    1.8940 N.ar   71  DA71       -0.2714
   1424  C8         9.3890   20.5980    2.7650 C.ar   71  DA71        0.1815
   1425  N7         9.6120   19.5710    3.5500 N.ar   71  DA71       -0.2190
   1426  C5         8.6510   18.6480    3.1700 C.ar   71  DA71        0.1560
   1427  C6         8.3550   17.3500    3.6220 C.ar   71  DA71        0.2232
   1428  N6         9.0290   16.7350    4.5970 N.2    71  DA71       -0.0540
   1429  N1         7.3300   16.6990    3.0310 N.ar   71  DA71       -0.2004
   1430  C2         6.6560   17.3160    2.0540 C.ar   71  DA71        0.2018
   1431  N3         6.8400   18.5310    1.5430 N.ar   71  DA71       -0.2048
   1432  C4         7.8640   19.1520    2.1520 C.ar   71  DA71        0.1694
   1433  P          5.0740   24.6670    2.7700 P.3    72  DT72        0.2141
   1434  OP1        4.0250   25.7210    2.7590 O.2    72  DT72       -0.5172
   1435  OP2        5.9330   24.5300    3.9770 O.3    72  DT72       -0.4373
   1436  O5'        4.3380   23.2710    2.5650 O.3    72  DT72       -0.3114
   1437  C5'        3.1920   23.1410    1.7340 C.3    72  DT72        0.1811
   1438  C4'        2.4660   21.8540    2.0570 C.3    72  DT72        0.1746
   1439  O4'        3.4100   20.7450    2.0020 O.3    72  DT72       -0.3327
   1440  C3'        1.8690   21.7550    3.4530 C.3    72  DT72        0.1558
   1441  O3'        0.5910   22.3870    3.5080 O.3    72  DT72       -0.3138
   1442  C2'        1.7910   20.2510    3.6670 C.3    72  DT72        0.0866
   1443  C1'        3.0710   19.7680    2.9750 C.3    72  DT72        0.2106
   1444  N1         4.2880   19.5430    3.9200 N.ar   72  DT72       -0.2559
   1445  C2         4.3510   18.3540    4.6220 C.ar   72  DT72        0.3545
   1446  O2         3.5350   17.4600    4.4880 O.2    72  DT72       -0.2443
   1447  N3         5.4100   18.2470    5.4910 N.ar   72  DT72       -0.1533
   1448  C4         6.3900   19.1890    5.7250 C.ar   72  DT72        0.2804
   1449  O4         7.2790   18.9480    6.5370 O.2    72  DT72       -0.2654
   1450  C5         6.2540   20.3970    4.9600 C.ar   72  DT72        0.0534
   1451  C6         5.2350   20.5270    4.1070 C.ar   72  DT72        0.0824
   1452  C7         7.2710   21.4840    5.1440 C.3    72  DT72        0.0377
   1453  P          0.1310   23.4810    4.9000 P.3    73  DT73        0.2141
   1454  OP1       -1.2860   23.9080    4.9360 O.2    73  DT73       -0.5172
   1455  OP2        1.2000   24.4880    5.0540 O.3    73  DT73       -0.4373
   1456  O5'        0.3070   22.3590    6.0120 O.3    73  DT73       -0.3114
   1457  C5'       -0.7000   21.3600    6.1850 C.3    73  DT73        0.1811
   1458  C4'       -0.2530   20.3110    7.1740 C.3    73  DT73        0.1746
   1459  O4'        0.9090   19.5990    6.6670 O.3    73  DT73       -0.3327
   1460  C3'        0.2270   20.7890    8.5320 C.3    73  DT73        0.1558
   1461  O3'       -0.8190   21.1890    9.3950 O.3    73  DT73       -0.3138
   1462  C2'        0.9280   19.5420    9.0290 C.3    73  DT73        0.0866
   1463  C1'        1.6870   19.1370    7.7650 C.3    73  DT73        0.2106
   1464  N1         3.0490   19.8740    7.7780 N.ar   73  DT73       -0.2559
   1465  C2         4.0350   19.4690    8.6570 C.ar   73  DT73        0.3545
   1466  O2         3.8450   18.6480    9.5370 O.2    73  DT73       -0.2443
   1467  N3         5.2600   20.0630    8.4690 N.ar   73  DT73       -0.1533
   1468  C4         5.5900   21.0000    7.5120 C.ar   73  DT73        0.2804
   1469  O4         6.7360   21.4410    7.4670 O.2    73  DT73       -0.2654
   1470  C5         4.5120   21.3690    6.6390 C.ar   73  DT73        0.0534
   1471  C6         3.3110   20.8080    6.7990 C.ar   73  DT73        0.0824
   1472  C7         4.7710   22.3830    5.5640 C.3    73  DT73        0.0377
   1473  P         -1.0470   22.6000    9.6120 P.3    74  DC74        0.2141
   1474  OP1       -2.1060   21.6290    9.9680 O.3    74  DC74       -0.4373
   1475  OP2       -1.3690   23.8560    8.8920 O.2    74  DC74       -0.5172
   1476  O5'       -0.3060   23.0940   10.9400 O.3    74  DC74       -0.3114
   1477  C5'       -0.0720   22.2100   12.0240 C.3    74  DC74        0.1810
   1478  C4'        1.0380   22.7250   12.9060 C.3    74  DC74        0.1725
   1479  O4'        1.1450   21.9160   14.1060 O.3    74  DC74       -0.3511
   1480  C3'        2.4280   22.7170   12.2840 C.3    74  DC74        0.1538
   1481  O3'        2.6840   23.9010   11.5510 O.3    74  DC74       -0.3139
   1482  C2'        3.3410   22.5910   13.4910 C.3    74  DC74        0.0646
   1483  C1'        2.4990   21.7670   14.4650 C.3    74  DC74        0.1449
   1484  N1         2.4460   19.6050   13.8130 N.2    74  DC74       -0.1389
   1485  C2         3.3540   18.9810   14.6760 C.1    74  DC74        0.3500
   1486  O2         3.8610   19.6470   15.5950 O.2    74  DC74       -0.1766
   1487  N3         3.6540   17.6740   14.4850 N.am   74  DC74        0.0897
   1488  C4         3.0870   16.9980   13.4850 C.2    74  DC74        0.4204
   1489  N4         3.4140   15.7120   13.3360 N.pl3  74  DC74        0.2150
   1490  C5         2.1640   17.6120   12.6000 C.2    74  DC74        0.1183
   1491  C6         1.8710   18.9030   12.7920 C.2    74  DC74        0.1222
   1492  P          3.7460   23.9430   10.6020 P.3    75  DA75        0.2141
   1493  OP1        3.8810   25.1910    9.8170 O.2    75  DA75       -0.5172
   1494  OP2        3.4280   22.6590    9.9370 O.3    75  DA75       -0.4373
   1495  O5'        5.0990   23.6280   11.3980 O.3    75  DA75       -0.3114
   1496  C5'        5.8390   24.6520   12.0490 C.3    75  DA75        0.1811
   1497  C4'        6.8720   24.0630   12.9760 C.3    75  DA75        0.1746
   1498  O4'        6.3070   22.8850   13.5910 O.3    75  DA75       -0.3327
   1499  C3'        8.1390   23.5290   12.3280 C.3    75  DA75        0.1558
   1500  O3'        9.1010   24.5220   12.0360 O.3    75  DA75       -0.3138
   1501  C2'        8.6420   22.4920   13.3260 C.3    75  DA75        0.0865
   1502  C1'        7.3230   21.9370   13.8400 C.3    75  DA75        0.2094
   1503  N9         7.0130   20.6660   13.2180 N.ar   75  DA75       -0.2714
   1504  C8         5.9620   20.4290   12.3700 C.ar   75  DA75        0.1815
   1505  N7         5.9000   19.1920   11.9390 N.ar   75  DA75       -0.2193
   1506  C5         6.9830   18.5740   12.5430 C.ar   75  DA75        0.1518
   1507  C6         7.4710   17.2570   12.4920 C.ar   75  DA75        0.1919
   1508  N6         6.9030   16.2850   11.7740 N.pl3  75  DA75       -0.1054
   1509  N1         8.5760   16.9690   13.2130 N.ar   75  DA75       -0.2040
   1510  C2         9.1440   17.9430   13.9340 C.ar   75  DA75        0.2016
   1511  N3         8.7780   19.2160   14.0620 N.ar   75  DA75       -0.2048
   1512  C4         7.6790   19.4700   13.3330 C.ar   75  DA75        0.1691
   1513  P          9.9160   24.3260   10.7130 P.3    76  DA76        0.2141
   1514  OP1       10.8110   25.5050   10.6990 O.3    76  DA76       -0.4373
   1515  OP2        9.0850   23.9720    9.5410 O.2    76  DA76       -0.5172
   1516  O5'       10.7720   23.0720   11.1930 O.3    76  DA76       -0.3114
   1517  C5'       11.4830   23.1970   12.3830 C.3    76  DA76        0.1811
   1518  C4'       12.0880   21.8560   12.7320 C.3    76  DA76        0.1746
   1519  O4'       11.0180   20.9470   13.1060 O.3    76  DA76       -0.3327
   1520  C3'       12.7670   21.1590   11.5600 C.3    76  DA76        0.1558
   1521  O3'       14.1190   21.6220   11.3260 O.3    76  DA76       -0.3138
   1522  C2'       12.7320   19.7240   12.0610 C.3    76  DA76        0.0865
   1523  C1'       11.3410   19.6330   12.6440 C.3    76  DA76        0.2094
   1524  N9        10.2700   19.2820   11.6580 N.ar   76  DA76       -0.2714
   1525  C8         9.3960   20.1160   11.0120 C.ar   76  DA76        0.1815
   1526  N7         8.5770   19.4940   10.1960 N.ar   76  DA76       -0.2193
   1527  C5         8.9400   18.1610   10.3150 C.ar   76  DA76        0.1518
   1528  C6         8.4520   16.9910    9.7090 C.ar   76  DA76        0.1919
   1529  N6         7.4500   16.9780    8.8260 N.pl3  76  DA76       -0.1054
   1530  N1         9.0350   15.8210   10.0450 N.ar   76  DA76       -0.2040
   1531  C2        10.0380   15.8350   10.9310 C.ar   76  DA76        0.2016
   1532  N3        10.5830   16.8690   11.5680 N.ar   76  DA76       -0.2048
   1533  C4         9.9820   18.0160   11.2110 C.ar   76  DA76        0.1691
   1534  P         14.7760   21.3970    9.8590 P.3    77  DT77        0.2141
   1535  OP1       16.1840   21.8850    9.9250 O.3    77  DT77       -0.4373
   1536  OP2       13.8860   21.8620    8.7510 O.2    77  DT77       -0.5172
   1537  O5'       14.8010   19.7940    9.8340 O.3    77  DT77       -0.3114
   1538  C5'       16.0240   19.0860    9.6220 C.3    77  DT77        0.1811
   1539  C4'       15.7930   17.5860    9.5890 C.3    77  DT77        0.1746
   1540  O4'       14.5180   17.2490   10.1960 O.3    77  DT77       -0.3327
   1541  C3'       15.6790   16.9530    8.2170 C.3    77  DT77        0.1558
   1542  O3'       16.9080   16.7570    7.5910 O.3    77  DT77       -0.3138
   1543  C2'       14.9720   15.6480    8.5040 C.3    77  DT77        0.0866
   1544  C1'       13.9700   16.0930    9.5590 C.3    77  DT77        0.2106
   1545  N1        12.6800   16.5590    8.7620 N.ar   77  DT77       -0.2559
   1546  C2        11.8150   15.5890    8.2920 C.ar   77  DT77        0.3545
   1547  O2        12.0980   14.4040    8.2630 O.2    77  DT77       -0.2443
   1548  N3        10.6000   16.0580    7.8530 N.ar   77  DT77       -0.1533
   1549  C4        10.1740   17.3690    7.8370 C.ar   77  DT77        0.2804
   1550  O4         9.0520   17.6350    7.4120 O.2    77  DT77       -0.2654
   1551  C5        11.1290   18.3160    8.3400 C.ar   77  DT77        0.0534
   1552  C6        12.3170   17.8880    8.7730 C.ar   77  DT77        0.0824
   1553  C7        10.7590   19.7690    8.3640 C.3    77  DT77        0.0377
   1554  P         17.0640   17.3690    6.2120 P.3    78  DT78        0.2141
   1555  OP1       18.4970   17.7400    6.0100 O.3    78  DT78       -0.4373
   1556  OP2       16.0340   17.9250    5.2830 O.2    78  DT78       -0.5172
   1557  O5'       16.9580   15.7720    6.2510 O.3    78  DT78       -0.3114
   1558  C5'       17.1960   14.9860    5.0890 C.3    78  DT78        0.1811
   1559  C4'       16.2690   13.7940    5.0520 C.3    78  DT78        0.1748
   1560  O4'       15.0680   14.0610    5.8240 O.3    78  DT78       -0.3327
   1561  C3'       15.7190   13.4930    3.6730 C.3    78  DT78        0.1602
   1562  O3'       16.6740   12.8350    2.8500 O.3    78  DT78       -0.2710
   1563  C2'       14.4780   12.6650    3.9860 C.3    78  DT78        0.0867
   1564  C1'       13.9540   13.3880    5.2310 C.3    78  DT78        0.2106
   1565  N1        12.8940   14.4270    4.7900 N.ar   78  DT78       -0.2559
   1566  C2        11.6200   14.0440    4.4180 C.ar   78  DT78        0.3545
   1567  O2        11.3210   12.8910    4.1600 O.2    78  DT78       -0.2443
   1568  N3        10.7010   15.0640    4.3570 N.ar   78  DT78       -0.1548
   1569  C4        10.9240   16.3980    4.6240 C.ar   78  DT78        0.2598
   1570  O4         9.9960   17.1980    4.5270 O.3    78  DT78       -0.3326
   1571  C5        12.2720   16.7160    5.0030 C.ar   78  DT78        0.0516
   1572  C6        13.1850   15.7440    5.0700 C.ar   78  DT78        0.0824
   1573  C7        12.6160   18.1430    5.3140 C.3    78  DT78        0.0376
   1574  P         16.7040   13.3480    1.9750 P.3    79  DA79        0.5146
   1575  OP1       17.8880   12.4580    1.7740 O.2    79  DA79       -0.2240
   1576  OP2       16.9050   14.8150    1.8460 O.3    79  DA79       -0.0720
   1577  O5'       15.4870   12.8990    1.0070 O.3    79  DA79       -0.2686
   1578  C5'       15.3400   11.5260    0.6850 C.3    79  DA79        0.1831
   1579  C4'       13.9320   11.1350    0.2930 C.3    79  DA79        0.1475
   1580  O4'       12.9230   11.8950    0.9890 O.3    79  DA79       -0.3353
   1581  C3'       13.6450   11.4410   -1.1480 C.3    79  DA79        0.0368
   1582  O3'       14.1370   10.4530   -1.9490 O.3    79  DA79       -0.1145
   1583  C2'       12.1280   11.4910   -1.2510 C.3    79  DA79        0.0566
   1584  C1'       11.7900   12.0240    0.1370 C.3    79  DA79        0.2069
   1585  N9        11.4210   13.4050    0.2280 N.ar   79  DA79       -0.2715
   1586  C8        12.2520   14.4870    0.3570 C.ar   79  DA79        0.1815
   1587  N7        11.6620   15.6370    0.1310 N.ar   79  DA79       -0.2193
   1588  C5        10.3550   15.2860   -0.1680 C.ar   79  DA79        0.1518
   1589  C6         9.2230   16.0510   -0.5000 C.ar   79  DA79        0.1919
   1590  N6         9.2300   17.3830   -0.5900 N.pl3  79  DA79       -0.1054
   1591  N1         8.0700   15.3910   -0.7400 N.ar   79  DA79       -0.2040
   1592  C2         8.0630   14.0560   -0.6490 C.ar   79  DA79        0.2016
   1593  N3         9.0610   13.2290   -0.3450 N.ar   79  DA79       -0.2048
   1594  C4        10.1920   13.9150   -0.1130 C.ar   79  DA79        0.1691
   1595  P         14.0410   10.9040   -3.1670 P.3    80  DG80        0.5327
   1596  OP1       14.4640    9.5600   -2.6850 O.3    80  DG80       -0.1145
   1597  OP2       14.7260   11.5070   -4.3380 O.2    80  DG80       -0.2224
   1598  O5'       12.4740   10.8760   -3.4570 O.3    80  DG80       -0.2675
   1599  C5'       11.6470    9.7860   -2.9840 C.3    80  DG80        0.1858
   1600  C4'       10.1990   10.0130   -3.3560 C.3    80  DG80        0.1776
   1601  O4'        9.5990   10.9940   -2.4730 O.3    80  DG80       -0.3326
   1602  C3'        9.9630   10.5440   -4.7560 C.3    80  DG80        0.1864
   1603  O3'        9.9180    9.5020   -5.6920 O.3    80  DG80       -0.2133
   1604  C2'        8.6210   11.2380   -4.6300 C.3    80  DG80        0.0894
   1605  C1'        8.6950   11.8020   -3.2050 C.3    80  DG80        0.2095
   1606  N9         9.1820   13.2160   -3.2420 N.ar   80  DG80       -0.2713
   1607  C8        10.4370   13.6340   -2.8710 C.ar   80  DG80        0.1816
   1608  N7        10.6060   14.9230   -2.9860 N.ar   80  DG80       -0.2173
   1609  C5         9.3930   15.3870   -3.4590 C.ar   80  DG80        0.1748
   1610  C6         8.9690   16.7020   -3.7810 C.ar   80  DG80        0.3023
   1611  O6         9.6150   17.7550   -3.7040 O.2    80  DG80       -0.2633
   1612  N1         7.6520   16.7290   -4.2320 N.ar   80  DG80       -0.1709
   1613  C2         6.8430   15.6250   -4.3570 C.ar   80  DG80        0.2606
   1614  N2         5.6020   15.8510   -4.8080 N.pl3  80  DG80       -0.0859
   1615  N3         7.2230   14.3980   -4.0630 N.ar   80  DG80       -0.1918
   1616  C4         8.4980   14.3470   -3.6240 C.ar   80  DG80        0.1722
   1617  P         10.5250    9.7980   -6.9990 P.3    81  DA81        0.3939
   1618  OP1        9.9590    8.6980   -6.1780 O.3    81  DA81       -0.1496
   1619  OP2       11.3940    9.4670   -8.1520 O.3    81  DA81       -0.1425
   1620  O5'        9.3020   10.6390   -7.5960 O.3    81  DA81       -0.2926
   1621  C5'        7.9500   10.1690   -7.4640 C.3    81  DA81        0.1828
   1622  C4'        6.9510   11.2510   -7.8540 C.3    81  DA81        0.1747
   1623  O4'        7.0720   12.3970   -6.9630 O.3    81  DA81       -0.3327
   1624  C3'        7.0760   11.8520   -9.2510 C.3    81  DA81        0.1558
   1625  O3'        6.4070   11.0530  -10.2220 O.3    81  DA81       -0.3138
   1626  C2'        6.3570   13.1880   -9.0920 C.3    81  DA81        0.0865
   1627  C1'        6.7730   13.5940   -7.6760 C.3    81  DA81        0.2094
   1628  N9         7.9470   14.4690   -7.7020 N.ar   81  DA81       -0.2714
   1629  C8         9.2440   14.1070   -7.4450 C.ar   81  DA81        0.1815
   1630  N7        10.0580   15.1260   -7.2990 N.ar   81  DA81       -0.2193
   1631  C5         9.2400   16.2310   -7.4740 C.ar   81  DA81        0.1518
   1632  C6         9.4980   17.6130   -7.4410 C.ar   81  DA81        0.1919
   1633  N6        10.7050   18.1350   -7.2100 N.pl3  81  DA81       -0.1054
   1634  N1         8.4600   18.4490   -7.6560 N.ar   81  DA81       -0.2040
   1635  C2         7.2510   17.9260   -7.8860 C.ar   81  DA81        0.2016
   1636  N3         6.8840   16.6470   -7.9410 N.ar   81  DA81       -0.2048
   1637  C4         7.9380   15.8420   -7.7240 C.ar   81  DA81        0.1691
   1638  P          7.0610   10.8870  -11.5760 P.3    82  DT82        0.2141
   1639  OP1        6.1150   10.4860  -12.6410 O.2    82  DT82       -0.5172
   1640  OP2        8.5220   10.9350  -11.8120 O.3    82  DT82       -0.4373
   1641  O5'        6.7080   12.3550  -11.0750 O.3    82  DT82       -0.3114
   1642  C5'        5.3450   12.7250  -11.0510 C.3    82  DT82        0.1811
   1643  C4'        5.2460   14.0900  -11.6490 C.3    82  DT82        0.1746
   1644  O4'        6.2040   14.9160  -10.9670 O.3    82  DT82       -0.3327
   1645  C3'        5.6000   14.1500  -13.1240 C.3    82  DT82        0.1558
   1646  O3'        4.3920   14.2170  -13.8630 O.3    82  DT82       -0.3138
   1647  C2'        6.4650   15.3940  -13.2950 C.3    82  DT82        0.0866
   1648  C1'        6.7140   15.8620  -11.8600 C.3    82  DT82        0.2106
   1649  N1         7.6720   16.4970  -11.4710 N.ar   82  DT82       -0.2559
   1650  C2         7.9780   17.8420  -11.3820 C.ar   82  DT82        0.3545
   1651  O2         7.2560   18.7180  -11.8240 O.2    82  DT82       -0.2443
   1652  N3         9.1660   18.1270  -10.7540 N.ar   82  DT82       -0.1533
   1653  C4        10.0590   17.2230  -10.2180 C.ar   82  DT82        0.2804
   1654  O4        11.0870   17.6320   -9.6830 O.2    82  DT82       -0.2654
   1655  C5         9.6710   15.8470  -10.3510 C.ar   82  DT82        0.0534
   1656  C6         8.5210   15.5410  -10.9580 C.ar   82  DT82        0.0824
   1657  C7        10.5770   14.7860   -9.8000 C.3    82  DT82        0.0377
   1658  P          4.1120   13.4980  -15.5150 P.3    83  DA83        0.2141
   1659  OP1        2.9960   12.6130  -15.8990 O.2    83  DA83       -0.5172
   1660  OP2        5.4440   12.9080  -15.2370 O.3    83  DA83       -0.4373
   1661  O5'        4.2490   14.5480  -16.7040 O.3    83  DA83       -0.3114
   1662  C5'        3.1170   15.2930  -17.1020 C.3    83  DA83        0.1811
   1663  C4'        3.4700   16.2920  -18.1810 C.3    83  DA83        0.1746
   1664  O4'        4.3860   17.3190  -17.7030 O.3    83  DA83       -0.3327
   1665  C3'        4.1920   15.7240  -19.3770 C.3    83  DA83        0.1558
   1666  O3'        3.3500   14.9920  -20.2460 O.3    83  DA83       -0.3138
   1667  C2'        4.7750   16.9750  -19.9940 C.3    83  DA83        0.0865
   1668  C1'        5.2910   17.6880  -18.7430 C.3    83  DA83        0.2094
   1669  N9         6.7160   17.0860  -18.5670 N.ar   83  DA83       -0.2714
   1670  C8         7.1230   16.2720  -17.5420 C.ar   83  DA83        0.1815
   1671  N7         8.4150   16.0430  -17.5290 N.ar   83  DA83       -0.2193
   1672  C5         8.8890   16.7550  -18.6200 C.ar   83  DA83        0.1518
   1673  C6        10.1800   16.9220  -19.1510 C.ar   83  DA83        0.1919
   1674  N6        11.2730   16.3600  -18.6300 N.pl3  83  DA83       -0.1054
   1675  N1        10.3090   17.6960  -20.2500 N.ar   83  DA83       -0.2040
   1676  C2         9.2130   18.2600  -20.7710 C.ar   83  DA83        0.2016
   1677  N3         7.9490   18.1770  -20.3610 N.ar   83  DA83       -0.2048
   1678  C4         7.8540   17.4010  -19.2690 C.ar   83  DA83        0.1691
   1679  P          3.8800   13.6810  -20.7580 P.3    84  DG84        0.2141
   1680  OP1        2.7880   13.4350  -21.7390 O.2    84  DG84       -0.5172
   1681  OP2        4.1540   12.6980  -19.6660 O.3    84  DG84       -0.4373
   1682  O5'        5.1530   13.9050  -21.6380 O.3    84  DG84       -0.3114
   1683  C5'        4.8720   14.5130  -22.8050 C.3    84  DG84        0.1811
   1684  C4'        6.2080   14.7100  -23.4330 C.3    84  DG84        0.1746
   1685  O4'        7.0420   15.4790  -22.5240 O.3    84  DG84       -0.3327
   1686  C3'        7.0010   13.4310  -23.6480 C.3    84  DG84        0.1558
   1687  O3'        6.6150   12.7280  -24.7890 O.3    84  DG84       -0.3138
   1688  C2'        8.3900   14.0310  -23.8150 C.3    84  DG84        0.0865
   1689  C1'        8.3830   15.0450  -22.6880 C.3    84  DG84        0.2094
   1690  N9         8.7250   14.4980  -21.3790 N.ar   84  DG84       -0.2713
   1691  C8         7.8100   14.0820  -20.4420 C.ar   84  DG84        0.1816
   1692  N7         8.3560   13.7260  -19.3110 N.ar   84  DG84       -0.2173
   1693  C5         9.7100   13.9180  -19.5090 C.ar   84  DG84        0.1748
   1694  C6        10.8100   13.7020  -18.6380 C.ar   84  DG84        0.3023
   1695  O6        10.7950   13.2820  -17.4750 O.2    84  DG84       -0.2633
   1696  N1        12.0220   14.0260  -19.2410 N.ar   84  DG84       -0.1709
   1697  C2        12.1590   14.4990  -20.5240 C.ar   84  DG84        0.2606
   1698  N2        13.4100   14.7570  -20.9290 N.pl3  84  DG84       -0.0859
   1699  N3        11.1470   14.7040  -21.3450 N.ar   84  DG84       -0.1918
   1700  C4         9.9600   14.3950  -20.7810 C.ar   84  DG84        0.1722
   1701  P          6.2410   11.3150  -24.7770 P.3    85  DT85        0.2141
   1702  OP1        5.3380   10.6710  -25.7650 O.2    85  DT85       -0.5172
   1703  OP2        5.8830   11.2930  -23.3370 O.3    85  DT85       -0.4373
   1704  O5'        7.7050   10.7070  -24.9450 O.3    85  DT85       -0.3114
   1705  C5'        8.4540   10.9350  -26.1360 C.3    85  DT85        0.1811
   1706  C4'        9.8660   10.4370  -25.9660 C.3    85  DT85        0.1746
   1707  O4'       10.6350   11.3470  -25.1340 O.3    85  DT85       -0.3327
   1708  C3'        9.9740    9.0950  -25.2710 C.3    85  DT85        0.1558
   1709  O3'        9.7160    8.0240  -26.1610 O.3    85  DT85       -0.3138
   1710  C2'       11.3860    9.1490  -24.7080 C.3    85  DT85        0.0866
   1711  C1'       11.4320   10.6000  -24.2260 C.3    85  DT85        0.2106
   1712  N1        10.7160   10.7690  -22.8420 N.ar   85  DT85       -0.2559
   1713  C2        11.4670   10.4880  -21.7160 C.ar   85  DT85        0.3545
   1714  O2        12.6760   10.3400  -21.7430 O.2    85  DT85       -0.2443
   1715  N3        10.7480   10.3840  -20.5490 N.ar   85  DT85       -0.1533
   1716  C4         9.3850   10.5310  -20.3990 C.ar   85  DT85        0.2804
   1717  O4         8.8820   10.4090  -19.2850 O.2    85  DT85       -0.2654
   1718  C5         8.6760   10.8200  -21.6140 C.ar   85  DT85        0.0534
   1719  C6         9.3500   10.9270  -22.7620 C.ar   85  DT85        0.0824
   1720  C7         7.1880   10.9960  -21.5550 C.3    85  DT85        0.0377
   1721  P          8.4650    7.3610  -25.7890 P.3    86  DA86        0.2141
   1722  OP1        7.8350    6.6490  -26.9160 O.2    86  DA86       -0.5172
   1723  OP2        7.5740    7.8910  -24.7150 O.3    86  DA86       -0.4373
   1724  O5'        9.5760    6.3790  -25.1860 O.3    86  DA86       -0.3114
   1725  C5'        9.2720    4.9810  -25.1520 C.3    86  DA86        0.1811
   1726  C4'        9.9830    4.2610  -24.0180 C.3    86  DA86        0.1746
   1727  O4'       11.2800    3.7420  -24.4220 O.3    86  DA86       -0.3327
   1728  C3'       10.2520    5.2010  -22.8640 C.3    86  DA86        0.1558
   1729  O3'        9.1890    5.1640  -21.9210 O.3    86  DA86       -0.3138
   1730  C2'       11.5360    4.6840  -22.2520 C.3    86  DA86        0.0865
   1731  C1'       12.2640    4.0790  -23.4550 C.3    86  DA86        0.2094
   1732  N9        13.2000    5.0170  -24.1490 N.ar   86  DA86       -0.2714
   1733  C8        13.1410    6.0250  -25.0760 C.ar   86  DA86        0.1815
   1734  N7        14.0800    6.9300  -24.9350 N.ar   86  DA86       -0.2193
   1735  C5        14.8040    6.4880  -23.8390 C.ar   86  DA86        0.1518
   1736  C6        15.9320    7.0070  -23.1790 C.ar   86  DA86        0.1919
   1737  N6        16.5510    8.1310  -23.5460 N.pl3  86  DA86       -0.1054
   1738  N1        16.4070    6.3210  -22.1170 N.ar   86  DA86       -0.2040
   1739  C2        15.7870    5.1930  -21.7520 C.ar   86  DA86        0.2016
   1740  N3        14.7220    4.6060  -22.2920 N.ar   86  DA86       -0.2048
   1741  C4        14.2740    5.3120  -23.3440 C.ar   86  DA86        0.1691
   1742  P          8.8400    6.4310  -21.2540 P.3    87  DA87        0.2141
   1743  OP1        7.4030    6.1920  -20.9700 O.3    87  DA87       -0.4373
   1744  OP2        9.2700    7.7400  -21.8100 O.2    87  DA87       -0.5172
   1745  O5'        9.6720    6.1960  -19.9090 O.3    87  DA87       -0.3114
   1746  C5'        9.2810    5.1890  -18.9740 C.3    87  DA87        0.1811
   1747  C4'       10.4410    4.7940  -18.0890 C.3    87  DA87        0.1746
   1748  O4'       11.5860    4.5200  -18.9370 O.3    87  DA87       -0.3327
   1749  C3'       10.9340    5.8220  -17.0810 C.3    87  DA87        0.1558
   1750  O3'       10.2510    5.6960  -15.8320 O.3    87  DA87       -0.3138
   1751  C2'       12.4050    5.4570  -16.9060 C.3    87  DA87        0.0865
   1752  C1'       12.7740    4.9100  -18.2800 C.3    87  DA87        0.2094
   1753  N9        13.4000    6.0080  -19.0770 N.ar   87  DA87       -0.2714
   1754  C8        12.7560    6.9380  -19.8510 C.ar   87  DA87        0.1815
   1755  N7        13.5620    7.8060  -20.4150 N.ar   87  DA87       -0.2191
   1756  C5        14.8200    7.4210  -19.9820 C.ar   87  DA87        0.1545
   1757  C6        16.1050    7.9380  -20.2280 C.ar   87  DA87        0.2060
   1758  N6        16.3380    8.9990  -21.0040 N.ar   87  DA87       -0.1253
   1759  N1        17.1520    7.3200  -19.6410 N.ar   87  DA87       -0.2017
   1760  C2        16.9170    6.2560  -18.8650 C.ar   87  DA87        0.2017
   1761  N3        15.7570    5.6780  -18.5600 N.ar   87  DA87       -0.2048
   1762  C4        14.7370    6.3160  -19.1570 C.ar   87  DA87        0.1693
   1763  P         10.5740    6.7300  -14.6180 P.3    88  DG88        0.2141
   1764  OP1        9.8790    6.4880  -13.3420 O.3    88  DG88       -0.4373
   1765  OP2       10.1270    7.8250  -15.4970 O.2    88  DG88       -0.5172
   1766  O5'       12.1090    7.0620  -14.3270 O.3    88  DG88       -0.3114
   1767  C5'       12.7380    6.5170  -13.1790 C.3    88  DG88        0.1811
   1768  C4'       14.2370    6.5840  -13.3020 C.3    88  DG88        0.1746
   1769  O4'       14.5970    6.5110  -14.7020 O.3    88  DG88       -0.3327
   1770  C3'       14.8990    7.8790  -12.8670 C.3    88  DG88        0.1558
   1771  O3'       15.0160    8.0270  -11.4680 O.3    88  DG88       -0.3138
   1772  C2'       16.2310    7.8150  -13.5980 C.3    88  DG88        0.0865
   1773  C1'       15.7450    7.2960  -14.9400 C.3    88  DG88        0.2094
   1774  N9        15.4110    8.4690  -15.7670 N.ar   88  DG88       -0.2713
   1775  C8        14.1440    8.6240  -16.2750 C.ar   88  DG88        0.1816
   1776  N7        14.0600    9.5720  -17.1690 N.ar   88  DG88       -0.2173
   1777  C5        15.3450   10.0730  -17.2590 C.ar   88  DG88        0.1748
   1778  C6        15.8750   11.1160  -18.0610 C.ar   88  DG88        0.3023
   1779  O6        15.2820   11.8280  -18.8820 O.2    88  DG88       -0.2633
   1780  N1        17.2370   11.3030  -17.8400 N.ar   88  DG88       -0.1709
   1781  C2        17.9950   10.5740  -16.9560 C.ar   88  DG88        0.2606
   1782  N2        19.2930   10.8990  -16.8810 N.pl3  88  DG88       -0.0859
   1783  N3        17.5170    9.6020  -16.2030 N.ar   88  DG88       -0.1918
   1784  C4        16.1960    9.4040  -16.4000 C.ar   88  DG88        0.1722
   1785  P         14.3250    9.2180  -10.9230 P.3    89  DT89        0.2141
   1786  OP1       14.1780    8.3090   -9.7560 O.3    89  DT89       -0.4373
   1787  OP2       13.2500   10.1910  -11.2430 O.2    89  DT89       -0.5172
   1788  O5'       15.6770   10.0210  -10.7170 O.3    89  DT89       -0.3114
   1789  C5'       16.9290    9.3270  -10.7350 C.3    89  DT89        0.1811
   1790  C4'       17.9300   10.0910  -11.5550 C.3    89  DT89        0.1746
   1791  O4'       17.6150   10.0100  -12.9680 O.3    89  DT89       -0.3327
   1792  C3'       17.9490   11.5780  -11.2780 C.3    89  DT89        0.1558
   1793  O3'       18.6630   11.8460  -10.0810 O.3    89  DT89       -0.3138
   1794  C2'       18.6210   12.1200  -12.5340 C.3    89  DT89        0.0866
   1795  C1'       18.0150   11.2120  -13.6100 C.3    89  DT89        0.2106
   1796  N1        16.8720   11.6430  -14.3010 N.ar   89  DT89       -0.2559
   1797  C2        17.0400   12.5470  -15.3320 C.ar   89  DT89        0.3545
   1798  O2        18.1320   12.9500  -15.6920 O.2    89  DT89       -0.2443
   1799  N3        15.8760   12.9660  -15.9320 N.ar   89  DT89       -0.1533
   1800  C4        14.5920   12.5810  -15.6100 C.ar   89  DT89        0.2804
   1801  O4        13.6450   13.0440  -16.2420 O.2    89  DT89       -0.2654
   1802  C5        14.5010   11.6410  -14.5280 C.ar   89  DT89        0.0534
   1803  C6        15.6160   11.2170  -13.9280 C.ar   89  DT89        0.0824
   1804  C7        13.1450   11.1610  -14.1020 C.3    89  DT89        0.0377
   1805  P         18.4370   13.2550   -9.3060 P.3    90  DG90        0.2141
   1806  OP1       19.2300   13.3040   -8.0570 O.3    90  DG90       -0.4373
   1807  OP2       16.9670   13.4300   -9.2810 O.2    90  DG90       -0.5172
   1808  O5'       18.9420   14.4040  -10.2960 O.3    90  DG90       -0.3114
   1809  C5'       20.3260   14.5450  -10.5770 C.3    90  DG90        0.1811
   1810  C4'       20.5890   15.7420  -11.4570 C.3    90  DG90        0.1746
   1811  O4'       20.1530   15.4580  -12.8130 O.3    90  DG90       -0.3327
   1812  C3'       19.8200   17.0100  -11.1100 C.3    90  DG90        0.1558
   1813  O3'       20.3090   17.7140   -9.9810 O.3    90  DG90       -0.3138
   1814  C2'       19.8940   17.7790  -12.4230 C.3    90  DG90        0.0865
   1815  C1'       19.6410   16.6370  -13.4010 C.3    90  DG90        0.2094
   1816  N9        18.1400   16.3570  -13.6620 N.ar   90  DG90       -0.2713
   1817  C8        17.3110   15.4270  -13.0840 C.ar   90  DG90        0.1816
   1818  N7        16.0700   15.5290  -13.4740 N.ar   90  DG90       -0.2173
   1819  C5        16.0770   16.5870  -14.3640 C.ar   90  DG90        0.1748
   1820  C6        15.0220   17.1720  -15.1110 C.ar   90  DG90        0.3023
   1821  O6        13.8270   16.8490  -15.1310 O.2    90  DG90       -0.2633
   1822  N1        15.4650   18.2330  -15.8950 N.ar   90  DG90       -0.1709
   1823  C2        16.7640   18.6770  -15.9520 C.ar   90  DG90        0.2606
   1824  N2        16.9990   19.7140  -16.7680 N.pl3  90  DG90       -0.0859
   1825  N3        17.7550   18.1450  -15.2630 N.ar   90  DG90       -0.1918
   1826  C4        17.3480   17.1130  -14.4940 C.ar   90  DG90        0.1722
   1827  P         19.3090   18.1240   -9.0510 P.3    91  DC91        0.2141
   1828  OP1       19.9790   18.1870   -7.7230 O.3    91  DC91       -0.4373
   1829  OP2       18.0890   17.2860   -9.2110 O.2    91  DC91       -0.5172
   1830  O5'       18.9350   19.5960   -9.5560 O.3    91  DC91       -0.3114
   1831  C5'       19.9550   20.4750  -10.0190 C.3    91  DC91        0.1811
   1832  C4'       19.3870   21.5470  -10.9270 C.3    91  DC91        0.1746
   1833  O4'       18.8060   20.9650  -12.1230 O.3    91  DC91       -0.3327
   1834  C3'       18.2910   22.4360  -10.3720 C.3    91  DC91        0.1558
   1835  O3'       18.8420   23.4770   -9.5780 O.3    91  DC91       -0.3138
   1836  C2'       17.6170   22.9690  -11.6340 C.3    91  DC91        0.0866
   1837  C1'       17.7430   21.7810  -12.5860 C.3    91  DC91        0.2106
   1838  N1        16.5590   21.1740  -12.7780 N.ar   91  DC91       -0.2556
   1839  C2        15.6590   21.5550  -13.7800 C.ar   91  DC91        0.3531
   1840  O2        15.9950   22.4470  -14.5780 O.2    91  DC91       -0.2443
   1841  N3        14.4530   20.9430  -13.8510 N.ar   91  DC91       -0.1739
   1842  C4        14.1350   19.9910  -12.9730 C.ar   91  DC91        0.1759
   1843  N4        12.9350   19.4150  -13.0820 N.pl3  91  DC91       -0.1070
   1844  C5        15.0330   19.5910  -11.9500 C.ar   91  DC91        0.0566
   1845  C6        16.2230   20.1980  -11.8840 C.ar   91  DC91        0.0849
   1846  P         17.8710   24.3770   -8.5500 P.3    92  DA92        0.2141
   1847  OP1       18.6680   25.3830   -7.8000 O.3    92  DA92       -0.4373
   1848  OP2       17.2150   23.2620   -7.8190 O.2    92  DA92       -0.5172
   1849  O5'       16.7490   25.1390   -9.3920 O.3    92  DA92       -0.3114
   1850  C5'       17.0140   26.4230   -9.9920 C.3    92  DA92        0.1811
   1851  C4'       15.7970   26.9250  -10.7410 C.3    92  DA92        0.1746
   1852  O4'       15.4730   26.0100  -11.8160 O.3    92  DA92       -0.3327
   1853  C3'       14.5050   27.0560   -9.9490 C.3    92  DA92        0.1558
   1854  O3'       14.4300   28.3030   -9.2730 O.3    92  DA92       -0.3138
   1855  C2'       13.4320   26.9660  -11.0290 C.3    92  DA92        0.0865
   1856  C1'       14.0730   26.0070  -12.0330 C.3    92  DA92        0.2094
   1857  N9        13.5910   24.6740  -11.9160 N.ar   92  DA92       -0.2714
   1858  C8        14.1330   23.6480  -11.1870 C.ar   92  DA92        0.1815
   1859  N7        13.4260   22.5430  -11.2230 N.ar   92  DA92       -0.2193
   1860  C5        12.3470   22.8660  -12.0290 C.ar   92  DA92        0.1518
   1861  C6        11.2330   22.1250  -12.4600 C.ar   92  DA92        0.1919
   1862  N6        11.0170   20.8510  -12.1230 N.pl3  92  DA92       -0.1054
   1863  N1        10.3380   22.7450  -13.2590 N.ar   92  DA92       -0.2040
   1864  C2        10.5550   24.0210  -13.5970 C.ar   92  DA92        0.2016
   1865  N3        11.5630   24.8210  -13.2570 N.ar   92  DA92       -0.2048
   1866  C4        12.4340   24.1760  -12.4620 C.ar   92  DA92        0.1691
   1867  P         13.2270   28.6480   -7.6010 P.3    93  DA93        0.2141
   1868  OP1       13.2240   30.0410   -7.1010 O.2    93  DA93       -0.5172
   1869  OP2       13.6900   27.5390   -6.7350 O.3    93  DA93       -0.4373
   1870  O5'       11.7340   28.2150   -8.0080 O.3    93  DA93       -0.3114
   1871  C5'       10.8280   29.1430   -8.5910 C.3    93  DA93        0.1811
   1872  C4'        9.8090   28.4820   -9.4950 C.3    93  DA93        0.1746
   1873  O4'       10.4270   27.4060  -10.2540 O.3    93  DA93       -0.3327
   1874  C3'        8.6270   27.7890   -8.8300 C.3    93  DA93        0.1558
   1875  O3'        7.6260   28.6620   -8.3310 O.3    93  DA93       -0.3138
   1876  C2'        8.1440   26.8920   -9.9620 C.3    93  DA93        0.0865
   1877  C1'        9.4840   26.3790  -10.4820 C.3    93  DA93        0.2094
   1878  N9         9.9890   25.1790   -9.7360 N.ar   93  DA93       -0.2714
   1879  C8        10.9530   25.1610   -8.7620 C.ar   93  DA93        0.1815
   1880  N7        11.2480   23.9570   -8.3310 N.ar   93  DA93       -0.2193
   1881  C5        10.4200   23.1280   -9.0720 C.ar   93  DA93        0.1518
   1882  C6        10.2490   21.7330   -9.0890 C.ar   93  DA93        0.1919
   1883  N6        10.9340   20.8950   -8.3080 N.pl3  93  DA93       -0.1054
   1884  N1         9.3390   21.2240   -9.9470 N.ar   93  DA93       -0.2040
   1885  C2         8.6540   22.0650  -10.7300 C.ar   93  DA93        0.2016
   1886  N3         8.7270   23.3920  -10.8050 N.ar   93  DA93       -0.2048
   1887  C4         9.6380   23.8670   -9.9400 C.ar   93  DA93        0.1691
   1888  P          6.8870   28.2640   -7.0000 P.3    94  DT94        0.2141
   1889  OP1        6.0420   29.4880   -6.9580 O.2    94  DT94       -0.5172
   1890  OP2        7.6530   27.8430   -5.7980 O.3    94  DT94       -0.4373
   1891  O5'        5.9870   27.0220   -7.4270 O.3    94  DT94       -0.3114
   1892  C5'        4.8310   27.2470   -8.2250 C.3    94  DT94        0.1811
   1893  C4'        4.4850   26.0230   -9.0390 C.3    94  DT94        0.1746
   1894  O4'        5.7090   25.4430   -9.5650 O.3    94  DT94       -0.3327
   1895  C3'        3.8160   24.8690   -8.3130 C.3    94  DT94        0.1558
   1896  O3'        2.4100   25.0370   -8.1900 O.3    94  DT94       -0.3138
   1897  C2'        4.1440   23.7100   -9.2360 C.3    94  DT94        0.0866
   1898  C1'        5.5750   24.0360   -9.6440 C.3    94  DT94        0.2106
   1899  N1         6.5980   23.3890   -8.7110 N.ar   94  DT94       -0.2559
   1900  C2         6.8770   22.0410   -8.8320 C.ar   94  DT94        0.3545
   1901  O2         6.2130   21.2850   -9.5190 O.2    94  DT94       -0.2443
   1902  N3         7.9650   21.6060   -8.1140 N.ar   94  DT94       -0.1533
   1903  C4         8.7840   22.3670   -7.3060 C.ar   94  DT94        0.2804
   1904  O4         9.7260   21.8320   -6.7260 O.2    94  DT94       -0.2654
   1905  C5         8.4290   23.7560   -7.2320 C.ar   94  DT94        0.0534
   1906  C6         7.3760   24.2060   -7.9190 C.ar   94  DT94        0.0824
   1907  C7         9.2600   24.6670   -6.3770 C.3    94  DT94        0.0377
   1908  P          1.7530   24.7160   -6.8500 P.3    95  DC95        0.2141
   1909  OP1        0.8270   25.7510   -6.3240 O.2    95  DC95       -0.5172
   1910  OP2        2.8190   24.1580   -5.9670 O.3    95  DC95       -0.4373
   1911  O5'        0.9070   23.5030   -7.4380 O.3    95  DC95       -0.3114
   1912  C5'        0.6320   22.3780   -6.6390 C.3    95  DC95        0.1812
   1913  C4'        1.0050   21.1220   -7.3690 C.3    95  DC95        0.1775
   1914  O4'        2.3840   21.1960   -7.8110 O.3    95  DC95       -0.3326
   1915  C3'        0.9800   19.9030   -6.4790 C.3    95  DC95        0.1859
   1916  O3'       -0.3310   19.4370   -6.2890 O.3    95  DC95       -0.2203
   1917  C2'        1.9080   18.9510   -7.1990 C.3    95  DC95        0.0895
   1918  C1'        2.9890   19.9190   -7.6760 C.3    95  DC95        0.2107
   1919  N1         4.1550   19.9420   -6.4700 N.ar   95  DC95       -0.2556
   1920  C2         4.8840   18.8370   -6.0180 C.ar   95  DC95        0.3531
   1921  O2         4.4420   17.6970   -6.2430 O.2    95  DC95       -0.2443
   1922  N3         6.0440   19.0400   -5.3500 N.ar   95  DC95       -0.1739
   1923  C4         6.4790   20.2820   -5.1310 C.ar   95  DC95        0.1759
   1924  N4         7.6280   20.4330   -4.4680 N.pl3  95  DC95       -0.1070
   1925  C5         5.7550   21.4150   -5.5810 C.ar   95  DC95        0.0566
   1926  C6         4.6100   21.2100   -6.2400 C.ar   95  DC95        0.0849
   1927  P         -0.9330   19.3530   -4.1380 P.3    96  DT96        0.5411
   1928  OP1       -2.1860   18.8630   -3.5030 O.2    96  DT96       -0.2272
   1929  OP2       -0.0060   20.2230   -3.3630 O.2    96  DT96       -0.2272
   1930  O5'       -0.0910   18.1120   -4.6800 O.3    96  DT96       -0.2722
   1931  C5'        0.2670   17.0570   -3.8010 C.3    96  DT96        0.1849
   1932  C4'        0.6620   15.8220   -4.5750 C.3    96  DT96        0.1725
   1933  O4'        2.0310   15.9600   -5.0520 O.3    96  DT96       -0.3466
   1934  C3'        0.6930   14.5850   -3.6940 C.3    96  DT96        0.1491
   1935  O3'       -0.5970   14.0020   -3.5830 O.3    96  DT96       -0.3367
   1936  C2'        1.7310   13.7030   -4.3740 C.3    96  DT96        0.0572
   1937  C1'        2.7450   14.7490   -4.8400 C.3    96  DT96        0.1914
   1938  N1         3.5090   16.9530   -3.2680 N.2    96  DT96       -0.1608
   1939  C2         4.6930   16.7310   -2.5890 C.1    96  DT96        0.2395
   1940  O2         5.2180   15.6340   -2.5120 O.2    96  DT96       -0.2041
   1941  N3         5.2420   17.8430   -1.9990 N.am   96  DT96       -0.0881
   1942  C4         4.7390   19.1270   -2.0190 C.2    96  DT96        0.2768
   1943  O4         5.3480   20.0250   -1.4430 O.2    96  DT96       -0.2676
   1944  C5         3.5070   19.2770   -2.7430 C.2    96  DT96        0.0541
   1945  C6         2.9510   18.2110   -3.3260 C.2    96  DT96        0.1126
   1946  C7         2.8790   20.6370   -2.8220 C.3    96  DT96        0.0376
@<TRIPOS>BOND
     1  1722  1721    2
     2  1171  1170    2
     3  1709  1721    1
     4  1709  1708    1
     5  1705  1706    1
     6  1705  1704    1
     7  1706  1708    1
     8  1706  1707    1
     9  1721  1724    1
    10  1721  1723    1
    11  1702  1701    2
    12  1708  1710    1
    13  1724  1725    1
    14  1725  1726    1
    15  1707  1711    1
    16  1733  1734   ar
    17  1733  1732   ar
    18  1170  1159    1
    19  1170  1172    1
    20  1170  1173    1
    21  1704  1701    1
    22  1734  1735   ar
    23  1687  1701    1
    24  1687  1686    1
    25  1701  1703    1
    26  1710  1711    1
    27  1727  1726    1
    28  1727  1731    1
    29  1159  1158    1
    30  1152  1151    2
    31  1711  1712    1
    32  1173  1174    1
    33  1174  1175    1
    34  1732  1731    1
    35  1732  1741   ar
    36  1726  1728    1
    37  1735  1741   ar
    38  1735  1736   ar
    39  1193  1191    2
    40  1192  1191    1
    41  1688  1686    1
    42  1688  1689    1
    43  1686  1684    1
    44  1737  1736    1
    45  1731  1730    1
    46  1684  1683    1
    47  1684  1685    1
    48  1741  1740   ar
    49  1177  1175    1
    50  1177  1178    1
    51  1177  1179    1
    52  1191  1178    1
    53  1191  1194    1
    54  1155  1156    1
    55  1155  1154    1
    56  1736  1738   ar
    57  1175  1176    1
    58  1158  1156    1
    59  1158  1160    1
    60  1728  1730    1
    61  1728  1729    1
    62  1712  1719   ar
    63  1712  1713   ar
    64  1151  1154    1
    65  1151  1153    1
    66  1151  1137    1
    67  1683  1682    1
    68  1156  1157    1
    69  1719  1718   ar
    70  1212  1210    2
    71  1689  1685    1
    72  1689  1690    1
    73  1247  1246    2
    74  1179  1180    1
    75  1740  1739   ar
    76  1738  1739   ar
    77  1250  1248    1
    78  1160  1161    1
    79  1729  1742    1
    80  1137  1136    1
    81  1744  1742    2
    82  1176  1180    1
    83  1233  1231    2
    84  1714  1713    2
    85  1680  1679    2
    86  1713  1715   ar
    87  1194  1195    1
    88  1246  1248   ar
    89  1246  1245   ar
    90  1682  1679    1
    91  1718  1720    1
    92  1718  1716   ar
    93  1210  1211    1
    94  1210  1213    1
    95  1210  1199    1
    96  1226  1758   ar
    97  1226  1225   ar
    98  1690  1700   ar
    99  1690  1691   ar
   100  1699  1700   ar
   101  1699  1697   ar
   102  1157  1161    1
   103  1248  1249   ar
   104  1742  1743    1
   105  1742  1745    1
   106  1180  1181    1
   107  1252  1251    2
   108  1253  1251    2
   109  1223  1222    2
   110  1223  1224    1
   111  1182  1181   ar
   112  1182  1183   ar
   113  1758  1757   ar
   114  1195  1196    1
   115  1698  1697    1
   116  1245  1243   ar
   117  1208  1209   ar
   118  1208  1206   ar
   119  1161  1162    1
   120  1207  1206    1
   121  1700  1693   ar
   122  1676  1677   ar
   123  1676  1675   ar
   124  1679  1666    1
   125  1679  1681    1
   126  1232  1231    1
   127  1213  1214    1
   128  1231  1234    1
   129  1231  1218    1
   130  1715  1716   ar
   131  1697  1696   ar
   132  1251  1239    1
   133  1181  1190   ar
   134  1183  1184   ar
   135  1691  1692   ar
   136  1225  1224    2
   137  1225  1227   ar
   138  1222  1221    1
   139  1136  1134    1
   140  1136  1138    1
   141  1755  1756   ar
   142  1755  1754   ar
   143  1716  1717    2
   144  1677  1678   ar
   145  1249  1242   ar
   146  1224  1230    1
   147  1209  1202   ar
   148  1675  1673   ar
   149  1666  1665    1
   150  1206  1205   ar
   151  1757  1756   ar
   152  1757  1759   ar
   153  1199  1198    1
   154  1234  1235    1
   155  1169  1162   ar
   156  1169  1168   ar
   157  1667  1665    1
   158  1667  1668    1
   159  1756  1762   ar
   160  1198  1196    1
   161  1198  1200    1
   162  1243  1242   ar
   163  1243  1244    2
   164  1162  1163   ar
   165  1745  1746    1
   166  1754  1753   ar
   167  1130  1129    2
   168  1133  1134    1
   169  1133  1132    1
   170  1134  1135    1
   171  1138  1139    1
   172  1196  1197    1
   173  1242  1241    1
   174  1759  1227   ar
   175  1759  1760   ar
   176  1693  1692   ar
   177  1693  1694   ar
   178  1218  1217    1
   179  1227  1228    1
   180  1184  1190   ar
   181  1184  1185   ar
   182  1190  1189   ar
   183  1214  1215    1
   184  1217  1215    1
   185  1217  1219    1
   186  1665  1663    1
   187  1239  1254    1
   188  1238  1240    1
   189  1238  1236    1
   190  1221  1230    1
   191  1221  1220    1
   192  1678  1672   ar
   193  1678  1669   ar
   194  1168  1166   ar
   195  1235  1236    1
   196  1696  1694   ar
   197  1132  1129    1
   198  1230  1229    1
   199  1255  1254    1
   200  1255  1256    1
   201  1762  1753   ar
   202  1762  1761   ar
   203  1673  1674    1
   204  1673  1672   ar
   205  1205  1203   ar
   206  1202  1203   ar
   207  1202  1201    1
   208  1753  1752    1
   209  1746  1747    1
   210  1197  1201    1
   211  1748  1752    1
   212  1748  1747    1
   213  1163  1164    2
   214  1163  1165   ar
   215  1779  1778    2
   216  1760  1761   ar
   217  1668  1669    1
   218  1668  1664    1
   219  1215  1216    1
   220  1200  1201    1
   221  1129  1117    1
   222  1129  1131    1
   223  1189  1188   ar
   224  1240  1241    1
   225  1694  1695    2
   226  1672  1671   ar
   227  1219  1220    1
   228  1669  1670   ar
   229  1236  1237    1
   230  1185  1186    1
   231  1185  1187   ar
   232  1203  1204    2
   233  1228  1229    2
   234  1241  1237    1
   235  1216  1220    1
   236  1135  1139    1
   237  1139  1140    1
   238  1117  1116    1
   239  1752  1751    1
   240  1166  1165   ar
   241  1166  1167    1
   242  1663  1664    1
   243  1663  1662    1
   244  1747  1749    1
   245  1778  1780   ar
   246  1778  1777   ar
   247  1780  1781   ar
   248  1188  1187   ar
   249  1256  1257    1
   250  1256  1258    1
   251  1670  1671   ar
   252  1140  1141   ar
   253  1140  1150   ar
   254  1141  1142   ar
   255  1071  1070    2
   256  1777  1776   ar
   257  1777  1784   ar
   258  1776  1775   ar
   259  1257  1261    1
   260  1273  1272    2
   261  1662  1661    1
   262  1749  1751    1
   263  1749  1750    1
   264  1781  1782    1
   265  1781  1783   ar
   266  1259  1258    1
   267  1259  1272    1
   268  1049  1048    1
   269  1116  1118    1
   270  1116  1114    1
   271  1150  1149   ar
   272  1150  1143   ar
   273  1258  1260    1
   274  1824  1823    1
   275  1149  1147   ar
   276  1661  1658    1
   277  1142  1143   ar
   278  1263  1264   ar
   279  1263  1262   ar
   280  1118  1119    1
   281  1110  1109    2
   282  1272  1274    1
   283  1272  1275    1
   284  1784  1783   ar
   285  1784  1774   ar
   286  1143  1144   ar
   287  1775  1774   ar
   288  1801  1800    2
   289  1264  1265   ar
   290  1091  1090    2
   291  1114  1113    1
   292  1114  1115    1
   293  1147  1148    1
   294  1147  1146   ar
   295  1070  1072    1
   296  1070  1056    1
   297  1070  1073    1
   298  1823  1822   ar
   299  1823  1825   ar
   300  1799  1800   ar
   301  1799  1797   ar
   302  1659  1658    2
   303  1822  1820   ar
   304  1750  1763    1
   305  1261  1262    1
   306  1261  1260    1
   307  1774  1773    1
   308  1113  1112    1
   309  1798  1797    2
   310  1144  1146   ar
   311  1144  1145    2
   312  1262  1271   ar
   313  1800  1802   ar
   314  1048  1050    2
   315  1658  1660    1
   316  1658  1646    1
   317  1092  1090    1
   318  1765  1763    2
   319  1056  1055    1
   320  1052  1051    1
   321  1052  1053    1
   322  1797  1796   ar
   323  1825  1826   ar
   324  1275  1276    1
   325  1821  1820    2
   326  1820  1819   ar
   327  1090  1078    1
   328  1090  1093    1
   329  1119  1115    1
   330  1119  1120    1
   331  1073  1074    1
   332  1112  1109    1
   333  1109  1111    1
   334  1109  1098    1
   335  1037  1051    1
   336  1037  1036    1
   337  1773  1769    1
   338  1773  1772    1
   339  1265  1271   ar
   340  1265  1266   ar
   341  1074  1075    1
   342  1769  1768    1
   343  1763  1766    1
   344  1763  1764    1
   345  1840  1839    2
   346  1053  1055    1
   347  1053  1054    1
   348  1802  1804    1
   349  1802  1803   ar
   350  1826  1819   ar
   351  1826  1816   ar
   352  1271  1270   ar
   353  1819  1818   ar
   354  1055  1057    1
   355  1766  1767    1
   356  1120  1127   ar
   357  1120  1121   ar
   358  1796  1803   ar
   359  1796  1795    1
   360  1122  1121    2
   361  1078  1077    1
   362  1127  1126   ar
   363  1121  1123   ar
   364  1276  1277    1
   365  1093  1094    1
   366  1267  1266    1
   367  1646  1645    1
   368  1841  1839   ar
   369  1841  1842   ar
   370  1030  1029    2
   371  1839  1838   ar
   372  1033  1034    1
   373  1033  1032    1
   374  1034  1036    1
   375  1034  1035    1
   376  1036  1038    1
   377  1266  1268   ar
   378  1816  1815    1
   379  1816  1817   ar
   380  1795  1791    1
   381  1795  1794    1
   382  1772  1770    1
   383  1864  1863   ar
   384  1864  1865   ar
   385  1818  1817   ar
   386  1075  1077    1
   387  1075  1076    1
   388  1077  1079    1
   389  1815  1811    1
   390  1815  1814    1
   391  1126  1128    1
   392  1126  1124   ar
   393  1123  1124   ar
   394  1768  1767    1
   395  1768  1770    1
   396  1647  1645    1
   397  1647  1648    1
   398  1094  1095    1
   399  1098  1097    1
   400  1863  1861   ar
   401  1865  1866   ar
   402  1278  1277    1
   403  1278  1282    1
   404  1089  1087    1
   405  1289  1290   ar
   406  1289  1287   ar
   407  1054  1058    1
   408  1270  1269   ar
   409  1645  1643    1
   410  1290  1283   ar
   411  1843  1842    1
   412  1057  1058    1
   413  1038  1039    1
   414  1124  1125    2
   415  1842  1844   ar
   416  1791  1790    1
   417  1277  1279    1
   418  1770  1771    1
   419  1811  1810    1
   420  1032  1029    1
   421  1838  1837    1
   422  1838  1845   ar
   423  1097  1095    1
   424  1097  1099    1
   425  1639  1638    2
   426  1837  1833    1
   427  1837  1836    1
   428  1029  1016    1
   429  1029  1031    1
   430  1794  1792    1
   431  1035  1039    1
   432  1866  1860   ar
   433  1866  1857   ar
   434  1861  1862    1
   435  1861  1860   ar
   436  1268  1269   ar
   437  1814  1812    1
   438  1107  1108   ar
   439  1107  1105   ar
   440  1076  1080    1
   441  1088  1087   ar
   442  1088  1081   ar
   443  1058  1059    1
   444  1095  1096    1
   445  1288  1287    1
   446  1087  1085   ar
   447  1016  1015    1
   448  1287  1286   ar
   449  1833  1832    1
   450  1108  1101   ar
   451  1283  1282    1
   452  1283  1284   ar
   453  1282  1281    1
   454  1039  1040    1
   455  1856  1857    1
   456  1856  1852    1
   457  1856  1855    1
   458  1860  1859   ar
   459  1079  1080    1
   460  1844  1845   ar
   461  1857  1858   ar
   462  1648  1649    1
   463  1648  1644    1
   464  1651  1650    2
   465  1852  1851    1
   466  1640  1638    1
   467  1106  1105    1
   468  1060  1059   ar
   469  1060  1061   ar
   470  1643  1642    1
   471  1643  1644    1
   472  1836  1834    1
   473  1638  1641    1
   474  1638  1625    1
   475  1790  1792    1
   476  1790  1789    1
   477  1279  1281    1
   478  1279  1280    1
   479  1105  1104   ar
   480  1099  1100    1
   481  1649  1650   ar
   482  1649  1656   ar
   483  1771  1785    1
   484  1810  1812    1
   485  1810  1809    1
   486  1059  1069   ar
   487  1080  1081    1
   488  1650  1652   ar
   489  1081  1082   ar
   490  1792  1793    1
   491  1787  1785    2
   492  1096  1100    1
   493  1859  1858   ar
   494  1286  1284   ar
   495  1812  1813    1
   496  1085  1086    2
   497  1085  1084   ar
   498  1101  1100    1
   499  1101  1102   ar
   500  1641  1642    1
   501  1284  1285    2
   502  1017  1015    1
   503  1017  1018    1
   504  1855  1853    1
   505  1656  1655   ar
   506  1015  1013    1
   507  1832  1834    1
   508  1832  1831    1
   509  1785  1788    1
   510  1785  1786    1
   511  1061  1062   ar
   512  1280  1291    1
   513  1886  1885   ar
   514  1886  1887   ar
   515  1652  1653   ar
   516  1851  1850    1
   517  1851  1853    1
   518  1789  1788    1
   519  1885  1884   ar
   520  1040  1047   ar
   521  1040  1041   ar
   522  1809  1808    1
   523  1104  1102   ar
   524  1293  1291    2
   525  1877  1873    1
   526  1877  1876    1
   527  1877  1878    1
   528  1013  1012    1
   529  1013  1014    1
   530  1042  1041    2
   531  1834  1835    1
   532  1655  1653   ar
   533  1655  1657    1
   534  1102  1103    2
   535  1808  1805    1
   536  1069  1062   ar
   537  1069  1068    1
   538  1082  1084   ar
   539  1082  1083    2
   540  1873  1872    1
   541  1625  1624    1
   542  1653  1654    2
   543  1047  1046   ar
   544   115   116   ar
   545   115   113   ar
   546  1793  1805    1
   547  1831  1830    1
   548  1850  1849    1
   549   138   137    1
   550  1813  1827    1
   551  1876  1874    1
   552  1853  1854    1
   553  1041  1043   ar
   554  1884  1882   ar
   555  1887  1878   ar
   556  1887  1881   ar
   557  1062  1063    1
   558  1012  1011    1
   559  1307  1306    1
   560   116   117   ar
   561  1878  1879   ar
   562  1018  1014    1
   563  1018  1019    1
   564   114   113    1
   565  1898  1894    1
   566  1898  1897    1
   567  1898  1899    1
   568  1291  1292    1
   569  1291  1294    1
   570  1068  1066    1
   571  1835  1846    1
   572  1894  1893    1
   573  1830  1827    1
   574  1901  1900    2
   575  1872  1874    1
   576  1872  1871    1
   577  1308  1306   ar
   578  1308  1309   ar
   579  1849  1846    1
   580   113   112   ar
   581  1805  1807    2
   582  1805  1806    1
   583  1854  1867    1
   584  1624  1626    1
   585  1624  1622    1
   586  1897  1895    1
   587  1829  1827    2
   588  1626  1627    1
   589  1882  1881   ar
   590  1882  1883    1
   591  1881  1880   ar
   592  1306  1305   ar
   593  1827  1828    1
   594  1893  1895    1
   595  1893  1892    1
   596   173   172    2
   597  1046  1044   ar
   598   137   139   ar
   599   137   136   ar
   600   185   186    1
   601   185   184    1
   602   185   187    1
   603  1900  1899   ar
   604  1900  1902   ar
   605  1874  1875    1
   606   186   190    1
   607  1011  1008    1
   608   117   118   ar
   609  1879  1880   ar
   610  1043  1044   ar
   611  1027  1028   ar
   612  1027  1026   ar
   613   170   169    1
   614   170   166    1
   615   170   171    1
   616  1063  1064    2
   617  1063  1065    1
   618  1899  1906   ar
   619   169   167    1
   620   190   189    1
   621   190   191    1
   622  1019  1028   ar
   623  1019  1020   ar
   624  1309  1302   ar
   625  1009  1008    2
   626  1871  1870    1
   627   139   140   ar
   628  1846  1848    2
   629  1846  1847    1
   630  1066  1065    2
   631  1066  1067    2
   632   189   187    1
   633  1294  1295    1
   634   184   183    1
   635   166   165    1
   636   205   204    1
   637   205   206    1
   638   205   207    1
   639   204   203    1
   640  1875  1888    1
   641  1895  1896    1
   642   136   134   ar
   643  1044  1045    1
   644   112   118   ar
   645   112   111   ar
   646  1028  1022   ar
   647  1892  1891    1
   648  1896  1908    1
   649  1619  1617    1
   650  1902  1903   ar
   651   193   192    2
   652   188   187    1
   653   188   200    1
   654   172   171   ar
   655   172   174   ar
   656   118   109   ar
   657  1026  1025   ar
   658   206   210    1
   659  1870  1867    1
   660   201   200    2
   661   165   167    1
   662   165   164    1
   663  1636  1635   ar
   664  1636  1637   ar
   665  1305  1303   ar
   666  1906  1905   ar
   667    56    57   ar
   668    56    54   ar
   669  1635  1634   ar
   670  1020  1021   ar
   671  1622  1621    1
   672  1622  1623    1
   673   208   207    1
   674   208   221    1
   675  1008  1010    1
   676  1008   996    1
   677   154   153    2
   678  1914  1918    1
   679  1914  1913    1
   680  1326  1325    1
   681   171   178   ar
   682  1067    92    1
   683  1637  1628   ar
   684  1637  1631   ar
   685  1628  1627    1
   686  1628  1629   ar
   687  1918  1917    1
   688  1918  1919    1
   689  1627  1623    1
   690    55    54    1
   691  1634  1632   ar
   692   168   167    1
   693   168   180    1
   694  1867  1868    2
   695  1867  1869    1
   696  1620  1621    1
   697  1620  1617    1
   698    57    58   ar
   699   191   192   ar
   700   191   198   ar
   701   140   130   ar
   702   140   133   ar
   703  1302  1303   ar
   704  1302  1301    1
   705  1631  1632   ar
   706  1631  1630   ar
   707  1629  1630   ar
   708  1632  1633    1
   709  1911  1908    1
   710  1911  1912    1
   711  1891  1888    1
   712   210   209    1
   713   210   211    1
   714   207   209    1
   715   222   221    2
   716  1913  1912    1
   717  1913  1915    1
   718   192   194   ar
   719    54    53   ar
   720  1297  1301    1
   721  1297  1296    1
   722  1903  1905   ar
   723  1903  1904    2
   724  1295  1296    1
   725   111   110   ar
   726   151   147    1
   727   151   150    1
   728   151   152    1
   729  1905  1907    1
   730  1917  1915    1
   731   134   133   ar
   732   134   135    2
   733  1022  1021   ar
   734  1022  1023   ar
   735   174   175   ar
   736  1303  1304    2
   737   129   130    1
   738   129   128    1
   739   129   125    1
   740   183   180    1
   741   203   200    1
   742  1025  1023   ar
   743  1888  1889    2
   744  1888  1890    1
   745  1617  1618    1
   746   153   152   ar
   747   153   155   ar
   748   147   146    1
   749   109   110   ar
   750   109   108    1
   751  1325  1327   ar
   752  1325  1324   ar
   753   130   131   ar
   754   200   202    1
   755   221   223    1
   756   221   224    1
   757  1908  1909    2
   758  1908  1910    1
   759   164   163    1
   760   133   132   ar
   761   150   148    1
   762  1327  1328   ar
   763    58    59   ar
   764   181   180    2
   765   128   126    1
   766  1301  1300    1
   767   198   197   ar
   768   178   177   ar
   769   996   995    1
   770   152   159   ar
   771    92    91    1
   772  1023  1024    1
   773  1915  1916    1
   774  1919  1926   ar
   775  1919  1920   ar
   776    53    59   ar
   777    53    52   ar
   778  1296  1298    1
   779   180   182    1
   780  1350  1349    1
   781   125   124    1
   782   155   156   ar
   783   108   107    1
   784   108   104    1
   785   997   995    1
   786   997   998    1
   787   146   148    1
   788   146   145    1
   789  1921  1920    2
   790  1926  1925   ar
   791   194   195   ar
   792    59    50   ar
   793  1618  1603    1
   794   225   224    1
   795   225   226    1
   796   211   212   ar
   797   211   220   ar
   798    93    91    2
   799    93    94    1
   800   175   177   ar
   801   175   176    2
   802  1324  1323   ar
   803  1324  1330   ar
   804  1920  1922   ar
   805  1323  1322   ar
   806   107   105    1
   807  1328  1329   ar
   808   131   132   ar
   809   177   179    1
   810    73    72    2
   811    91    90    1
   812  1348  1349   ar
   813  1348  1346   ar
   814    52    51   ar
   815  1001  1000    2
   816   163   160    1
   817  1603  1602    1
   818   995   993    1
   819    95    94    1
   820   148   149    1
   821   159   158   ar
   822    74    72    1
   823    74    75    2
   824   197   195   ar
   825   197   199    1
   826  1349  1351   ar
   827  1925  1923   ar
   828   124   126    1
   829   124   123    1
   830   827   826    2
   831  1298  1300    1
   832  1298  1299    1
   833   212   213   ar
   834   219   220   ar
   835   219   218   ar
   836   149   160    1
   837    76    75    1
   838   156   158   ar
   839   156   157    1
   840   226   227    1
   841   226   228    1
   842   126   127    1
   843  1922  1923   ar
   844    50    51   ar
   845    50    49    1
   846   227   231    1
   847   195   196    2
   848   220   214   ar
   849    94    96    2
   850   145   144    1
   851  1347  1346    2
   852   104   103    1
   853    72    71   am
   854  1923  1924    1
   855  1330  1329   ar
   856  1330  1321   ar
   857   998   999    1
   858   998   994    1
   859  1933  1937    1
   860  1933  1932    1
   861  1346  1345   ar
   862    75    77    1
   863  1000  1002   ar
   864  1000   999   ar
   865  1322  1321   ar
   866  1937    49    1
   867  1614  1613    1
   868   127   141    1
   869  1602  1604    1
   870  1602  1600    1
   871  1351  1352   ar
   872  1930  1927    1
   873  1930  1931    1
   874   993   994    1
   875   993   992    1
   876  1312  1310    2
   877    49  1936    1
   878    49    45    1
   879  1604  1605    1
   880  1002  1003   ar
   881  1932  1931    1
   882  1932  1934    1
   883   144   141    1
   884   999  1006   ar
   885   160   161    2
   886   160   162    1
   887    90    89    1
   888    90    97    1
   889   807   806    2
   890  1321  1320    1
   891   847   846    2
   892   218   217   ar
   893   105   103    1
   894   105   106    1
   895  1936    48    1
   896  1613  1612   ar
   897  1613  1615   ar
   898   213   214   ar
   899  1597  1595    2
   900  1299  1310    1
   901   123   122    1
   902  1612  1610   ar
   903    71    70    1
   904    71    78    1
   905   214   215   ar
   906    45    44    1
   907  1927  1928    2
   908  1927  1929    2
   909   231   230    1
   910   231   232    1
   911   826   814    1
   912   826   829    1
   913   826   828    1
   914  1345  1352   ar
   915  1345  1344   ar
   916    89    88    1
   917    89    85    1
   918  1615  1616   ar
   919   103   102    1
   920  1352  1342   ar
   921    77    78    1
   922    96    97    1
   923   830   829    1
   924   830   831    1
   925   228   229    1
   926   228   230    1
   927  1003  1004    2
   928  1003  1005   ar
   929  1610  1611    2
   930  1610  1609   ar
   931    70    66    1
   932    70    69    1
   933  1006  1005   ar
   934    88    86    1
   935  1310  1311    1
   936  1310  1313    1
   937   229   241    1
   938  1934  1935    1
   939  1934    48    1
   940   122   119    1
   941   814   813    1
   942   239   232   ar
   943   239   238   ar
   944   141   142    2
   945   141   143    1
   946  1616  1609   ar
   947  1616  1606   ar
   948   992   991    1
   949    78  1935    1
   950   106   119    1
   951   991   988    1
   952   240   238    1
   953  1320  1316    1
   954  1320  1319    1
   955  1609  1608   ar
   956  1598  1595    1
   957  1598  1599    1
   958    48    46    1
   959  1316  1315    1
   960  1005  1007    1
   961  1600  1599    1
   962  1600  1601    1
   963  1945  1938    1
   964  1945  1944    2
   965   217   215   ar
   966  1938  1939    2
   967  1606  1605    1
   968  1606  1607   ar
   969   232   233   ar
   970   846   834    1
   971   846   848    1
   972   846   849    1
   973  1605  1601    1
   974    66    65    1
   975  1595  1596    1
   976  1595  1582    1
   977   834   833    1
   978  1344  1343   ar
   979   215   216    1
   980  1366  1365    2
   981   810   809    1
   982   810   811    1
   983   242   241    2
   984   238   236   ar
   985   806   795    1
   986   806   809    1
   987   806   808    1
   988  1608  1607   ar
   989    85    84    1
   990  1342  1341    1
   991  1342  1343   ar
   992   101   102    1
   993   101    98    1
   994  1946  1944    1
   995   795   794    1
   996   990   988    2
   997   831   833    1
   998   831   832    1
   999   241   243    1
  1000   241   244    1
  1001  1944  1942    1
  1002    44    46    1
  1003    44    43    1
  1004    69    67    1
  1005  1596  1582    1
  1006  1367  1365   ar
  1007  1367  1368   ar
  1008   850   849    1
  1009   850   851    1
  1010  1939  1940    2
  1011  1939  1941   am
  1012  1365  1364   ar
  1013   868   867    2
  1014  1341  1337    1
  1015  1341  1340    1
  1016  1313  1314    1
  1017   119   120    2
  1018   119   121    1
  1019   811   813    1
  1020   811   812    1
  1021   813   815    1
  1022   988   989    1
  1023   988   976    1
  1024    46    47    1
  1025   833   835    1
  1026    42    43    1
  1027    42    39    1
  1028   233   234    2
  1029   233   235   ar
  1030    86    84    1
  1031    86    87    1
  1032  1369  1368    1
  1033  1319  1317    1
  1034   100    98    2
  1035  1368  1370   ar
  1036  1942  1941   am
  1037  1942  1943    2
  1038   236   235   ar
  1039   236   237    2
  1040  1315  1314    1
  1041  1315  1317    1
  1042   869   867    1
  1043    84    83    1
  1044  1364  1363    1
  1045  1364  1371   ar
  1046  1363  1359    1
  1047  1363  1362    1
  1048  1337  1336    1
  1049    65    67    1
  1050    65    64    1
  1051    98    87    1
  1052    98    99    1
  1053   867   854    1
  1054   867   870    1
  1055    41    39    2
  1056   832   836    1
  1057    40    39    1
  1058  1340  1338    1
  1059   981   980    2
  1060   851   853    1
  1061   851   852    1
  1062    67    68    1
  1063  1317  1318    1
  1064   791   792    1
  1065   791   790    1
  1066   244   245    1
  1067   794   792    1
  1068   794   796    1
  1069   976   975    1
  1070    39    27    1
  1071   245   246    1
  1072   815   816    1
  1073  1359  1358    1
  1074  1385  1384    2
  1075  1370  1371   ar
  1076   854   853    1
  1077   792   793    1
  1078   982   980   ar
  1079   982   983   ar
  1080  1583  1581    1
  1081  1583  1584    1
  1082  1581  1579    1
  1083   812   816    1
  1084   984   983    2
  1085    47    60    1
  1086   977   975    1
  1087   977   978    1
  1088    63    64    1
  1089    63    60    1
  1090   788   787    2
  1091   980   979   ar
  1092   835   836    1
  1093   790   787    1
  1094  1362  1360    1
  1095  1405  1404    2
  1096  1591  1592   ar
  1097  1591  1589   ar
  1098   796   797    1
  1099   975   973    1
  1100   983   985   ar
  1101   853   855    1
  1102  1384  1386   ar
  1103  1384  1383   ar
  1104  1592  1593   ar
  1105  1378  1382    1
  1106  1378  1377    1
  1107    82    83    1
  1108    82    79    1
  1109    81    79    2
  1110  1590  1589    1
  1111  1589  1588   ar
  1112   852   856    1
  1113   260   258    1
  1114    62    60    2
  1115  1382  1383    1
  1116  1382  1381    1
  1117   836   837    1
  1118  1336  1338    1
  1119  1336  1335    1
  1120   816   817    1
  1121  1593  1594   ar
  1122  1386  1387   ar
  1123   247   246    1
  1124   247   251    1
  1125    68    79    1
  1126  1338  1339    1
  1127  1402  1398    1
  1128  1402  1401    1
  1129  1402  1403    1
  1130  1383  1390   ar
  1131    60    61    1
  1132   870   871    1
  1133  1588  1594   ar
  1134  1588  1587   ar
  1135   246   248    1
  1136   844   837   ar
  1137   844   843   ar
  1138    27    26    1
  1139  1594  1585   ar
  1140  1398  1397    1
  1141  1358  1360    1
  1142  1358  1357    1
  1143  1318  1331    1
  1144   787   773    1
  1145   787   789    1
  1146  1404  1403   ar
  1147  1404  1406   ar
  1148   979   978    1
  1149   979   986   ar
  1150   845   843    1
  1151   793   797    1
  1152    79    80    1
  1153  1587  1586   ar
  1154  1584  1585    1
  1155  1584  1580    1
  1156  1585  1586   ar
  1157   978   974    1
  1158  1401  1399    1
  1159   259   258   ar
  1160   259   252   ar
  1161  1334  1335    1
  1162  1334  1331    1
  1163  1579  1578    1
  1164  1579  1580    1
  1165   985   986   ar
  1166   985   987    1
  1167   837   838   ar
  1168  1403  1410   ar
  1169   258   256   ar
  1170   871   872    1
  1171  1387  1388    1
  1172  1387  1389   ar
  1173  1360  1361    1
  1174   797   798    1
  1175  1377  1376    1
  1176  1377  1379    1
  1177  1390  1389   ar
  1178   824   817   ar
  1179   824   823   ar
  1180   843   841   ar
  1181  1418  1422    1
  1182  1418  1417    1
  1183  1388  1576    1
  1184  1397  1399    1
  1185  1397  1396    1
  1186   964   965   ar
  1187   964   962   ar
  1188   855   856    1
  1189  1578  1577    1
  1190   817   818   ar
  1191  1406  1407   ar
  1192  1381  1379    1
  1193   856   857    1
  1194   973   974    1
  1195   973   972    1
  1196    28    26    1
  1197    28    29    1
  1198  1356  1357    1
  1199  1356  1353    1
  1200   773   772    1
  1201  1389  1391    1
  1202  1422  1421    1
  1203  1422  1423    1
  1204  1417  1416    1
  1205  1417  1419    1
  1206   963   962    1
  1207  1339  1353    1
  1208  1333  1331    2
  1209   889   887    2
  1210   858   857   ar
  1211   858   859   ar
  1212  1331  1332    1
  1213   251   252    1
  1214   251   250    1
  1215   886   884    1
  1216  1577  1574    1
  1217   965   966   ar
  1218    26    24    1
  1219   252   253   ar
  1220   888   887    1
  1221  1376  1375    1
  1222   248   249    1
  1223   248   250    1
  1224   825   823    1
  1225   962   961   ar
  1226  1410  1409   ar
  1227  1399  1400    1
  1228  1421  1419    1
  1229  1416  1415    1
  1230   823   821   ar
  1231   256   257    2
  1232   256   255   ar
  1233  1361  1372    1
  1234   971   972    1
  1235   971   968    1
  1236  1379  1380    1
  1237   857   866   ar
  1238  1353  1355    2
  1239  1353  1354    1
  1240  1431  1430   ar
  1241  1431  1432   ar
  1242  1396  1395    1
  1243  1400  1412    1
  1244  1407  1409   ar
  1245  1407  1408    2
  1246   838   839    2
  1247   838   840   ar
  1248  1375  1372    1
  1249   887   875    1
  1250   887   890    1
  1251   798   805   ar
  1252   798   799   ar
  1253  1420  1419    1
  1254  1420  1433    1
  1255  1437  1438    1
  1256  1437  1436    1
  1257   969   968    2
  1258  1575  1574    2
  1259   818   819    2
  1260   818   820   ar
  1261   859   860   ar
  1262   249   261    1
  1263  1576  1574    1
  1264   872   874    1
  1265   872   873    1
  1266  1423  1432   ar
  1267  1423  1424   ar
  1268  1409  1411    1
  1269   966   967   ar
  1270   841   840   ar
  1271   841   842    2
  1272  1574  1562    1
  1273  1439  1438    1
  1274  1439  1443    1
  1275   875   874    1
  1276   800   799    2
  1277  1430  1429   ar
  1278  1438  1440    1
  1279   253   255   ar
  1280   253   254    2
  1281  1380  1392    1
  1282   906   904    1
  1283   772   774    1
  1284   772   770    1
  1285  1432  1426   ar
  1286    24    25    1
  1287    24    23    1
  1288   774   775    1
  1289   805   804   ar
  1290    29    30    1
  1291    29    25    1
  1292   874   876    1
  1293   961   967   ar
  1294   961   960   ar
  1295    32    31    2
  1296   884   885   ar
  1297   884   882   ar
  1298   968   970    1
  1299   968   955    1
  1300  1395  1392    1
  1301  1372  1374    2
  1302  1372  1373    1
  1303   885   878   ar
  1304   799   801   ar
  1305   967   958   ar
  1306  1436  1433    1
  1307  1415  1412    1
  1308   821   820   ar
  1309   821   822    2
  1310   873   877    1
  1311   263   261    2
  1312  1434  1433    2
  1313   770   769    1
  1314   770   771    1
  1315  1424  1425   ar
  1316  1433  1435    1
  1317    31    30   ar
  1318    31    33   ar
  1319   866   860   ar
  1320   866   865   ar
  1321  1562  1561    1
  1322    30    37   ar
  1323  1443  1442    1
  1324  1443  1444    1
  1325  1412  1413    2
  1326  1412  1414    1
  1327   860   861   ar
  1328    23    22    1
  1329  1429  1427   ar
  1330   960   959   ar
  1331   890   891    1
  1332   923   922    1
  1333   261   262    1
  1334   261   264    1
  1335  1426  1425   ar
  1336  1426  1427   ar
  1337   942   941    1
  1338    22    19    1
  1339    33    34   ar
  1340   956   954    1
  1341   956   957    1
  1342   769   768    1
  1343   804   802   ar
  1344   883   882    2
  1345   775   771    1
  1346   775   776    1
  1347   882   881   ar
  1348  1440  1441    1
  1349  1440  1442    1
  1350    37    36   ar
  1351  1392  1393    2
  1352  1392  1394    1
  1353  1441  1453    1
  1354   903   902    2
  1355   958   959   ar
  1356   958   957    1
  1357   904   902   ar
  1358   904   905   ar
  1359  1427  1428    2
  1360  1561  1563    1
  1361  1561  1559    1
  1362   801   802   ar
  1363   878   877    1
  1364   878   879   ar
  1365    20    19    2
  1366   876   877    1
  1367   865   864   ar
  1368   766   765    2
  1369   909   907    2
  1370   955   954    1
  1371   784   783    1
  1372  1444  1451   ar
  1373  1444  1445   ar
  1374    34    36   ar
  1375    34    35    2
  1376   278   279   ar
  1377   278   276   ar
  1378  1563  1564    1
  1379    36    38    1
  1380   277   276    1
  1381   954   952    1
  1382   785   783   ar
  1383   785   786   ar
  1384   768   765    1
  1385   891   892    1
  1386  1451  1450   ar
  1387   902   901   ar
  1388   802   803    1
  1389   957   953    1
  1390  1567  1566    2
  1391   941   943   ar
  1392   941   940   ar
  1393   943   944   ar
  1394    19    21    1
  1395    19     6    1
  1396   380   381   ar
  1397   380   379   ar
  1398   861   862    1
  1399   861   863   ar
  1400   922   924   ar
  1401   922   921   ar
  1402   905   898   ar
  1403  1568  1566   ar
  1404  1568  1569   ar
  1405   264   265    1
  1406   924   925   ar
  1407  1566  1565   ar
  1408   279   272   ar
  1409   276   275   ar
  1410  1446  1445    2
  1411   783   782   ar
  1412  1570  1428    1
  1413  1570  1569    1
  1414   776   786   ar
  1415   776   777   ar
  1416  1445  1447   ar
  1417  1569  1571   ar
  1418   881   879   ar
  1419   381   382   ar
  1420  1565  1572   ar
  1421  1565  1564    1
  1422   765   752    1
  1423   765   767    1
  1424   786   779   ar
  1425   879   880    2
  1426   379   377   ar
  1427  1453  1454    2
  1428  1453  1455    1
  1429  1453  1456    1
  1430   296   295    1
  1431   864   863   ar
  1432  1450  1452    1
  1433  1450  1448   ar
  1434  1571  1572   ar
  1435  1571  1573    1
  1436  1559  1558    1
  1437  1559  1560    1
  1438  1558  1557    1
  1439   392   393    1
  1440   392   390    1
  1441   265   266    1
  1442   907   908    1
  1443   907   895    1
  1444   907   910    1
  1445   944   945   ar
  1446  1564  1560    1
  1447   402   401   ar
  1448   402   403   ar
  1449   267   266    1
  1450   267   271    1
  1451   940   939   ar
  1452   940   946   ar
  1453  1556  1554    2
  1454   752   751    1
  1455   393   389    1
  1456   393   394    1
  1457   921   919   ar
  1458   409   410    1
  1459   409   408    1
  1460   409   411    1
  1461   410   414    1
  1462   953   952    1
  1463   892   894    1
  1464   892   893    1
  1465   901   899   ar
  1466   401   400   ar
  1467   275   273   ar
  1468   272   273   ar
  1469   272   271    1
  1470   952   951    1
  1471  1447  1448   ar
  1472   894   895    1
  1473   894   896    1
  1474   939   938   ar
  1475  1472  1470    1
  1476   777   778   ar
  1477   408   407    1
  1478   925   918   ar
  1479   782   780   ar
  1480   898   899   ar
  1481   898   897    1
  1482   893   897    1
  1483   414   413    1
  1484   414   415    1
  1485  1448  1449    2
  1486   355   354    2
  1487     6     5    1
  1488   389   388    1
  1489   779   780   ar
  1490   779   778   ar
  1491   356   354   ar
  1492   356   357   ar
  1493   273   274    2
  1494  1555  1554    1
  1495  1456  1457    1
  1496   266   268    1
  1497   388   390    1
  1498   388   387    1
  1499   391   390    1
  1500   391   404    1
  1501   271   270    1
  1502   950   951    1
  1503   950   947    1
  1504   382   376   ar
  1505   382   373   ar
  1506   413   411    1
  1507   317   338    1
  1508   317   316    2
  1509   358   357    2
  1510   377   378    1
  1511   377   376   ar
  1512  1457  1458    1
  1513   412   411    1
  1514   412   424    1
  1515   403   394   ar
  1516   403   397   ar
  1517   295   297   ar
  1518   295   294   ar
  1519  1554  1557    1
  1520  1554  1542    1
  1521   910   911    1
  1522   946   945   ar
  1523   946   937   ar
  1524    14    13    1
  1525   899   900    2
  1526   394   395   ar
  1527   780   781    2
  1528   897   896    1
  1529   417   416    2
  1530   400   398   ar
  1531   354   353   ar
  1532   753   751    1
  1533   753   754    1
  1534   949   947    2
  1535   751   749    1
  1536   919   918   ar
  1537   919   920    2
  1538    15    13   ar
  1539    15    16   ar
  1540   372   371    1
  1541   372   373    1
  1542   372   368    1
  1543    13    12   ar
  1544     5     7    1
  1545     5     3    1
  1546  1470  1471   ar
  1547  1470  1468   ar
  1548  1459  1458    1
  1549  1459  1463    1
  1550   938   937   ar
  1551   918   917    1
  1552   357   359   ar
  1553   293   294   ar
  1554   293   292   ar
  1555   338   337    1
  1556   928   926    2
  1557   297   298   ar
  1558   430   429    1
  1559   430   434    1
  1560     7     8    1
  1561   371   369    1
  1562  1471  1464   ar
  1563   428   429    1
  1564   428   427    1
  1565   376   375   ar
  1566   415   416   ar
  1567   415   422   ar
  1568   407   404    1
  1569    16    17   ar
  1570   373   374   ar
  1571    12    11   ar
  1572    12    18   ar
  1573   294   300   ar
  1574   416   418   ar
  1575   429   431    1
  1576    11    10   ar
  1577   404   405    2
  1578   404   406    1
  1579   268   270    1
  1580   268   269    1
  1581   318   316   ar
  1582   318   319   ar
  1583   937   936    1
  1584  1458  1460    1
  1585   316   315   ar
  1586   947   948    1
  1587   947   934    1
  1588   387   386    1
  1589   397   398   ar
  1590   397   396   ar
  1591    18    17   ar
  1592    18     9   ar
  1593   282   280    2
  1594   398   399    1
  1595   425   424    2
  1596  1550  1549    2
  1597   395   396   ar
  1598   424   427    1
  1599   424   426    1
  1600   368   367    1
  1601  1469  1468    2
  1602    10     9   ar
  1603   336   337   ar
  1604   336   334   ar
  1605   911   912    1
  1606  1468  1467   ar
  1607   422   421   ar
  1608     1     2    1
  1609  1542  1541    1
  1610   386   383    1
  1611   749   748    1
  1612   749   750    1
  1613     9     8    1
  1614   434   435    1
  1615   434   433    1
  1616   763   762   ar
  1617   763   764   ar
  1618   337   339   ar
  1619   762   761   ar
  1620  1463  1464    1
  1621  1463  1462    1
  1622  1464  1465   ar
  1623   353   352    1
  1624   353   360   ar
  1625  1549  1548   ar
  1626  1549  1551   ar
  1627  1548  1546   ar
  1628   292   291   ar
  1629   914   912    1
  1630   914   916    1
  1631   914   915    1
  1632   754   755    1
  1633   754   750    1
  1634     8     4    1
  1635   917   913    1
  1636   917   916    1
  1637     3     2    1
  1638     3     4    1
  1639   418   419   ar
  1640   298   299   ar
  1641   359   360   ar
  1642   359   361    1
  1643   913   912    1
  1644   375   374   ar
  1645   933   935    1
  1646   933   934    1
  1647   933   931    1
  1648   935   936    1
  1649   926   929    1
  1650   926   915    1
  1651   926   927    1
  1652   335   334    2
  1653   269   280    1
  1654  1541  1543    1
  1655  1541  1539    1
  1656   319   320   ar
  1657   369   367    1
  1658   369   370    1
  1659   367   366    1
  1660   929   930    1
  1661  1547  1546    2
  1662   764   755   ar
  1663   764   758   ar
  1664  1546  1545   ar
  1665   748   747    1
  1666   300   291   ar
  1667   300   299   ar
  1668  1551  1553    1
  1669  1551  1552   ar
  1670   761   759   ar
  1671   936   932    1
  1672   315   314   ar
  1673   315   321   ar
  1674   352   351    1
  1675   352   348    1
  1676   755   756   ar
  1677   334   333   ar
  1678   435   442   ar
  1679   435   436   ar
  1680  1467  1465   ar
  1681  1543  1544    1
  1682   433   431    1
  1683   370   383    1
  1684   431   432    1
  1685   421   419   ar
  1686   421   423    1
  1687  1460  1462    1
  1688  1460  1461    1
  1689   442   441   ar
  1690   351   349    1
  1691  1465  1466    2
  1692   280   281    1
  1693   280   283    1
  1694  1536  1534    2
  1695   314   313   ar
  1696  1545  1552   ar
  1697  1545  1544    1
  1698  1529  1528    1
  1699   419   420    2
  1700   291   290    1
  1701   432   443    1
  1702   747   744    1
  1703  1475  1473    2
  1704   437   436    2
  1705   758   759   ar
  1706   758   757   ar
  1707   759   760    1
  1708   339   341    1
  1709   339   340   ar
  1710   436   438   ar
  1711   383   385    2
  1712   383   384    1
  1713   756   757   ar
  1714   932   931    1
  1715   745   744    2
  1716   449   448    1
  1717   449   453    1
  1718   447   448    1
  1719   447   446    1
  1720   931   930    1
  1721   441   439   ar
  1722   320   321   ar
  1723  1461  1473    1
  1724   321   312   ar
  1725   448   450    1
  1726  1515  1513    2
  1727  1544  1540    1
  1728  1539  1538    1
  1729  1539  1540    1
  1730   366   365    1
  1731  1473  1474    1
  1732  1473  1476    1
  1733  1538  1537    1
  1734   348   347    1
  1735   283   284    1
  1736  1528  1530   ar
  1737  1528  1527   ar
  1738   333   340   ar
  1739   333   332    1
  1740  1493  1492    2
  1741  1537  1534    1
  1742  1534  1535    1
  1743  1534  1521    1
  1744   438   439   ar
  1745   744   733    1
  1746   744   746    1
  1747  1494  1492    1
  1748   313   312   ar
  1749   439   440    1
  1750  1530  1531   ar
  1751   349   347    1
  1752   349   350    1
  1753  1526  1527   ar
  1754  1526  1525   ar
  1755   365   362    1
  1756   290   286    1
  1757   290   289    1
  1758   453   452    1
  1759   453   454    1
  1760   446   443    1
  1761  1527  1533   ar
  1762   286   285    1
  1763   312   311    1
  1764   733   732    1
  1765   443   444    2
  1766   443   445    1
  1767  1492  1495    1
  1768  1492  1481    1
  1769   347   346    1
  1770  1514  1513    1
  1771  1513  1516    1
  1772  1513  1500    1
  1773   350   362    1
  1774   734   732    1
  1775   734   735    1
  1776   332   331    1
  1777   332   328    1
  1778   738   737    2
  1779   284   285    1
  1780   450   451    1
  1781   450   452    1
  1782  1531  1532   ar
  1783  1476  1477    1
  1784   451   465    1
  1785  1525  1524   ar
  1786   331   329    1
  1787  1516  1517    1
  1788  1533  1532   ar
  1789  1533  1524   ar
  1790   303   301    2
  1791   289   287    1
  1792   732   730    1
  1793  1521  1520    1
  1794   454   455   ar
  1795   454   464   ar
  1796   285   287    1
  1797   287   288    1
  1798  1495  1496    1
  1799   455   456   ar
  1800   362   364    2
  1801   362   363    1
  1802  1481  1480    1
  1803  1520  1522    1
  1804  1520  1518    1
  1805  1524  1523    1
  1806   737   739   ar
  1807   737   736   ar
  1808  1508  1507    1
  1809   311   307    1
  1810   311   310    1
  1811  1505  1504   ar
  1812  1505  1506   ar
  1813   345   346    1
  1814   345   342    1
  1815   328   327    1
  1816   739   740   ar
  1817  1477  1478    1
  1818   735   736    1
  1819   735   731    1
  1820  1500  1499    1
  1821  1496  1497    1
  1822   468   465    1
  1823   468   469    1
  1824  1522  1523    1
  1825   466   465    2
  1826  1480  1478    1
  1827  1480  1482    1
  1828   465   467    1
  1829  1499  1497    1
  1830  1499  1501    1
  1831   464   463   ar
  1832   464   457   ar
  1833   736   743   ar
  1834  1504  1503   ar
  1835   344   342    2
  1836  1517  1518    1
  1837   307   306    1
  1838   301   304    1
  1839   301   288    1
  1840   301   302    1
  1841  1507  1506   ar
  1842  1507  1509   ar
  1843   456   457   ar
  1844   329   327    1
  1845   329   330    1
  1846   463   461   ar
  1847  1506  1512   ar
  1848   304   305    1
  1849   730   731    1
  1850   730   729    1
  1851  1490  1491    2
  1852  1490  1488    1
  1853  1523  1519    1
  1854  1518  1519    1
  1855   310   308    1
  1856  1491  1484    1
  1857   469   470    1
  1858   740   741    1
  1859   740   742   ar
  1860  1478  1479    1
  1861  1497  1498    1
  1862   471   470    1
  1863   471   475    1
  1864   457   458   ar
  1865   342   330    1
  1866   342   343    1
  1867   327   326    1
  1868  1509  1510   ar
  1869  1503  1512   ar
  1870  1503  1502    1
  1871   308   306    1
  1872   308   309    1
  1873   470   472    1
  1874   324   322    2
  1875   743   742   ar
  1876   325   326    1
  1877   325   322    1
  1878  1501  1502    1
  1879  1512  1511   ar
  1880  1489  1488    1
  1881  1488  1487    2
  1882  1482  1483    1
  1883   306   305    1
  1884   461   462    1
  1885   461   460   ar
  1886  1498  1502    1
  1887   729   728    1
  1888  1484  1485    2
  1889  1510  1511   ar
  1890   475   476    1
  1891   475   474    1
  1892   728   725    1
  1893  1479  1483    1
  1894   322   309    1
  1895   322   323    1
  1896   458   460   ar
  1897   458   459    2
  1898   483   476   ar
  1899   483   482   ar
  1900  1487  1485    1
  1901  1485  1486    2
  1902   472   474    1
  1903   472   473    1
  1904   476   477   ar
  1905   482   480   ar
  1906   473   484    1
  1907   726   725    2
  1908   725   727    1
  1909   725   714    1
  1910   477   478    2
  1911   477   479   ar
  1912   719   718    2
  1913   480   479   ar
  1914   480   481    1
  1915   720   718   ar
  1916   720   721   ar
  1917   485   484    2
  1918   484   486    1
  1919   484   487    1
  1920   722   721    1
  1921   714   713    1
  1922   718   717   ar
  1923   715   713    1
  1924   715   716    1
  1925   721   723   ar
  1926   713   711    1
  1927   717   716    1
  1928   717   724   ar
  1929   487   488    1
  1930   723   724   ar
  1931   488   489    1
  1932   701   700    1
  1933   716   712    1
  1934   490   489    1
  1935   490   494    1
  1936   702   700   ar
  1937   702   703   ar
  1938   497   496   ar
  1939   497   498   ar
  1940   711   712    1
  1941   711   710    1
  1942   496   495   ar
  1943   617   616    2
  1944   700   699   ar
  1945   489   491    1
  1946   625   624    2
  1947   710   709    1
  1948   709   706    1
  1949   703   704   ar
  1950   500   499    1
  1951   495   494    1
  1952   495   504   ar
  1953   498   499   ar
  1954   498   504   ar
  1955   494   493    1
  1956   613   614    1
  1957   613   611    1
  1958   616   618   ar
  1959   616   615   ar
  1960   699   698   ar
  1961   699   705   ar
  1962   499   501   ar
  1963   708   706    2
  1964   681   680    2
  1965   504   503   ar
  1966   618   619   ar
  1967   614   615    1
  1968   614   610    1
  1969   491   493    1
  1970   491   492    1
  1971   698   697   ar
  1972   706   707    1
  1973   706   693    1
  1974   704   705   ar
  1975   624   626    1
  1976   624   612    1
  1977   624   627    1
  1978   705   696   ar
  1979   615   622   ar
  1980   612   611    1
  1981   501   502   ar
  1982   503   502   ar
  1983   680   679   ar
  1984   680   682   ar
  1985   684   682    1
  1986   611   609    1
  1987   492   505    1
  1988   646   644    2
  1989   697   696   ar
  1990   619   620    2
  1991   619   621   ar
  1992   610   609    1
  1993   524   522    1
  1994   667   665    2
  1995   679   677   ar
  1996   682   683   ar
  1997   696   695    1
  1998   687   685    2
  1999   609   608    1
  2000   627   628    1
  2001   694   692    1
  2002   694   695    1
  2003   645   644    1
  2004   628   629    1
  2005   692   693    1
  2006   692   690    1
  2007   622   621   ar
  2008   521   520    2
  2009   507   505    2
  2010   644   632    1
  2011   644   647    1
  2012   621   623    1
  2013   643   641    1
  2014   660   659    1
  2015   522   520   ar
  2016   522   523   ar
  2017   695   691    1
  2018   683   676   ar
  2019   677   678    2
  2020   677   676   ar
  2021   505   506    1
  2022   505   508    1
  2023   520   519   ar
  2024   688   685    1
  2025   688   689    1
  2026   665   666    1
  2027   665   668    1
  2028   665   652    1
  2029   685   686    1
  2030   685   673    1
  2031   676   675    1
  2032   668   669    1
  2033   657   658   ar
  2034   657   656   ar
  2035   523   516   ar
  2036   632   631    1
  2037   608   607    1
  2038   647   648    1
  2039   659   658   ar
  2040   659   661   ar
  2041   690   691    1
  2042   690   689    1
  2043   629   631    1
  2044   629   630    1
  2045   519   517   ar
  2046   598   641    1
  2047   598   597    1
  2048   631   633    1
  2049   658   664   ar
  2050   672   673    1
  2051   672   674    1
  2052   672   670    1
  2053   641   642    1
  2054   641   639    1
  2055   508   509    1
  2056   656   655   ar
  2057   642   635    1
  2058   607   604    1
  2059   511   515    1
  2060   511   510    1
  2061   661   662   ar
  2062   516   517   ar
  2063   516   515    1
  2064   674   675    1
  2065   652   651    1
  2066   651   653    1
  2067   651   649    1
  2068   541   540    2
  2069   630   634    1
  2070   669   670    1
  2071   517   518    2
  2072   675   671    1
  2073   648   649    1
  2074   509   510    1
  2075   599   597    2
  2076   599   600    1
  2077   597   596    1
  2078   515   514    1
  2079   671   670    1
  2080   653   654    1
  2081   664   655   ar
  2082   664   663   ar
  2083   640   639    1
  2084   640   562    1
  2085   639   638    2
  2086   655   654    1
  2087   662   663   ar
  2088   510   512    1
  2089   635   634    1
  2090   635   636   am
  2091   540   539   ar
  2092   540   542   ar
  2093   544   542    1
  2094   649   650    1
  2095   633   634    1
  2096   601   600    1
  2097   606   604    2
  2098   594   595    1
  2099   594   592    1
  2100   561   560    1
  2101   604   605    1
  2102   604   593    1
  2103   654   650    1
  2104   600   602    2
  2105   539   537   ar
  2106   542   543   ar
  2107   562   560    1
  2108   562   563    1
  2109   596   595    1
  2110   596   603    1
  2111   638   636    1
  2112   595   591    1
  2113   514   512    1
  2114   636   637    2
  2115   512   513    1
  2116   560   559    2
  2117   593   592    1
  2118   543   536   ar
  2119   537   538    2
  2120   537   536   ar
  2121   592   590    1
  2122   563   564    2
  2123   602   603    1
  2124   579   578    2
  2125   536   535    1
  2126   580   578   ar
  2127   580   581   ar
  2128   527   525    2
  2129   591   590    1
  2130   513   525    1
  2131   559   558    1
  2132   559   565    1
  2133   582   581    1
  2134   578   577   ar
  2135   590   589    1
  2136   564   565    1
  2137   535   531    1
  2138   535   534    1
  2139   581   583   ar
  2140   558   557    2
  2141   531   530    1
  2142   565   556    1
  2143   525   528    1
  2144   525   526    1
  2145   577   576    1
  2146   577   584   ar
  2147   528   529    1
  2148   589   588    1
  2149   557   556    1
  2150   556   555    1
  2151   534   532    1
  2152   576   575    1
  2153   576   572    1
  2154   583   584   ar
  2155   588   585    1
  2156   530   529    1
  2157   530   532    1
  2158   575   573    1
  2159   532   533    1
  2160   555   551    1
  2161   555   554    1
  2162   547   545    2
  2163   572   571    1
  2164   551   550    1
  2165   573   574    1
  2166   573   571    1
  2167   585   587    2
  2168   585   574    1
  2169   585   586    1
  2170   554   552    1
  2171   533   545    1
  2172   571   570    1
  2173   545   548    1
  2174   545   546    1
  2175   548   549    1
  2176   552   550    1
  2177   552   553    1
  2178   550   549    1
  2179   569   570    1
  2180   569   566    1
  2181   568   566    2
  2182   553   566    1
  2183   566   567    1
