@<TRIPOS>MOLECULE
dna.pdb
 1573 1755 0 0 0
SMALL
GASTEIGER

@<TRIPOS>ATOM
      1  O5'       -5.6620   -7.5900   12.3170 O.3     1  DA1        -0.2176
      2  C5'       -5.4080   -8.8790   12.8710 C.3     1  DA1         0.2140
      3  C4'       -4.0960   -8.9330   13.6150 C.3     1  DA1         0.1774
      4  O4'       -3.0600   -9.4340   12.7250 O.3     1  DA1        -0.3348
      5  C3'       -3.6140   -7.5900   14.1520 C.3     1  DA1         0.1556
      6  O3'       -3.1030   -7.7110   15.4760 O.3     1  DA1        -0.3139
      7  C2'       -2.4840   -7.1980   13.2070 C.3     1  DA1         0.0835
      8  C1'       -1.9730   -8.5330   12.6640 C.3     1  DA1         0.1974
      9  N9        -1.5970   -8.6550   11.4180 N.pl3   1  DA1        -0.2458
     10  C8        -2.2030   -7.7970   10.5390 C.2     1  DA1         0.1669
     11  N7        -1.3610   -7.0720    9.8410 N.2     1  DA1        -0.2209
     12  C5        -0.1170   -7.4810   10.2940 C.2     1  DA1         0.1885
     13  C6         1.1900   -7.0930    9.9490 C.2     1  DA1         0.4091
     14  N6         1.4670   -6.1670    9.0280 N.pl3   1  DA1         0.2138
     15  N1         2.2120   -7.6960   10.5910 N.pl3   1  DA1        -0.0377
     16  C2         1.9330   -8.6250   11.5130 C.2     1  DA1         0.3041
     17  N3         0.7490   -9.0740   11.9220 N.2     1  DA1        -0.2040
     18  C4        -0.2460   -8.4540   11.2660 C.3     1  DA1         0.2331
     19  P         -3.0560   -6.4150   16.4810 P.3     2  DT2         0.2141
     20  OP1       -3.5420   -6.4450   17.8560 O.3     2  DT2        -0.4373
     21  OP2       -3.8080   -5.7710   15.3680 O.2     2  DT2        -0.5172
     22  O5'       -1.5600   -5.8870   16.3510 O.3     2  DT2        -0.3114
     23  C5'       -0.7980   -5.9290   17.5100 C.3     2  DT2         0.1811
     24  C4'        0.6390   -6.0210   17.0760 C.3     2  DT2         0.1746
     25  O4'        0.5840   -6.6790   15.8300 O.3     2  DT2        -0.3327
     26  C3'        1.3330   -4.7510   16.6860 C.3     2  DT2         0.1558
     27  O3'        1.8660   -4.0190   17.8030 O.3     2  DT2        -0.3138
     28  C2'        2.4130   -5.3920   15.8700 C.3     2  DT2         0.0866
     29  C1'        1.6260   -6.2420   14.9880 C.3     2  DT2         0.2106
     30  N1         1.2230   -5.6440   13.7770 N.ar    2  DT2        -0.2559
     31  C2         2.0890   -5.2580   12.7710 C.ar    2  DT2         0.3545
     32  O2         3.2980   -5.2170   12.9140 O.2     2  DT2        -0.2443
     33  N3         1.4850   -4.9190   11.5840 N.ar    2  DT2        -0.1533
     34  C4         0.1340   -4.9260   11.3080 C.ar    2  DT2         0.2804
     35  O4        -0.2580   -4.5960   10.1920 O.2     2  DT2        -0.2654
     36  C5        -0.6990   -5.3370   12.4030 C.ar    2  DT2         0.0534
     37  C6        -0.1390   -5.6720   13.5690 C.ar    2  DT2         0.0824
     38  C7        -2.1850   -5.3770   12.2020 C.3     2  DT2         0.0377
     39  P          1.0920   -2.7240   17.9410 P.3     3  DA3         0.2141
     40  OP1        1.2140   -2.0840   19.2760 O.3     3  DA3        -0.4373
     41  OP2       -0.1040   -2.4390   17.1020 O.2     3  DA3        -0.5172
     42  O5'        2.3750   -2.3440   17.0770 O.3     3  DA3        -0.3114
     43  C5'        3.6820   -2.7010   17.5210 C.3     3  DA3         0.1811
     44  C4'        4.7220   -2.2160   16.5410 C.3     3  DA3         0.1746
     45  O4'        4.5870   -2.9480   15.3000 O.3     3  DA3        -0.3327
     46  C3'        4.6460   -0.7430   16.1550 C.3     3  DA3         0.1558
     47  O3'        5.3690    0.0680   17.0970 O.3     3  DA3        -0.3138
     48  C2'        5.2880   -0.7230   14.7690 C.3     3  DA3         0.0865
     49  C1'        4.9070   -2.0980   14.2130 C.3     3  DA3         0.2094
     50  N9         3.7550   -2.0590   13.2640 N.ar    3  DA3        -0.2714
     51  C8         2.4260   -2.2820   13.5150 C.ar    3  DA3         0.1815
     52  N7         1.6580   -2.1460   12.4600 N.ar    3  DA3        -0.2193
     53  C5         2.5420   -1.8090   11.4470 C.ar    3  DA3         0.1518
     54  C6         2.3550   -1.5310   10.0820 C.ar    3  DA3         0.1919
     55  N6         1.1640   -1.5500    9.4800 N.pl3   3  DA3        -0.1054
     56  N1         3.4480   -1.2290    9.3490 N.ar    3  DA3        -0.2040
     57  C2         4.6420   -1.2110    9.9530 C.ar    3  DA3         0.2016
     58  N3         4.9440   -1.4550   11.2260 N.ar    3  DA3        -0.2048
     59  C4         3.8370   -1.7510   11.9280 C.ar    3  DA3         0.1691
     60  P          5.0240    1.6840   17.2890 P.3     4  DC4         0.2141
     61  OP1        5.3470    2.2430   18.6220 O.3     4  DC4        -0.4373
     62  OP2        3.8900    2.2280   16.5060 O.2     4  DC4        -0.5172
     63  O5'        6.2830    1.8110   16.3110 O.3     4  DC4        -0.3114
     64  C5'        6.3570    2.9710   15.5050 C.3     4  DC4         0.1811
     65  C4'        6.8290    2.6780   14.1070 C.3     4  DC4         0.1746
     66  O4'        6.2820    1.4270   13.6170 O.3     4  DC4        -0.3327
     67  C3'        6.3460    3.6700   13.0670 C.3     4  DC4         0.1558
     68  O3'        6.9750    4.9330   13.1370 O.3     4  DC4        -0.3138
     69  C2'        6.5610    2.8940   11.7800 C.3     4  DC4         0.0866
     70  C1'        6.0040    1.5470   12.2330 C.3     4  DC4         0.2106
     71  N1         4.3820    1.6640   12.0080 N.ar    4  DC4        -0.2556
     72  C2         3.8130    1.4690   10.7440 C.ar    4  DC4         0.3531
     73  O2         4.5190    1.6460    9.7370 O.2     4  DC4        -0.2443
     74  N3         2.5140    1.0950   10.6560 N.ar    4  DC4        -0.1739
     75  C4         1.7950    0.9180   11.7650 C.ar    4  DC4         0.1759
     76  N4         0.5190    0.5500   11.6290 N.pl3   4  DC4        -0.1070
     77  C5         2.3530    1.1110   13.0550 C.ar    4  DC4         0.0566
     78  C6         3.6360    1.4800   13.1370 C.ar    4  DC4         0.0849
     79  P          6.0910    6.0400   13.7530 P.3     5  DC5         0.2141
     80  OP1        6.8870    7.1680   14.4110 O.3     5  DC5        -0.4373
     81  OP2        4.7540    5.5810   14.3360 O.2     5  DC5        -0.5172
     82  O5'        5.8390    6.6080   12.2950 O.3     5  DC5        -0.3114
     83  C5'        6.9170    7.1230   11.5210 C.3     5  DC5         0.1811
     84  C4'        6.5700    7.0210   10.0700 C.3     5  DC5         0.1746
     85  O4'        6.2020    5.6490    9.7820 O.3     5  DC5        -0.3327
     86  C3'        5.3160    7.7740    9.6700 C.3     5  DC5         0.1558
     87  O3'        5.5920    9.1450    9.5220 O.3     5  DC5        -0.3138
     88  C2'        4.9620    7.0810    8.3690 C.3     5  DC5         0.0866
     89  C1'        5.2850    5.6290    8.7010 C.3     5  DC5         0.2106
     90  N1         4.0560    4.9770    9.1110 N.ar    5  DC5        -0.2556
     91  C2         3.1430    4.5570    8.1370 C.ar    5  DC5         0.3531
     92  O2         3.4000    4.7790    6.9410 O.2     5  DC5        -0.2443
     93  N3         2.0110    3.9230    8.5240 N.ar    5  DC5        -0.1739
     94  C4         1.7760    3.7070    9.8190 C.ar    5  DC5         0.1759
     95  N4         0.6470    3.0780   10.1530 N.pl3   5  DC5        -0.1070
     96  C5         2.6880    4.1250   10.8210 C.ar    5  DC5         0.0566
     97  C6         3.8060    4.7500   10.4350 C.ar    5  DC5         0.0849
     98  P          4.3330   10.2920    9.5660 P.3     6  DA6         0.2141
     99  OP1        4.7500   11.7260    9.6320 O.2     6  DA6        -0.5172
    100  OP2        2.9450    9.8960    9.9200 O.3     6  DA6        -0.4373
    101  O5'        4.6020    9.7440    8.1050 O.3     6  DA6        -0.3114
    102  C5'        4.6290   10.6110    7.0070 C.3     6  DA6         0.1811
    103  C4'        4.0910    9.9060    5.8070 C.3     6  DA6         0.1746
    104  O4'        4.1710    8.4810    6.0300 O.3     6  DA6        -0.3327
    105  C3'        2.6200   10.0600    5.5630 C.3     6  DA6         0.1558
    106  O3'        2.3570   11.3100    5.0420 O.3     6  DA6        -0.3138
    107  C2'        2.3260    8.9030    4.6410 C.3     6  DA6         0.0865
    108  C1'        3.1350    7.8220    5.3220 C.3     6  DA6         0.2094
    109  N9         2.3150    7.1050    6.1060 N.ar    6  DA6        -0.2714
    110  C8         2.2980    7.2020    7.4730 C.ar    6  DA6         0.1815
    111  N7         1.4340    6.4000    8.0500 N.ar    6  DA6        -0.2193
    112  C5         0.8430    5.7310    6.9900 C.ar    6  DA6         0.1518
    113  C6        -0.1560    4.7430    6.9340 C.ar    6  DA6         0.1919
    114  N6        -0.7580    4.2380    8.0130 N.pl3   6  DA6        -0.1054
    115  N1        -0.5180    4.2880    5.7150 N.ar    6  DA6        -0.2040
    116  C2         0.0870    4.7940    4.6350 C.ar    6  DA6         0.2016
    117  N3         1.0370    5.7220    4.5600 N.ar    6  DA6        -0.2048
    118  C4         1.3740    6.1550    5.7870 C.ar    6  DA6         0.1691
    119  P          1.2530   12.0940    5.6850 P.3     7  DG7         0.2141
    120  OP1        1.3050   13.5000    5.2170 O.2     7  DG7        -0.5172
    121  OP2        0.7090   11.7840    7.0260 O.3     7  DG7        -0.4373
    122  O5'        0.4060   11.2180    4.6460 O.3     7  DG7        -0.3114
    123  C5'        0.6050   11.3480    3.2430 C.3     7  DG7         0.1811
    124  C4'       -0.0740   10.2180    2.4880 C.3     7  DG7         0.1746
    125  O4'        0.2480    8.9240    3.0690 O.3     7  DG7        -0.3327
    126  C3'       -1.5940   10.2180    2.5030 C.3     7  DG7         0.1558
    127  O3'       -2.1440   11.2260    1.6530 O.3     7  DG7        -0.3138
    128  C2'       -1.8450    8.8030    1.9920 C.3     7  DG7         0.0865
    129  C1'       -0.8340    8.0330    2.8440 C.3     7  DG7         0.2094
    130  N9        -1.4620    7.6110    4.1020 N.ar    7  DG7        -0.2713
    131  C8        -1.1170    8.0590    5.3540 C.ar    7  DG7         0.1816
    132  N7        -1.7230    7.4180    6.3160 N.ar    7  DG7        -0.2173
    133  C5        -2.5130    6.4900    5.6650 C.ar    7  DG7         0.1748
    134  C6        -3.4010    5.5100    6.1800 C.ar    7  DG7         0.3023
    135  O6        -3.6690    5.2650    7.3630 O.2     7  DG7        -0.2633
    136  N1        -4.0080    4.7740    5.1660 N.ar    7  DG7        -0.1709
    137  C2        -3.7870    4.9590    3.8220 C.ar    7  DG7         0.2606
    138  N2        -4.4640    4.1500    2.9950 N.pl3   7  DG7        -0.0859
    139  N3        -2.9660    5.8650    3.3290 N.ar    7  DG7        -0.1918
    140  C4        -2.3660    6.5920    4.2950 C.ar    7  DG7         0.1722
    141  P         -3.4320   11.7760    1.9960 P.3     8  DC8         0.2141
    142  OP1       -3.6350   12.9290    1.0880 O.2     8  DC8        -0.5172
    143  OP2       -3.5900   11.9730    3.4640 O.3     8  DC8        -0.4373
    144  O5'       -4.5080   10.6960    1.5830 O.3     8  DC8        -0.3114
    145  C5'       -4.5400   10.2290    0.2540 C.3     8  DC8         0.1811
    146  C4'       -5.5920    9.1950    0.1240 C.3     8  DC8         0.1746
    147  O4'       -5.1710    8.0360    0.8940 O.3     8  DC8        -0.3327
    148  C3'       -6.9060    9.5920    0.7570 C.3     8  DC8         0.1558
    149  O3'       -7.7190   10.4680   -0.0210 O.3     8  DC8        -0.3138
    150  C2'       -7.5280    8.2390    1.0700 C.3     8  DC8         0.0866
    151  C1'       -6.2980    7.4480    1.5170 C.3     8  DC8         0.2106
    152  N1        -6.1250    7.4840    2.9930 N.ar    8  DC8        -0.2556
    153  C2        -6.8240    6.5260    3.7360 C.ar    8  DC8         0.3531
    154  O2        -7.4470    5.6370    3.1300 O.2     8  DC8        -0.2443
    155  N3        -6.8020    6.5950    5.0890 N.ar    8  DC8        -0.1739
    156  C4        -6.1200    7.5670    5.6960 C.ar    8  DC8         0.1759
    157  N4        -6.1270    7.5950    7.0310 N.pl3   8  DC8        -0.1070
    158  C5        -5.4050    8.5470    4.9610 C.ar    8  DC8         0.0566
    159  C6        -5.4300    8.4760    3.6260 C.ar    8  DC8         0.0849
    160  P         -9.0770   11.6790    0.8320 P.3     9  DT9         0.2141
    161  OP1       -9.0480   12.7380   -0.2090 O.2     9  DT9        -0.5172
    162  OP2       -9.4960   12.0460    2.2310 O.3     9  DT9        -0.4373
    163  O5'      -10.1800   10.6780    0.2910 O.3     9  DT9        -0.3114
    164  C5'      -11.5050   10.7760    0.7580 C.3     9  DT9         0.1811
    165  C4'      -12.0550    9.4050    1.0540 C.3     9  DT9         0.1746
    166  O4'      -11.0330    8.5690    1.6520 O.3     9  DT9        -0.3327
    167  C3'      -13.1380    9.4300    2.1050 C.3     9  DT9         0.1558
    168  O3'      -14.3550    9.8350    1.5490 O.3     9  DT9        -0.3138
    169  C2'      -13.1200    8.0110    2.6370 C.3     9  DT9         0.0866
    170  C1'      -11.6140    7.7520    2.6650 C.3     9  DT9         0.2106
    171  N1       -10.9740    8.1040    3.9610 N.ar    9  DT9        -0.2559
    172  C2       -11.3580    7.4650    5.1240 C.ar    9  DT9         0.3545
    173  O2       -12.2590    6.6450    5.1660 O.2     9  DT9        -0.2443
    174  N3       -10.6480    7.8220    6.2450 N.ar    9  DT9        -0.1533
    175  C4        -9.6160    8.7330    6.3170 C.ar    9  DT9         0.2804
    176  O4        -9.0730    8.9480    7.3980 O.2     9  DT9        -0.2654
    177  C5        -9.2760    9.3550    5.0680 C.ar    9  DT9         0.0534
    178  C6        -9.9510    9.0260    3.9630 C.ar    9  DT9         0.0824
    179  C7        -8.1650   10.3620    5.0430 C.3     9  DT9         0.0377
    180  P        -14.9320   10.9190    2.1390 P.3    10  DT10        0.2141
    181  OP1      -16.1680   10.7190    1.3500 O.2    10  DT10       -0.5172
    182  OP2      -14.0320   12.0660    1.8630 O.3    10  DT10       -0.4373
    183  O5'      -15.3400   10.9230    3.6810 O.3    10  DT10       -0.3114
    184  C5'      -16.1330    9.8580    4.1760 C.3    10  DT10        0.1811
    185  C4'      -16.1730    9.9250    5.6860 C.3    10  DT10        0.1746
    186  O4'      -14.8260    9.9770    6.2100 O.3    10  DT10       -0.3327
    187  C3'      -16.8030   11.1910    6.2300 C.3    10  DT10        0.1558
    188  O3'      -18.2090   11.0910    6.1470 O.3    10  DT10       -0.3138
    189  C2'      -16.2890   11.1510    7.6640 C.3    10  DT10        0.0866
    190  C1'      -14.8680   10.6130    7.4740 C.3    10  DT10        0.2106
    191  N1       -13.8470   11.7140    7.4560 N.ar   10  DT10       -0.2559
    192  C2       -13.5910   12.3770    8.6410 C.ar   10  DT10        0.3545
    193  O2       -14.2070   12.1610    9.6700 O.2    10  DT10       -0.2443
    194  N3       -12.5820   13.3080    8.5800 N.ar   10  DT10       -0.1533
    195  C4       -11.8210   13.6360    7.4770 C.ar   10  DT10        0.2804
    196  O4       -10.9480   14.4950    7.5780 O.2    10  DT10       -0.2654
    197  C5       -12.1480   12.9050    6.2850 C.ar   10  DT10        0.0534
    198  C6       -13.1240   11.9940    6.3170 C.ar   10  DT10        0.0824
    199  C7       -11.3760   13.1900    5.0310 C.3    10  DT10        0.0377
    200  P        -19.0680   12.4270    5.9470 P.3    11  DA11        0.2141
    201  OP1      -20.5270   12.2240    6.0010 O.3    11  DA11       -0.4373
    202  OP2      -18.4540   13.0370    4.7360 O.2    11  DA11       -0.5172
    203  O5'      -18.6140   13.2690    7.2230 O.3    11  DA11       -0.3114
    204  C5'      -19.3080   13.1560    8.4630 C.3    11  DA11        0.1811
    205  C4'      -19.1380   14.4130    9.2670 C.3    11  DA11        0.1746
    206  O4'      -17.8270   14.4390    9.8940 O.3    11  DA11       -0.3327
    207  C3'      -19.1850   15.6940    8.4560 C.3    11  DA11        0.1558
    208  O3'      -20.5010   16.1310    8.1650 O.3    11  DA11       -0.3138
    209  C2'      -18.4280   16.6780    9.3410 C.3    11  DA11        0.0865
    210  C1'      -17.3560   15.7830    9.9580 C.3    11  DA11        0.2094
    211  N9       -16.0450   15.8760    9.1360 N.ar   11  DA11       -0.2714
    212  C8       -15.7180   15.4120    7.8890 C.ar   11  DA11        0.1815
    213  N7       -14.5330   15.7950    7.4760 N.ar   11  DA11       -0.2193
    214  C5       -14.0490   16.5640    8.5220 C.ar   11  DA11        0.1518
    215  C6       -12.8410   17.2590    8.7060 C.ar   11  DA11        0.1919
    216  N6       -11.8610   17.2900    7.8000 N.pl3  11  DA11       -0.1054
    217  N1       -12.6740   17.9290    9.8660 N.ar   11  DA11       -0.2040
    218  C2       -13.6560   17.8970   10.7740 C.ar   11  DA11        0.2016
    219  N3       -14.8340   17.2790   10.7160 N.ar   11  DA11       -0.2048
    220  C4       -14.9700   16.6240    9.5510 C.ar   11  DA11        0.1691
    221  P        -20.7910   17.4150    6.9660 P.3    12  DT12        0.2141
    222  OP1      -22.1940   17.7700    7.2260 O.3    12  DT12       -0.4373
    223  OP2      -20.2210   17.2920    5.6000 O.2    12  DT12       -0.5172
    224  O5'      -20.0150   18.5240    7.7910 O.3    12  DT12       -0.3114
    225  C5'      -20.8730   19.2440    8.6230 C.3    12  DT12        0.1811
    226  C4'      -20.0730   20.2940    9.3370 C.3    12  DT12        0.1746
    227  O4'      -18.8230   19.6890    9.7200 O.3    12  DT12       -0.3327
    228  C3'      -19.6390   21.4580    8.4670 C.3    12  DT12        0.1558
    229  O3'      -20.6920   22.3900    8.2480 O.3    12  DT12       -0.3138
    230  C2'      -18.4720   22.0250    9.2800 C.3    12  DT12        0.0866
    231  C1'      -17.8170   20.7020    9.6640 C.3    12  DT12        0.2106
    232  N1       -16.7370   20.2640    8.7360 N.ar   12  DT12       -0.2559
    233  C2       -15.4530   20.7630    8.8450 C.ar   12  DT12        0.3545
    234  O2       -15.1170   21.5490    9.7120 O.2    12  DT12       -0.2443
    235  N3       -14.5700   20.3060    7.8960 N.ar   12  DT12       -0.1533
    236  C4       -14.8370   19.4210    6.8730 C.ar   12  DT12        0.2804
    237  O4       -13.9380   19.1030    6.0980 O.2    12  DT12       -0.2654
    238  C5       -16.1920   18.9490    6.8260 C.ar   12  DT12        0.0534
    239  C6       -17.0710   19.3770    7.7360 C.ar   12  DT12        0.0824
    240  C7       -16.5820   17.9820    5.7480 C.3    12  DT12        0.0377
    241  P        -20.7330   23.3250    6.7760 P.3    13  DT13        0.2141
    242  OP1      -21.9930   23.7860    6.1570 O.3    13  DT13       -0.4373
    243  OP2      -19.4760   23.3380    5.9840 O.2    13  DT13       -0.5172
    244  O5'      -20.5790   24.2140    8.0900 O.3    13  DT13       -0.3114
    245  C5'      -20.1220   25.5320    8.0050 C.3    13  DT13        0.1811
    246  C4'      -18.7970   25.5920    8.7420 C.3    13  DT13        0.1746
    247  O4'      -18.0600   24.3530    8.5720 O.3    13  DT13       -0.3327
    248  C3'      -17.8140   26.6040    8.1940 C.3    13  DT13        0.1558
    249  O3'      -18.2430   27.9280    8.5320 O.3    13  DT13       -0.3138
    250  C2'      -16.5060   26.1350    8.8440 C.3    13  DT13        0.0866
    251  C1'      -16.6940   24.6130    8.8520 C.3    13  DT13        0.2106
    252  N1       -15.8190   24.0580    7.9620 N.ar   13  DT13       -0.2559
    253  C2       -14.4610   23.8790    8.1480 C.ar   13  DT13        0.3545
    254  O2       -13.8370   24.4170    9.0460 O.2    13  DT13       -0.2443
    255  N3       -13.8550   23.0440    7.2410 N.ar   13  DT13       -0.1533
    256  C4       -14.4570   22.3850    6.1900 C.ar   13  DT13        0.2804
    257  O4       -13.7800   21.6660    5.4590 O.2    13  DT13       -0.2654
    258  C5       -15.8680   22.6220    6.0620 C.ar   13  DT13        0.0534
    259  C6       -16.4820   23.4300    6.9310 C.ar   13  DT13        0.0824
    260  C7       -16.6140   21.9500    4.9480 C.3    13  DT13        0.0377
    261  P        -17.7230   29.1820    7.7440 P.3    14  DC14        0.2141
    262  OP1      -18.3180   30.5380    7.7880 O.3    14  DC14       -0.4373
    263  OP2      -17.9590   28.3220    6.5530 O.2    14  DC14       -0.5172
    264  O5'      -16.1530   29.3260    7.9970 O.3    14  DC14       -0.3114
    265  C5'      -15.6390   29.5760    9.3090 C.3    14  DC14        0.1811
    266  C4'      -14.1360   29.7480    9.2570 C.3    14  DC14        0.1746
    267  O4'      -13.4590   28.4810    9.4510 O.3    14  DC14       -0.3327
    268  C3'      -13.6060   30.2620    7.9360 C.3    14  DC14        0.1558
    269  O3'      -13.7440   31.6660    7.8010 O.3    14  DC14       -0.3138
    270  C2'      -12.1620   29.7750    7.9290 C.3    14  DC14        0.0866
    271  C1'      -12.2900   28.4270    8.6460 C.3    14  DC14        0.2106
    272  N1       -12.4930   27.2010    7.6390 N.ar   14  DC14       -0.2556
    273  C2       -11.3000   26.6450    7.1620 C.ar   14  DC14        0.3531
    274  O2       -10.2310   26.9630    7.7110 O.2    14  DC14       -0.2443
    275  N3       -11.3460   25.7810    6.1200 N.ar   14  DC14       -0.1739
    276  C4       -12.5160   25.4700    5.5620 C.ar   14  DC14        0.1759
    277  N4       -12.5110   24.6140    4.5370 N.pl3  14  DC14       -0.1070
    278  C5       -13.7360   26.0220    6.0300 C.ar   14  DC14        0.0566
    279  C6       -13.6870   26.8750    7.0590 C.ar   14  DC14        0.0849
    280  P        -14.2860   32.2480    6.4360 P.3    15  DA15        0.2141
    281  OP1      -14.8990   33.5650    6.7350 O.3    15  DA15       -0.4373
    282  OP2      -15.1470   31.1540    5.9190 O.2    15  DA15       -0.5172
    283  O5'      -12.9850   32.4010    5.4520 O.3    15  DA15       -0.3114
    284  C5'      -12.2270   33.6130    5.1680 C.3    15  DA15        0.1811
    285  C4'      -10.7330   33.3400    4.9510 C.3    15  DA15        0.1746
    286  O4'      -10.3620   32.0250    5.4990 O.3    15  DA15       -0.3327
    287  C3'      -10.2120   33.3230    3.5060 C.3    15  DA15        0.1558
    288  O3'       -9.8490   34.6500    2.9710 O.3    15  DA15       -0.3138
    289  C2'       -9.0440   32.2970    3.5770 C.3    15  DA15        0.0865
    290  C1'       -9.4520   31.3040    4.6620 C.3    15  DA15        0.2094
    291  N9       -10.0470   30.1350    4.2250 N.ar   15  DA15       -0.2714
    292  C8       -11.3630   29.7560    4.2810 C.ar   15  DA15        0.1815
    293  N7       -11.5780   28.5310    3.8650 N.ar   15  DA15       -0.2193
    294  C5       -10.3190   28.0750    3.5090 C.ar   15  DA15        0.1518
    295  C6        -9.8680   26.8480    2.9920 C.ar   15  DA15        0.1919
    296  N6       -10.6730   25.8140    2.7350 N.pl3  15  DA15       -0.1054
    297  N1        -8.5470   26.7190    2.7460 N.ar   15  DA15       -0.2040
    298  C2        -7.7410   27.7550    3.0050 C.ar   15  DA15        0.2016
    299  N3        -8.0460   28.9560    3.4910 N.ar   15  DA15       -0.2048
    300  C4        -9.3660   29.0520    3.7240 C.ar   15  DA15        0.1691
    301  P         -9.2340   34.8680    1.4300 P.3    16  DA16        0.2141
    302  OP1       -8.7760   36.2840    1.4110 O.3    16  DA16       -0.4373
    303  OP2      -10.4660   34.4390    0.7270 O.2    16  DA16       -0.5172
    304  O5'       -8.0490   33.9420    0.8910 O.3    16  DA16       -0.3114
    305  C5'       -6.7570   34.1390    1.4300 C.3    16  DA16        0.1811
    306  C4'       -5.8650   32.9250    1.2450 C.3    16  DA16        0.1746
    307  O4'       -6.4590   31.7210    1.8010 O.3    16  DA16       -0.3327
    308  C3'       -5.5810   32.5820   -0.2000 C.3    16  DA16        0.1558
    309  O3'       -4.5800   33.4890   -0.6690 O.3    16  DA16       -0.3138
    310  C2'       -5.1520   31.1200   -0.0550 C.3    16  DA16        0.0865
    311  C1'       -6.1040   30.5830    1.0250 C.3    16  DA16        0.2094
    312  N9        -7.3190   29.8330    0.8420 N.ar   16  DA16       -0.2714
    313  C8        -8.5890   30.3320    0.7050 C.ar   16  DA16        0.1815
    314  N7        -9.4700   29.4370    0.3240 N.ar   16  DA16       -0.2193
    315  C5        -8.7290   28.2730    0.2020 C.ar   16  DA16        0.1518
    316  C6        -9.0800   26.9630   -0.1690 C.ar   16  DA16        0.1919
    317  N6       -10.3200   26.5950   -0.4980 N.pl3  16  DA16       -0.1054
    318  N1        -8.1000   26.0340   -0.1910 N.ar   16  DA16       -0.2040
    319  C2        -6.8570   26.4040    0.1400 C.ar   16  DA16        0.2016
    320  N3        -6.4060   27.6010    0.5060 N.ar   16  DA16       -0.2048
    321  C4        -7.4030   28.5010    0.5170 C.ar   16  DA16        0.1691
    322  P         -4.2780   33.6890   -2.2710 P.3    17  DT17        0.2141
    323  OP1       -3.2420   34.6630   -2.7070 O.3    17  DT17       -0.4373
    324  OP2       -5.6690   33.8750   -2.7660 O.2    17  DT17       -0.5172
    325  O5'       -3.7750   32.2330   -2.7000 O.3    17  DT17       -0.3114
    326  C5'       -2.4530   31.7830   -2.4260 C.3    17  DT17        0.1811
    327  C4'       -2.3820   30.3160   -2.7950 C.3    17  DT17        0.1746
    328  O4'       -3.4550   29.5990   -2.1320 O.3    17  DT17       -0.3327
    329  C3'       -2.6980   30.0670   -4.2550 C.3    17  DT17        0.1558
    330  O3'       -1.5690   30.3030   -5.0630 O.3    17  DT17       -0.3138
    331  C2'       -3.1740   28.6170   -4.2540 C.3    17  DT17        0.0866
    332  C1'       -4.0290   28.6340   -3.0020 C.3    17  DT17        0.2106
    333  N1        -5.4130   28.9540   -3.2410 N.ar   17  DT17       -0.2559
    334  C2        -6.1720   28.0030   -3.8950 C.ar   17  DT17        0.3545
    335  O2        -5.7270   26.9260   -4.2500 O.2    17  DT17       -0.2443
    336  N3        -7.4800   28.3590   -4.1210 N.ar   17  DT17       -0.1533
    337  C4        -8.0900   29.5440   -3.7680 C.ar   17  DT17        0.2804
    338  O4        -9.2760   29.7180   -4.0390 O.2    17  DT17       -0.2654
    339  C5        -7.2360   30.4800   -3.0940 C.ar   17  DT17        0.0534
    340  C6        -5.9600   30.1600   -2.8610 C.ar   17  DT17        0.0824
    341  C7        -7.8080   31.8000   -2.6690 C.3    17  DT17        0.0377
    342  P         -1.8590   30.9560   -6.5670 P.3    18  DT18        0.2141
    343  OP1       -0.5250   31.5350   -6.8760 O.3    18  DT18       -0.4373
    344  OP2       -3.0820   31.6370   -7.0630 O.2    18  DT18       -0.5172
    345  O5'       -1.8830   29.4710   -7.1250 O.3    18  DT18       -0.3114
    346  C5'       -2.2060   29.2370   -8.4700 C.3    18  DT18        0.1811
    347  C4'       -2.8960   27.9170   -8.6160 C.3    18  DT18        0.1746
    348  O4'       -3.8070   27.7090   -7.5120 O.3    18  DT18       -0.3327
    349  C3'       -3.7670   27.8730   -9.8520 C.3    18  DT18        0.1558
    350  O3'       -3.0040   27.6010  -11.0110 O.3    18  DT18       -0.3138
    351  C2'       -4.8200   26.8430   -9.4850 C.3    18  DT18        0.0866
    352  C1'       -5.0120   27.1430   -7.9920 C.3    18  DT18        0.2106
    353  N1        -6.1760   28.1640   -7.8020 N.ar   18  DT18       -0.2559
    354  C2        -7.4800   27.8560   -8.1400 C.ar   18  DT18        0.3545
    355  O2        -7.7820   26.8740   -8.7950 O.2    18  DT18       -0.2443
    356  N3        -8.4240   28.7430   -7.6840 N.ar   18  DT18       -0.1533
    357  C4        -8.2010   29.8820   -6.9390 C.ar   18  DT18        0.2804
    358  O4        -9.1530   30.5810   -6.6020 O.2    18  DT18       -0.2654
    359  C5        -6.8220   30.1340   -6.6290 C.ar   18  DT18        0.0534
    360  C6        -5.8830   29.2870   -7.0600 C.ar   18  DT18        0.0824
    361  C7        -6.4760   31.3510   -5.8230 C.3    18  DT18        0.0377
    362  P         -3.1520   28.5080  -12.1870 P.3    19  DA19        0.2141
    363  OP1       -1.9320   28.4750  -13.0170 O.2    19  DA19       -0.5172
    364  OP2       -3.5870   29.7890  -11.5830 O.3    19  DA19       -0.4373
    365  O5'       -4.3910   27.9450  -13.0330 O.3    19  DA19       -0.3114
    366  C5'       -4.4470   26.5740  -13.4240 C.3    19  DA19        0.1811
    367  C4'       -5.8450   26.1290  -13.8260 C.3    19  DA19        0.1746
    368  O4'       -6.7140   25.9860  -12.6700 O.3    19  DA19       -0.3327
    369  C3'       -6.6020   27.0950  -14.7230 C.3    19  DA19        0.1558
    370  O3'       -6.1290   27.0220  -16.0560 O.3    19  DA19       -0.3138
    371  C2'       -8.0300   26.5960  -14.5250 C.3    19  DA19        0.0865
    372  C1'       -8.0190   26.4370  -13.0050 C.3    19  DA19        0.2094
    373  N9        -8.3790   27.6510  -12.3010 N.ar   19  DA19       -0.2714
    374  C8        -7.5140   28.4830  -11.6390 C.ar   19  DA19        0.1815
    375  N7        -8.1090   29.4600  -10.9960 N.ar   19  DA19       -0.2193
    376  C5        -9.4550   29.2570  -11.2540 C.ar   19  DA19        0.1518
    377  C6       -10.6100   29.9530  -10.8570 C.ar   19  DA19        0.1919
    378  N6       -10.5880   31.0400  -10.0820 N.pl3  19  DA19       -0.1054
    379  N1       -11.8010   29.4880  -11.2890 N.ar   19  DA19       -0.2040
    380  C2       -11.8220   28.3980  -12.0650 C.ar   19  DA19        0.2016
    381  N3       -10.8060   27.6590  -12.5030 N.ar   19  DA19       -0.2048
    382  C4        -9.6370   28.1470  -12.0580 C.ar   19  DA19        0.1691
    383  P         -6.1220   28.1480  -16.6880 P.3    20  DA20        0.2141
    384  OP1       -5.3410   27.8920  -17.9260 O.2    20  DA20       -0.5172
    385  OP2       -5.7280   29.2430  -15.7580 O.3    20  DA20       -0.4373
    386  O5'       -7.6610   28.3260  -17.0660 O.3    20  DA20       -0.3114
    387  C5'       -8.3020   27.3480  -17.8560 C.3    20  DA20        0.1811
    388  C4'       -9.7640   27.6930  -18.0330 C.3    20  DA20        0.1746
    389  O4'      -10.4630   27.5890  -16.7710 O.3    20  DA20       -0.3327
    390  C3'      -10.0600   29.1160  -18.4900 C.3    20  DA20        0.1558
    391  O3'       -9.8780   29.2260  -19.8770 O.3    20  DA20       -0.3138
    392  C2'      -11.5140   29.2330  -18.0690 C.3    20  DA20        0.0865
    393  C1'      -11.3920   28.6560  -16.6740 C.3    20  DA20        0.2094
    394  N9       -10.9140   29.6010  -15.6770 N.ar   20  DA20       -0.2714
    395  C8        -9.6370   29.7880  -15.2170 C.ar   20  DA20        0.1815
    396  N7        -9.5380   30.7120  -14.2910 N.ar   20  DA20       -0.2193
    397  C5       -10.8390   31.1630  -14.1320 C.ar   20  DA20        0.1518
    398  C6       -11.4060   32.1420  -13.2960 C.ar   20  DA20        0.1919
    399  N6       -10.7010   32.8700  -12.4280 N.pl3  20  DA20       -0.1054
    400  N1       -12.7370   32.3480  -13.3860 N.ar   20  DA20       -0.2040
    401  C2       -13.4430   31.6160  -14.2560 C.ar   20  DA20        0.2016
    402  N3       -13.0240   30.6690  -15.0920 N.ar   20  DA20       -0.2048
    403  C4       -11.6970   30.4890  -14.9800 C.ar   20  DA20        0.1691
    404  P         -9.2930   30.4820  -20.4110 P.3    21  DT21        0.2141
    405  OP1       -9.1420   30.4620  -21.8830 O.2    21  DT21       -0.5172
    406  OP2       -8.2770   31.1390  -19.5560 O.3    21  DT21       -0.4373
    407  O5'      -10.6620   31.2100  -20.0090 O.3    21  DT21       -0.3114
    408  C5'      -11.9020   30.8630  -20.6100 C.3    21  DT21        0.1811
    409  C4'      -13.0120   31.7730  -20.1450 C.3    21  DT21        0.1746
    410  O4'      -13.2690   31.5580  -18.7310 O.3    21  DT21       -0.3327
    411  C3'      -12.7330   33.2660  -20.2230 C.3    21  DT21        0.1558
    412  O3'      -12.8460   33.8190  -21.5240 O.3    21  DT21       -0.3138
    413  C2'      -13.7370   33.8220  -19.2210 C.3    21  DT21        0.0866
    414  C1'      -13.6080   32.7810  -18.1120 C.3    21  DT21        0.2106
    415  N1       -12.5480   33.3230  -17.2610 N.ar   21  DT21       -0.2559
    416  C2       -12.8850   34.2760  -16.3190 C.ar   21  DT21        0.3545
    417  O2       -14.0190   34.6980  -16.1770 O.2    21  DT21       -0.2443
    418  N3       -11.8420   34.7200  -15.5430 N.ar   21  DT21       -0.1533
    419  C4       -10.5250   34.3170  -15.6150 C.ar   21  DT21        0.2804
    420  O4        -9.6990   34.8080  -14.8480 O.2    21  DT21       -0.2654
    421  C5       -10.2550   33.3270  -16.6180 C.ar   21  DT21        0.0534
    422  C6       -11.2510   32.8770  -17.3860 C.ar   21  DT21        0.0824
    423  C7        -8.8500   32.8240  -16.7740 C.3    21  DT21        0.0377
    424  P        -11.8390   34.9700  -21.9050 P.3    22  DC22        0.2141
    425  OP1      -12.5360   35.1380  -23.2000 O.2    22  DC22       -0.5172
    426  OP2      -10.3840   34.7040  -21.8830 O.3    22  DC22       -0.4373
    427  O5'      -12.1100   36.2630  -21.0020 O.3    22  DC22       -0.3115
    428  C5'      -13.1610   37.1590  -21.3400 C.3    22  DC22        0.1785
    429  C4'      -13.5190   38.0470  -20.1620 C.3    22  DC22        0.1473
    430  O4'      -13.3650   37.3190  -18.9130 O.3    22  DC22       -0.3353
    431  C3'      -12.6170   39.2540  -19.9620 C.3    22  DC22        0.0368
    432  O3'      -12.9050   40.3070  -20.8730 O.3    22  DC22       -0.1229
    433  C2'      -13.0020   39.6070  -18.5320 C.3    22  DC22        0.0566
    434  C1'      -13.0060   38.2240  -17.8790 C.3    22  DC22        0.2081
    435  N1       -11.7040   37.8590  -17.3060 N.ar   22  DC22       -0.2557
    436  C2       -11.1220   38.5050  -16.2100 C.ar   22  DC22        0.3531
    437  O2       -11.6740   39.5200  -15.7510 O.2    22  DC22       -0.2443
    438  N3        -9.9770   38.0090  -15.6830 N.ar   22  DC22       -0.1739
    439  C4        -9.4180   36.9180  -16.2090 C.ar   22  DC22        0.1759
    440  N4        -8.2900   36.4650  -15.6560 N.pl3  22  DC22       -0.1070
    441  C5        -9.9920   36.2480  -17.3200 C.ar   22  DC22        0.0566
    442  C6       -11.1230   36.7420  -17.8370 C.ar   22  DC22        0.0849
    443  P        -11.7700   41.1040  -21.1640 P.3    23  DG23        0.4174
    444  OP1      -12.7520   40.0710  -21.5570 O.3    23  DG23       -0.0277
    445  OP2      -11.3830   42.1500  -22.1340 O.2    23  DG23       -0.2667
    446  O5'      -12.4060   41.9350  -19.9500 O.3    23  DG23       -0.2176
    447  C5'      -12.3030   43.3530  -19.9810 C.3    23  DG23        0.2140
    448  C4'      -13.3600   44.0580  -19.1620 C.3    23  DG23        0.1776
    449  O4'      -14.6580   43.8990  -19.8000 O.3    23  DG23       -0.3326
    450  C3'      -13.5100   43.5720  -17.7210 C.3    23  DG23        0.1559
    451  O3'      -13.1160   44.5380  -16.7520 O.3    23  DG23       -0.3138
    452  C2'      -14.9960   43.2810  -17.5300 C.3    23  DG23        0.0865
    453  C1'      -15.6690   43.6350  -18.8480 C.3    23  DG23        0.2094
    454  N9       -16.0210   42.1840  -19.2620 N.ar   23  DG23       -0.2713
    455  C8       -15.2870   41.2190  -19.9080 C.ar   23  DG23        0.1816
    456  N7       -15.8110   40.0270  -19.8180 N.ar   23  DG23       -0.2173
    457  C5       -16.9600   40.2120  -19.0720 C.ar   23  DG23        0.1748
    458  C6       -17.9430   39.2830  -18.6440 C.ar   23  DG23        0.3023
    459  O6       -17.9880   38.0650  -18.8540 O.2    23  DG23       -0.2633
    460  N1       -18.9490   39.8950  -17.9010 N.ar   23  DG23       -0.1709
    461  C2       -19.0010   41.2360  -17.6060 C.ar   23  DG23        0.2606
    462  N2       -20.0500   41.6410  -16.8780 N.pl3  23  DG23       -0.0859
    463  N3       -18.0950   42.1110  -17.9960 N.ar   23  DG23       -0.1918
    464  C4       -17.1080   41.5400  -18.7180 C.ar   23  DG23        0.1722
    465  P        -12.6890   44.0130  -15.2410 P.3    24  DC24        0.2141
    466  OP1      -11.8680   45.0500  -14.5650 O.3    24  DC24       -0.4373
    467  OP2      -12.1490   42.6470  -15.4490 O.2    24  DC24       -0.5172
    468  O5'      -14.0870   43.7710  -14.4820 O.3    24  DC24       -0.3114
    469  C5'      -14.9170   44.8660  -14.1150 C.3    24  DC24        0.1812
    470  C4'      -16.3020   44.4410  -13.6930 C.3    24  DC24        0.1775
    471  O4'      -16.8560   43.5430  -14.6820 O.3    24  DC24       -0.3326
    472  C3'      -16.4220   43.6460  -12.4010 C.3    24  DC24        0.1864
    473  O3'      -16.3360   44.4390  -11.2290 O.3    24  DC24       -0.2133
    474  C2'      -17.7740   42.9640  -12.5740 C.3    24  DC24        0.0895
    475  C1'      -17.7180   42.6140  -14.0540 C.3    24  DC24        0.2107
    476  N1       -17.2260   41.2390  -14.2510 N.ar   24  DC24       -0.2556
    477  C2       -18.0130   40.0950  -14.0760 C.ar   24  DC24        0.3531
    478  O2       -19.1400   40.2180  -13.5670 O.2    24  DC24       -0.2443
    479  N3       -17.5250   38.8930  -14.4650 N.ar   24  DC24       -0.1739
    480  C4       -16.3090   38.8090  -15.0060 C.ar   24  DC24        0.1759
    481  N4       -15.8710   37.6030  -15.3730 N.pl3  24  DC24       -0.1070
    482  C5       -15.4960   39.9560  -15.1920 C.ar   24  DC24        0.0566
    483  C6       -15.9810   41.1420  -14.8070 C.ar   24  DC24        0.0849
    484  P        -15.3680   43.7300   -9.8610 P.3    25  DA25        0.3939
    485  OP1      -15.7180   45.1330  -10.2050 O.3    25  DA25       -0.1496
    486  OP2      -14.3890   43.4610   -8.7730 O.3    25  DA25       -0.1425
    487  O5'      -16.7090   42.9370   -9.5370 O.3    25  DA25       -0.2926
    488  C5'      -16.6840   41.7400   -8.7500 C.3    25  DA25        0.1828
    489  C4'      -16.9310   40.5330   -9.6200 C.3    25  DA25        0.1747
    490  O4'      -15.8940   40.4530  -10.6330 O.3    25  DA25       -0.3327
    491  C3'      -16.8290   39.2080   -8.8870 C.3    25  DA25        0.1558
    492  O3'      -18.0290   38.8870   -8.1940 O.3    25  DA25       -0.3138
    493  C2'      -16.4800   38.2350  -10.0050 C.3    25  DA25        0.0865
    494  C1'      -15.5460   39.0920  -10.8560 C.3    25  DA25        0.2094
    495  N9       -13.9470   39.0210  -10.5120 N.ar   25  DA25       -0.2714
    496  C8       -13.0840   39.9050   -9.9210 C.ar   25  DA25        0.1815
    497  N7       -11.8230   39.6890  -10.2130 N.ar   25  DA25       -0.2193
    498  C5       -11.8610   38.5870  -11.0520 C.ar   25  DA25        0.1518
    499  C6       -10.8500   37.8620  -11.7080 C.ar   25  DA25        0.1919
    500  N6        -9.5510   38.1560  -11.6150 N.pl3  25  DA25       -0.1054
    501  N1       -11.2250   36.8140  -12.4700 N.ar   25  DA25       -0.2040
    502  C2       -12.5280   36.5210  -12.5630 C.ar   25  DA25        0.2016
    503  N3       -13.5680   37.1270  -11.9960 N.ar   25  DA25       -0.2048
    504  C4       -13.1620   38.1630  -11.2440 C.ar   25  DA25        0.1691
    505  P        -17.9950   38.0560   -6.6730 P.3    26  DT26        0.2141
    506  OP1      -19.3290   38.2370   -6.0100 O.2    26  DT26       -0.5172
    507  OP2      -16.7920   37.7230   -5.8520 O.3    26  DT26       -0.4373
    508  O5'      -18.2130   36.9840   -7.8380 O.3    26  DT26       -0.3114
    509  C5'      -19.4450   36.9940   -8.5560 C.3    26  DT26        0.1811
    510  C4'      -19.3380   36.2650   -9.8660 C.3    26  DT26        0.1746
    511  O4'      -18.1970   36.7190  -10.6420 O.3    26  DT26       -0.3327
    512  C3'      -19.1380   34.7830   -9.7410 C.3    26  DT26        0.1558
    513  O3'      -20.3920   34.2060   -9.4360 O.3    26  DT26       -0.3138
    514  C2'      -18.5450   34.4220  -11.0980 C.3    26  DT26        0.0866
    515  C1'      -17.6650   35.6380  -11.3870 C.3    26  DT26        0.2106
    516  N1       -16.2630   35.4220  -10.9920 N.ar   26  DT26       -0.2559
    517  C2       -15.4580   34.6840  -11.8390 C.ar   26  DT26        0.3545
    518  O2       -15.8480   34.2320  -12.9000 O.2    26  DT26       -0.2443
    519  N3       -14.1710   34.4930  -11.3960 N.ar   26  DT26       -0.1533
    520  C4       -13.6220   34.9540  -10.2180 C.ar   26  DT26        0.2804
    521  O4       -12.4480   34.7010   -9.9580 O.2    26  DT26       -0.2654
    522  C5       -14.5210   35.7100   -9.3930 C.ar   26  DT26        0.0534
    523  C6       -15.7780   35.9120   -9.7990 C.ar   26  DT26        0.0824
    524  C7       -14.0170   36.2550   -8.0890 C.3    26  DT26        0.0377
    525  P        -20.4790   33.1040   -8.2560 P.3    27  DT27        0.2141
    526  OP1      -21.5190   32.3560   -7.5170 O.2    27  DT27       -0.5172
    527  OP2      -19.4450   33.8530   -7.5030 O.3    27  DT27       -0.4373
    528  O5'      -19.7290   32.1100   -9.2570 O.3    27  DT27       -0.3114
    529  C5'      -20.2730   31.8670  -10.5510 C.3    27  DT27        0.1811
    530  C4'      -19.8230   30.5290  -11.1010 C.3    27  DT27        0.1746
    531  O4'      -18.5080   30.6580  -11.7070 O.3    27  DT27       -0.3327
    532  C3'      -19.6820   29.4690  -10.0170 C.3    27  DT27        0.1558
    533  O3'      -20.4010   28.2590  -10.2510 O.3    27  DT27       -0.3138
    534  C2'      -18.1950   29.3870   -9.6870 C.3    27  DT27        0.0866
    535  C1'      -17.5630   29.9190  -10.9710 C.3    27  DT27        0.2106
    536  N1       -16.4290   30.7670  -10.8090 N.ar   27  DT27       -0.2559
    537  C2       -15.1870   30.2050  -11.0370 C.ar   27  DT27        0.3545
    538  O2       -15.0010   29.3050  -11.8360 O.2    27  DT27       -0.2443
    539  N3       -14.1630   30.7370  -10.2900 N.ar   27  DT27       -0.1533
    540  C4       -14.2550   31.7510   -9.3600 C.ar   27  DT27        0.2804
    541  O4       -13.2440   32.1230   -8.7690 O.2    27  DT27       -0.2654
    542  C5       -15.5770   32.2810   -9.1800 C.ar   27  DT27        0.0534
    543  C6       -16.5910   31.7820   -9.8920 C.ar   27  DT27        0.0824
    544  C7       -15.7800   33.3880   -8.1880 C.3    27  DT27        0.0377
    545  P        -20.7910   27.2780   -9.0200 P.3    28  DA28        0.2141
    546  OP1      -21.8280   26.2220   -9.0590 O.2    28  DA28       -0.5172
    547  OP2      -20.7770   28.3240   -7.9700 O.3    28  DA28       -0.4373
    548  O5'      -19.3550   26.5860   -8.8900 O.3    28  DA28       -0.3114
    549  C5'      -19.2250   25.2450   -9.3200 C.3    28  DA28        0.1811
    550  C4'      -17.7980   24.8500   -9.6140 C.3    28  DA28        0.1746
    551  O4'      -17.0530   25.9390  -10.2250 O.3    28  DA28       -0.3327
    552  C3'      -16.9240   24.4530   -8.4340 C.3    28  DA28        0.1558
    553  O3'      -17.2360   23.1870   -7.8770 O.3    28  DA28       -0.3138
    554  C2'      -15.5540   24.4850   -9.0950 C.3    28  DA28        0.0865
    555  C1'      -15.6740   25.7330   -9.9740 C.3    28  DA28        0.2094
    556  N9       -15.2330   27.0540   -9.2060 N.ar   28  DA28       -0.2714
    557  C8       -15.9650   28.0730   -8.6540 C.ar   28  DA28        0.1815
    558  N7       -15.2330   29.0040   -8.0900 N.ar   28  DA28       -0.2193
    559  C5       -13.9320   28.5660   -8.2840 C.ar   28  DA28        0.1518
    560  C6       -12.6870   29.1090   -7.9200 C.ar   28  DA28        0.1919
    561  N6       -12.5480   30.2600   -7.2570 N.pl3  28  DA28       -0.1054
    562  N1       -11.5780   28.4200   -8.2640 N.ar   28  DA28       -0.2040
    563  C2       -11.7190   27.2680   -8.9290 C.ar   28  DA28        0.2016
    564  N3       -12.8330   26.6570   -9.3270 N.ar   28  DA28       -0.2048
    565  C4       -13.9160   27.3660   -8.9690 C.ar   28  DA28        0.1691
    566  P        -16.6520   22.7730   -6.5540 P.3    29  DC29        0.2141
    567  OP1      -17.3680   22.2530   -5.3640 O.3    29  DC29       -0.4373
    568  OP2      -15.7510   23.9150   -6.4040 O.2    29  DC29       -0.5172
    569  O5'      -15.8050   21.5770   -7.1680 O.3    29  DC29       -0.3114
    570  C5'      -14.6970   21.0210   -6.4520 C.3    29  DC29        0.1811
    571  C4'      -13.4800   21.0140   -7.3310 C.3    29  DC29        0.1746
    572  O4'      -13.3100   22.3400   -7.8770 O.3    29  DC29       -0.3327
    573  C3'      -12.1870   20.7290   -6.5940 C.3    29  DC29        0.1558
    574  O3'      -11.9390   19.3390   -6.4950 O.3    29  DC29       -0.3138
    575  C2'      -11.1490   21.4900   -7.4110 C.3    29  DC29        0.0866
    576  C1'      -11.9440   22.7220   -7.8170 C.3    29  DC29        0.2106
    577  N1       -11.8330   23.9150   -6.8030 N.ar   29  DC29       -0.2556
    578  C2       -10.5740   24.4800   -6.5690 C.ar   29  DC29        0.3531
    579  O2        -9.5900   24.0180   -7.1710 O.2    29  DC29       -0.2443
    580  N3       -10.4650   25.5090   -5.6950 N.ar   29  DC29       -0.1739
    581  C4       -11.5490   25.9710   -5.0700 C.ar   29  DC29        0.1759
    582  N4       -11.3930   26.9870   -4.2180 N.pl3  29  DC29       -0.1070
    583  C5       -12.8340   25.4130   -5.2940 C.ar   29  DC29        0.0566
    584  C6       -12.9370   24.3960   -6.1570 C.ar   29  DC29        0.0849
    585  P        -11.2810   18.7590   -5.1850 P.3    30  DC30        0.2141
    586  OP1      -11.1530   17.2850   -5.2480 O.2    30  DC30       -0.5172
    587  OP2      -12.1490   19.3880   -4.1630 O.3    30  DC30       -0.4373
    588  O5'       -9.8510   19.4500   -4.9750 O.3    30  DC30       -0.3114
    589  C5'       -8.7620   19.1430   -5.8370 C.3    30  DC30        0.1812
    590  C4'       -7.5060   19.8960   -5.4660 C.3    30  DC30        0.1775
    591  O4'       -7.6970   21.3140   -5.7110 O.3    30  DC30       -0.3326
    592  C3'       -7.0860   19.8260   -4.0040 C.3    30  DC30        0.1864
    593  O3'       -6.3700   18.6450   -3.6730 O.3    30  DC30       -0.2133
    594  C2'       -6.2930   21.1140   -3.8000 C.3    30  DC30        0.0895
    595  C1'       -7.0110   22.0760   -4.7400 C.3    30  DC30        0.2107
    596  N1        -8.0020   22.9110   -4.0970 N.ar   30  DC30       -0.2556
    597  C2        -7.5850   24.0900   -3.4700 C.ar   30  DC30        0.3531
    598  O2        -6.4130   24.4710   -3.6330 O.2    30  DC30       -0.2443
    599  N3        -8.4660   24.7790   -2.7070 N.ar   30  DC30       -0.1739
    600  C4        -9.7140   24.3320   -2.5600 C.ar   30  DC30        0.1759
    601  N4       -10.5470   25.0440   -1.7980 N.pl3  30  DC30       -0.1070
    602  C5       -10.1570   23.1390   -3.1870 C.ar   30  DC30        0.0566
    603  C6        -9.2830   22.4620   -3.9400 C.ar   30  DC30        0.0849
    604  P         -6.5970   17.9560   -2.2510 P.3    31  DT31        0.3939
    605  OP1       -5.9040   17.2800   -3.3710 O.3    31  DT31       -0.1496
    606  OP2       -7.6220   17.2490   -1.4510 O.3    31  DT31       -0.1425
    607  O5'       -5.5180   18.4290   -1.1650 O.3    31  DT31       -0.2926
    608  C5'       -4.1660   18.6650   -1.5410 C.3    31  DT31        0.1828
    609  C4'       -3.5790   19.8840   -0.8630 C.3    31  DT31        0.1747
    610  O4'       -4.2190   21.0860   -1.3610 O.3    31  DT31       -0.3327
    611  C3'       -3.7180   19.9560    0.6550 C.3    31  DT31        0.1558
    612  O3'       -2.6700   19.2670    1.3180 O.3    31  DT31       -0.3138
    613  C2'       -3.7140   21.4540    0.9450 C.3    31  DT31        0.0866
    614  C1'       -4.2920   22.0550   -0.3380 C.3    31  DT31        0.2106
    615  N1        -5.6980   22.4910   -0.2270 N.ar   31  DT31       -0.2559
    616  C2        -5.9460   23.6590    0.4690 C.ar   31  DT31        0.3545
    617  O2        -5.0620   24.4040    0.8530 O.2    31  DT31       -0.2443
    618  N3        -7.2730   23.9260    0.7030 N.ar   31  DT31       -0.1533
    619  C4        -8.3530   23.1590    0.3190 C.ar   31  DT31        0.2804
    620  O4        -9.4900   23.5300    0.6010 O.2    31  DT31       -0.2654
    621  C5        -8.0140   21.9620   -0.3980 C.ar   31  DT31        0.0534
    622  C6        -6.7310   21.6780   -0.6390 C.ar   31  DT31        0.0824
    623  C7        -9.1200   21.0600   -0.8580 C.3    31  DT31        0.0377
    624  P         -2.9040   18.4650    2.8400 P.3    32  DT32        0.2141
    625  OP1       -1.7940   17.6860    3.4370 O.3    32  DT32       -0.4373
    626  OP2       -4.2990   17.9970    2.9920 O.2    32  DT32       -0.5172
    627  O5'       -2.9210   19.9450    3.4600 O.3    32  DT32       -0.3115
    628  C5'       -1.7580   20.7640    3.4190 C.3    32  DT32        0.1785
    629  C4'       -2.0200   22.2010    3.8220 C.3    32  DT32        0.1473
    630  O4'       -2.7560   22.9400    2.8060 O.3    32  DT32       -0.3353
    631  C3'       -2.8750   22.4030    5.0570 C.3    32  DT32        0.0368
    632  O3'       -2.2120   22.0550    6.2560 O.3    32  DT32       -0.1145
    633  C2'       -3.2600   23.8720    4.9260 C.3    32  DT32        0.0566
    634  C1'       -3.5560   23.9340    3.4280 C.3    32  DT32        0.2081
    635  N1        -5.1650   23.5310    3.3700 N.ar   32  DT32       -0.2559
    636  C2        -5.9890   24.6370    3.4580 C.ar   32  DT32        0.3545
    637  O2        -5.5690   25.7640    3.6520 O.2    32  DT32       -0.2443
    638  N3        -7.3300   24.3760    3.3120 N.ar   32  DT32       -0.1533
    639  C4        -7.9170   23.1470    3.0910 C.ar   32  DT32        0.2804
    640  O4        -9.1380   23.0710    2.9800 O.2    32  DT32       -0.2654
    641  C5        -6.9960   22.0490    3.0130 C.ar   32  DT32        0.0534
    642  C6        -5.6860   22.2740    3.1520 C.ar   32  DT32        0.0824
    643  C7        -7.5380   20.6710    2.7760 C.3    32  DT32        0.0377
    644  P         -2.6590   21.1070    6.6700 P.3    33  DA33        0.5327
    645  OP1       -1.2530   21.5370    6.8340 O.3    33  DA33       -0.1145
    646  OP2       -3.0200   19.6700    6.6680 O.2    33  DA33       -0.2224
    647  O5'       -3.4620   21.7010    7.9210 O.3    33  DA33       -0.2675
    648  C5'       -3.1500   23.0000    8.4160 C.3    33  DA33        0.1857
    649  C4'       -4.1450   23.4800    9.4480 C.3    33  DA33        0.1748
    650  O4'       -5.2670   24.1250    8.7780 O.3    33  DA33       -0.3327
    651  C3'       -4.7240   22.3810   10.3440 C.3    33  DA33        0.1558
    652  O3'       -4.6530   22.7070   11.7310 O.3    33  DA33       -0.3138
    653  C2'       -6.1870   22.2790    9.9250 C.3    33  DA33        0.0865
    654  C1'       -6.4910   23.6240    9.2780 C.3    33  DA33        0.2094
    655  N9        -7.3160   23.3260    8.2410 N.ar   33  DA33       -0.2714
    656  C8        -7.0090   22.3860    7.2920 C.ar   33  DA33        0.1815
    657  N7        -8.0500   21.9520    6.6210 N.ar   33  DA33       -0.2193
    658  C5        -9.1130   22.6540    7.1670 C.ar   33  DA33        0.1518
    659  C6       -10.4920   22.6490    6.8900 C.ar   33  DA33        0.1919
    660  N6       -11.0550   21.8830    5.9540 N.pl3  33  DA33       -0.1054
    661  N1       -11.2790   23.4690    7.6190 N.ar   33  DA33       -0.2040
    662  C2       -10.7130   24.2370    8.5560 C.ar   33  DA33        0.2016
    663  N3        -9.4330   24.3300    8.9070 N.ar   33  DA33       -0.2048
    664  C4        -8.6770   23.5030    8.1660 C.ar   33  DA33        0.1691
    665  P         -4.5120   21.3960   12.8030 P.3    34  DT34        0.2141
    666  OP1       -3.7390   21.4320   14.0740 O.3    34  DT34       -0.4373
    667  OP2       -4.4190   20.2070   11.9170 O.2    34  DT34       -0.5172
    668  O5'       -6.0340   21.6370   13.1710 O.3    34  DT34       -0.3114
    669  C5'       -6.3920   22.6150   14.1330 C.3    34  DT34        0.1811
    670  C4'       -7.8080   22.3920   14.5600 C.3    34  DT34        0.1746
    671  O4'       -8.6820   22.6730   13.4390 O.3    34  DT34       -0.3327
    672  C3'       -8.1070   20.9470   14.8950 C.3    34  DT34        0.1558
    673  O3'       -7.7280   20.6380   16.2280 O.3    34  DT34       -0.3138
    674  C2'       -9.6100   20.8770   14.6790 C.3    34  DT34        0.0866
    675  C1'       -9.7740   21.7770   13.4550 C.3    34  DT34        0.2106
    676  N1        -9.7730   21.0920   12.1730 N.ar   34  DT34       -0.2559
    677  C2       -10.9580   20.5200   11.7520 C.ar   34  DT34        0.3545
    678  O2       -12.0000   20.6150   12.3770 O.2    34  DT34       -0.2443
    679  N3       -10.8810   19.8260   10.5690 N.ar   34  DT34       -0.1533
    680  C4        -9.7620   19.6520    9.7810 C.ar   34  DT34        0.2804
    681  O4        -9.8490   19.0030    8.7420 O.2    34  DT34       -0.2654
    682  C5        -8.5710   20.2750   10.2850 C.ar   34  DT34        0.0534
    683  C6        -8.6180   20.9560   11.4340 C.ar   34  DT34        0.0824
    684  C7        -7.3000   20.1420    9.4990 C.3    34  DT34        0.0377
    685  P         -7.3610   19.0120   16.6920 P.3    35  DA35        0.2141
    686  OP1       -7.0180   19.0530   18.1310 O.3    35  DA35       -0.4373
    687  OP2       -6.5110   18.2300   15.7690 O.2    35  DA35       -0.5172
    688  O5'       -8.8590   18.5060   16.5320 O.3    35  DA35       -0.3114
    689  C5'       -9.8750   18.8850   17.4740 C.3    35  DA35        0.1811
    690  C4'      -11.1150   18.0530   17.2570 C.3    35  DA35        0.1746
    691  O4'      -11.6650   18.3460   15.9440 O.3    35  DA35       -0.3327
    692  C3'      -10.8730   16.5550   17.2240 C.3    35  DA35        0.1558
    693  O3'      -10.7850   16.0020   18.5250 O.3    35  DA35       -0.3138
    694  C2'      -12.0700   16.0600   16.4280 C.3    35  DA35        0.0865
    695  C1'      -12.1820   17.1540   15.3670 C.3    35  DA35        0.2094
    696  N9       -11.3830   16.8230   14.1940 N.ar   35  DA35       -0.2714
    697  C8       -10.1310   17.2500   13.8370 C.ar   35  DA35        0.1815
    698  N7        -9.7170   16.7710   12.6870 N.ar   35  DA35       -0.2193
    699  C5       -10.7680   15.9760   12.2610 C.ar   35  DA35        0.1518
    700  C6       -10.9540   15.1900   11.1100 C.ar   35  DA35        0.1919
    701  N6       -10.0450   15.0740   10.1390 N.pl3  35  DA35       -0.1054
    702  N1       -12.1200   14.5190   10.9910 N.ar   35  DA35       -0.2040
    703  C2       -13.0300   14.6360   11.9640 C.ar   35  DA35        0.2016
    704  N3       -12.9710   15.3430   13.0900 N.ar   35  DA35       -0.2048
    705  C4       -11.8010   15.9970   13.1790 C.ar   35  DA35        0.1691
    706  P         -9.9210   14.8390   18.7350 P.3    36  DC36        0.2141
    707  OP1       -9.5610   15.1160   20.1450 O.3    36  DC36       -0.4373
    708  OP2       -8.9820   15.1900   17.6430 O.2    36  DC36       -0.5172
    709  O5'      -10.2280   13.2810   18.5140 O.3    36  DC36       -0.3114
    710  C5'      -11.3800   12.7160   19.1290 C.3    36  DC36        0.1811
    711  C4'      -12.2070   11.8800   18.1790 C.3    36  DC36        0.1746
    712  O4'      -12.5340   12.6360   16.9840 O.3    36  DC36       -0.3327
    713  C3'      -11.5460   10.6250   17.6340 C.3    36  DC36        0.1558
    714  O3'      -11.5310    9.5510   18.5590 O.3    36  DC36       -0.3138
    715  C2'      -12.3680   10.3490   16.3810 C.3    36  DC36        0.0866
    716  C1'      -12.6080   11.7700   15.8700 C.3    36  DC36        0.2106
    717  N1       -11.7260   12.0970   14.8200 N.ar   36  DC36       -0.2556
    718  C2       -11.8170   11.4990   13.5580 C.ar   36  DC36        0.3531
    719  O2       -12.7430   10.6980   13.3410 O.2    36  DC36       -0.2443
    720  N3       -10.8970   11.8080   12.6130 N.ar   36  DC36       -0.1739
    721  C4        -9.9200   12.6720   12.8910 C.ar   36  DC36        0.1759
    722  N4        -9.0350   12.9450   11.9300 N.pl3  36  DC36       -0.1070
    723  C5        -9.8100   13.2890   14.1640 C.ar   36  DC36        0.0566
    724  C6       -10.7210   12.9810   15.0930 C.ar   36  DC36        0.0849
    725  P        -10.4430    8.4080   18.3770 P.3    37  DC37        0.2141
    726  OP1      -10.3060    7.5590   19.5730 O.3    37  DC37       -0.4373
    727  OP2       -9.2970    8.5980   17.4580 O.2    37  DC37       -0.5172
    728  O5'      -11.6650    7.8930   17.4790 O.3    37  DC37       -0.3114
    729  C5'      -12.6050    7.0190   18.0640 C.3    37  DC37        0.1811
    730  C4'      -13.8120    6.7310   17.1770 C.3    37  DC37        0.1746
    731  O4'      -14.2400    7.9120   16.4410 O.3    37  DC37       -0.3327
    732  C3'      -13.5550    5.6970   16.0890 C.3    37  DC37        0.1558
    733  O3'      -13.5550    4.3790   16.6100 O.3    37  DC37       -0.3138
    734  C2'      -14.7290    5.9760   15.1690 C.3    37  DC37        0.0866
    735  C1'      -14.7440    7.5020   15.1760 C.3    37  DC37        0.2106
    736  N1       -13.8090    8.0690   13.9780 N.ar   37  DC37       -0.2556
    737  C2       -14.3650    8.0730   12.6940 C.ar   37  DC37        0.3531
    738  O2       -15.5400    7.6930   12.5500 O.2    37  DC37       -0.2443
    739  N3       -13.6100    8.4890   11.6500 N.ar   37  DC37       -0.1739
    740  C4       -12.3530    8.8870   11.8520 C.ar   37  DC37        0.1759
    741  N4       -11.6470    9.2890   10.7920 N.pl3  37  DC37       -0.1070
    742  C5       -11.7710    8.8900   13.1450 C.ar   37  DC37        0.0566
    743  C6       -12.5200    8.4790   14.1740 C.ar   37  DC37        0.0849
    744  P        -12.6760    3.3030   15.8490 P.3    38  DA38        0.2141
    745  OP1      -13.1050    2.0910   16.5890 O.3    38  DA38       -0.4373
    746  OP2      -11.2300    3.5260   15.5730 O.2    38  DA38       -0.5172
    747  O5'      -13.4650    3.3400   14.4590 O.3    38  DA38       -0.3114
    748  C5'      -14.7180    2.7020   14.2910 C.3    38  DA38        0.1811
    749  C4'      -15.0850    2.7080   12.8170 C.3    38  DA38        0.1746
    750  O4'      -15.1480    4.0680   12.3120 O.3    38  DA38       -0.3327
    751  C3'      -14.0640    2.0470   11.9090 C.3    38  DA38        0.1558
    752  O3'      -14.3240    0.6780   11.8410 O.3    38  DA38       -0.3138
    753  C2'      -14.3400    2.7330   10.5790 C.3    38  DA38        0.0865
    754  C1'      -14.5480    4.1640   11.0340 C.3    38  DA38        0.2094
    755  N9       -13.3290    5.0430   10.9970 N.ar   38  DA38       -0.2714
    756  C8       -12.5360    5.5090   12.0130 C.ar   38  DA38        0.1815
    757  N7       -11.5420    6.2620   11.6050 N.ar   38  DA38       -0.2193
    758  C5       -11.6920    6.2920   10.2280 C.ar   38  DA38        0.1518
    759  C6       -10.9560    6.9220    9.2100 C.ar   38  DA38        0.1919
    760  N6        -9.8770    7.6750    9.4360 N.pl3  38  DA38       -0.1054
    761  N1       -11.3720    6.7490    7.9370 N.ar   38  DA38       -0.2040
    762  C2       -12.4540    5.9960    7.7120 C.ar   38  DA38        0.2016
    763  N3       -13.2280    5.3540    8.5840 N.ar   38  DA38       -0.2048
    764  C4       -12.7880    5.5450    9.8390 C.ar   38  DA38        0.1691
    765  P        -13.0610   -0.3830   11.5960 P.3    39  DG39        0.2141
    766  OP1      -13.5200   -1.7900   11.8050 O.3    39  DG39       -0.4373
    767  OP2      -11.6100   -0.0680   11.5280 O.2    39  DG39       -0.5172
    768  O5'      -13.7100    0.1790   10.2660 O.3    39  DG39       -0.3114
    769  C5'      -14.1010   -0.6850    9.2370 C.3    39  DG39        0.1811
    770  C4'      -13.8940   -0.0130    7.9210 C.3    39  DG39        0.1746
    771  O4'      -13.8270    1.4140    8.1330 O.3    39  DG39       -0.3327
    772  C3'      -12.5670   -0.2520    7.2660 C.3    39  DG39        0.1558
    773  O3'      -12.5360   -1.5160    6.7130 O.3    39  DG39       -0.3138
    774  C2'      -12.4880    0.8850    6.2790 C.3    39  DG39        0.0865
    775  C1'      -13.0040    2.0120    7.1450 C.3    39  DG39        0.2094
    776  N9       -11.7150    2.5070    7.7220 N.ar   39  DG39       -0.2713
    777  C8       -11.3740    2.3970    9.0480 C.ar   39  DG39        0.1816
    778  N7       -10.2640    3.0160    9.3480 N.ar   39  DG39       -0.2173
    779  C5        -9.8470    3.5700    8.1520 C.ar   39  DG39        0.1748
    780  C6        -8.7050    4.3550    7.8470 C.ar   39  DG39        0.3023
    781  O6        -7.8060    4.7280    8.6110 O.2    39  DG39       -0.2633
    782  N1        -8.6620    4.7110    6.5020 N.ar   39  DG39       -0.1709
    783  C2        -9.6030    4.3540    5.5660 C.ar   39  DG39        0.2606
    784  N2        -9.3910    4.7930    4.3180 N.pl3  39  DG39       -0.0859
    785  N3       -10.6680    3.6250    5.8340 N.ar   39  DG39       -0.1918
    786  C4       -10.7300    3.2670    7.1340 C.ar   39  DG39        0.1722
    787  P        -11.3170   -2.3330    6.8570 P.3    40  DC40        0.2141
    788  OP1      -11.8310   -3.6450    6.3760 O.2    40  DC40       -0.5172
    789  OP2      -10.4460   -2.2820    8.0650 O.3    40  DC40       -0.4373
    790  O5'      -10.5470   -1.6160    5.6550 O.3    40  DC40       -0.3114
    791  C5'      -10.9700   -1.7880    4.3020 C.3    40  DC40        0.1811
    792  C4'      -10.0810   -1.0050    3.3580 C.3    40  DC40        0.1746
    793  O4'      -10.0960    0.3970    3.7460 O.3    40  DC40       -0.3327
    794  C3'       -8.5970   -1.3510    3.3420 C.3    40  DC40        0.1558
    795  O3'       -8.3060   -2.4820    2.5250 O.3    40  DC40       -0.3138
    796  C2'       -7.9980   -0.0810    2.7520 C.3    40  DC40        0.0866
    797  C1'       -8.8380    0.9880    3.4480 C.3    40  DC40        0.2106
    798  N1        -8.2150    1.4280    4.7240 N.ar   40  DC40       -0.2556
    799  C2        -7.3280    2.5090    4.6690 C.ar   40  DC40        0.3531
    800  O2        -7.1460    3.0770    3.5790 O.2    40  DC40       -0.2443
    801  N3        -6.6950    2.9010    5.8000 N.ar   40  DC40       -0.1739
    802  C4        -6.9210    2.2600    6.9480 C.ar   40  DC40        0.1759
    803  N4        -6.2740    2.6830    8.0370 N.pl3  40  DC40       -0.1070
    804  C5        -7.8160    1.1630    7.0250 C.ar   40  DC40        0.0566
    805  C6        -8.4390    0.7780    5.9050 C.ar   40  DC40        0.0849
    806  P         -6.8200   -3.2920    2.6990 P.3    41  DT41        0.2141
    807  OP1       -6.7430   -4.3750    1.6810 O.2    41  DT41       -0.5172
    808  OP2       -6.5970   -3.6160    4.1310 O.3    41  DT41       -0.4373
    809  O5'       -5.8290   -2.1090    2.2840 O.3    41  DT41       -0.3114
    810  C5'       -5.8260   -1.5940    0.9500 C.3    41  DT41        0.1811
    811  C4'       -4.5750   -0.7790    0.6880 C.3    41  DT41        0.1746
    812  O4'       -4.6950    0.5510    1.2520 O.3    41  DT41       -0.3327
    813  C3'       -3.2940   -1.3230    1.2890 C.3    41  DT41        0.1558
    814  O3'       -2.7260   -2.3630    0.5270 O.3    41  DT41       -0.3138
    815  C2'       -2.4060   -0.0920    1.3750 C.3    41  DT41        0.0866
    816  C1'       -3.4270    0.9880    1.7210 C.3    41  DT41        0.2106
    817  N1        -3.4770    1.2010    3.2660 N.ar   41  DT41       -0.2559
    818  C2        -2.6210    2.1650    3.7650 C.ar   41  DT41        0.3545
    819  O2        -1.9010    2.8450    3.0560 O.2    41  DT41       -0.2443
    820  N3        -2.6380    2.3040    5.1320 N.ar   41  DT41       -0.1533
    821  C4        -3.4060    1.5920    6.0290 C.ar   41  DT41        0.2804
    822  O4        -3.3110    1.8320    7.2310 O.2    41  DT41       -0.2654
    823  C5        -4.2670    0.6100    5.4340 C.ar   41  DT41        0.0534
    824  C6        -4.2720    0.4540    4.1070 C.ar   41  DT41        0.0824
    825  C7        -5.1430   -0.2170    6.3280 C.3    41  DT41        0.0377
    826  P         -2.0190   -3.4980    1.2570 P.3    42  DT42        0.2141
    827  OP1       -1.7280   -4.5760    0.2810 O.2    42  DT42       -0.5172
    828  OP2       -2.8540   -3.7840    2.4460 O.3    42  DT42       -0.4373
    829  O5'       -0.6230   -2.8660    1.7470 O.3    42  DT42       -0.3114
    830  C5'        0.3970   -2.6270    0.7890 C.3    42  DT42        0.1811
    831  C4'        1.5190   -1.7370    1.3120 C.3    42  DT42        0.1746
    832  O4'        1.0040   -0.5230    1.9010 O.3    42  DT42       -0.3327
    833  C3'        2.2980   -2.4390    2.3750 C.3    42  DT42        0.1558
    834  O3'        3.3840   -3.1690    1.8500 O.3    42  DT42       -0.3138
    835  C2'        2.7440   -1.3880    3.2970 C.3    42  DT42        0.0866
    836  C1'        1.7650   -0.2420    3.1090 C.3    42  DT42        0.2106
    837  N1         0.9470   -0.1600    4.2810 N.ar   42  DT42       -0.2559
    838  C2         1.4060    0.5620    5.3670 C.ar   42  DT42        0.3545
    839  O2         2.4770    1.1410    5.3740 O.2    42  DT42       -0.2443
    840  N3         0.5620    0.5800    6.4510 N.ar   42  DT42       -0.1533
    841  C4        -0.6670   -0.0370    6.5560 C.ar   42  DT42        0.2804
    842  O4        -1.3120    0.0710    7.5960 O.2    42  DT42       -0.2654
    843  C5        -1.0730   -0.7670    5.3880 C.ar   42  DT42        0.0534
    844  C6        -0.2720   -0.8020    4.3200 C.ar   42  DT42        0.0824
    845  C7        -2.3960   -1.4740    5.4040 C.3    42  DT42        0.0377
    846  P          3.8430   -4.3020    2.6410 P.3    43  DA43        0.2141
    847  OP1        4.4140   -4.8420    1.3910 O.2    43  DA43       -0.5172
    848  OP2        3.0430   -5.1680    3.5380 O.3    43  DA43       -0.4373
    849  O5'        5.0360   -3.7910    3.5740 O.3    43  DA43       -0.3114
    850  C5'        6.0270   -2.9080    3.0830 C.3    43  DA43        0.1811
    851  C4'        6.7410   -2.2650    4.2340 C.3    43  DA43        0.1746
    852  O4'        5.7720   -1.9610    5.2610 O.3    43  DA43       -0.3327
    853  C3'        7.7300   -3.1560    4.9500 C.3    43  DA43        0.1558
    854  O3'        8.9590   -3.2660    4.2610 O.3    43  DA43       -0.3138
    855  C2'        7.8160   -2.4980    6.3210 C.3    43  DA43        0.0865
    856  C1'        6.3480   -2.1400    6.5370 C.3    43  DA43        0.2094
    857  N9         5.6390   -3.1840    7.2640 N.ar   43  DA43       -0.2714
    858  C8         4.5860   -3.8920    6.7480 C.ar   43  DA43        0.1815
    859  N7         4.0160   -4.6990    7.6120 N.ar   43  DA43       -0.2193
    860  C5         4.7460   -4.5070    8.7750 C.ar   43  DA43        0.1518
    861  C6         4.6430   -5.0690   10.0600 C.ar   43  DA43        0.1919
    862  N6         3.7240   -5.9770   10.3980 N.pl3  43  DA43       -0.1054
    863  N1         5.5270   -4.6620   10.9950 N.ar   43  DA43       -0.2040
    864  C2         6.4470   -3.7520   10.6550 C.ar   43  DA43        0.2016
    865  N3         6.6430   -3.1510    9.4830 N.ar   43  DA43       -0.2048
    866  C4         5.7490   -3.5780    8.5760 C.ar   43  DA43        0.1691
    867  P          9.1760   -4.5470    3.6720 P.3    44  DT44        0.2141
    868  OP1        9.9360   -4.6500    2.4060 O.2    44  DT44       -0.5172
    869  OP2        7.7550   -4.9680    3.7020 O.3    44  DT44       -0.4373
    870  O5'        9.8950   -5.3900    4.8360 O.3    44  DT44       -0.3114
    871  C5'       11.0760   -4.8850    5.4480 C.3    44  DT44        0.1811
    872  C4'       11.3600   -5.4920    6.8060 C.3    44  DT44        0.1746
    873  O4'       10.4230   -5.0140    7.8090 O.3    44  DT44       -0.3327
    874  C3'       11.2440   -7.0020    6.9130 C.3    44  DT44        0.1558
    875  O3'       12.3460   -7.6910    6.3560 O.3    44  DT44       -0.3138
    876  C2'       11.0680   -7.2080    8.4120 C.3    44  DT44        0.0866
    877  C1'       10.1450   -6.0420    8.7400 C.3    44  DT44        0.2106
    878  N1         8.7500   -6.6480    8.5030 N.ar   44  DT44       -0.2559
    879  C2         8.1830   -7.6000    9.3290 C.ar   44  DT44        0.3545
    880  O2         8.8240   -8.2340   10.1490 O.2    44  DT44       -0.2443
    881  N3         6.8320   -7.7850    9.1620 N.ar   44  DT44       -0.1533
    882  C4         6.0090   -7.1290    8.2700 C.ar   44  DT44        0.2804
    883  O4         4.8120   -7.4040    8.2360 O.2    44  DT44       -0.2654
    884  C5         6.6720   -6.1570    7.4470 C.ar   44  DT44        0.0534
    885  C6         7.9850   -5.9570    7.5890 C.ar   44  DT44        0.0824
    886  C7         5.8620   -5.3900    6.4440 C.3    44  DT44        0.0377
    887  P         11.9720   -8.4990    5.2920 P.3    45  DT45        0.2141
    888  OP1       12.8150   -8.1550    4.1230 O.2    45  DT45       -0.5172
    889  OP2       10.6130   -9.0540    5.0980 O.3    45  DT45       -0.4373
    890  O5'       12.7220   -9.5880    6.1990 O.3    45  DT45       -0.3114
    891  C5'       12.4430  -10.9770    6.0880 C.3    45  DT45        0.1811
    892  C4'       12.2170  -11.5960    7.4470 C.3    45  DT45        0.1746
    893  O4'       11.3320  -10.7390    8.2170 O.3    45  DT45       -0.3327
    894  C3'       11.5150  -12.9460    7.4640 C.3    45  DT45        0.1558
    895  O3'       12.3590  -14.0510    7.1880 O.3    45  DT45       -0.3138
    896  C2'       10.9040  -12.9630    8.8600 C.3    45  DT45        0.0866
    897  C1'       10.4140  -11.5210    8.9520 C.3    45  DT45        0.2106
    898  N1         8.8980  -11.3130    8.1650 N.ar   45  DT45       -0.2559
    899  C2         7.7730  -11.7870    8.8140 C.ar   45  DT45        0.3545
    900  O2         7.8260  -12.5280    9.7790 O.2    45  DT45       -0.2443
    901  N3         6.5770  -11.3620    8.2870 N.ar   45  DT45       -0.1533
    902  C4         6.3970  -10.5300    7.2030 C.ar   45  DT45        0.2804
    903  O4         5.2580  -10.2360    6.8480 O.2    45  DT45       -0.2654
    904  C5         7.6120  -10.0810    6.5830 C.ar   45  DT45        0.0534
    905  C6         8.7890  -10.4790    7.0740 C.ar   45  DT45        0.0824
    906  C7         7.5210   -9.1710    5.3940 C.3    45  DT45        0.0377
    907  P         11.7370  -15.3700    6.3900 P.3    46  DC46        0.2141
    908  OP1       12.2370  -16.7750    6.3600 O.3    46  DC46       -0.4373
    909  OP2       11.0380  -14.8300    5.2070 O.2    46  DC46       -0.5172
    910  O5'       10.7930  -15.2000    7.6620 O.3    46  DC46       -0.3114
    911  C5'       11.0330  -15.9300    8.8840 C.3    46  DC46        0.1811
    912  C4'        9.7760  -16.6650    9.3050 C.3    46  DC46        0.1746
    913  O4'        8.7180  -15.7100    9.5710 O.3    46  DC46       -0.3327
    914  C3'        9.2040  -17.6020    8.2550 C.3    46  DC46        0.1558
    915  O3'        9.8430  -18.8680    8.4040 O.3    46  DC46       -0.3138
    916  C2'        7.7210  -17.6530    8.6150 C.3    46  DC46        0.0866
    917  C1'        7.4750  -16.2400    9.1480 C.3    46  DC46        0.2106
    918  N1         6.8660  -15.3920    8.1930 N.ar   46  DC46       -0.2556
    919  C2         5.4690  -15.4120    8.1100 C.ar   46  DC46        0.3531
    920  O2         4.8240  -15.9690    9.0150 O.2    46  DC46       -0.2443
    921  N3         4.8620  -14.8250    7.0510 N.ar   46  DC46       -0.1739
    922  C4         5.5950  -14.2390    6.1030 C.ar   46  DC46        0.1759
    923  N4         4.9540  -13.6750    5.0770 N.pl3  46  DC46       -0.1070
    924  C5         7.0120  -14.2080    6.1680 C.ar   46  DC46        0.0566
    925  C6         7.6070  -14.7880    7.2160 C.ar   46  DC46        0.0849
    926  P         10.0960  -19.8150    7.1610 P.3    47  DA47        0.2141
    927  OP1       10.9000  -20.9340    7.7630 O.3    47  DA47       -0.4373
    928  OP2       10.4700  -19.4400    5.7710 O.2    47  DA47       -0.5172
    929  O5'        8.5470  -20.0510    7.3270 O.3    47  DA47       -0.3114
    930  C5'        8.1800  -20.7200    8.5710 C.3    47  DA47        0.1811
    931  C4'        6.6980  -20.9660    8.3800 C.3    47  DA47        0.1746
    932  O4'        5.9830  -19.7650    8.4140 O.3    47  DA47       -0.3327
    933  C3'        6.3470  -21.5490    7.0160 C.3    47  DA47        0.1558
    934  O3'        6.6610  -22.9200    6.9130 O.3    47  DA47       -0.3138
    935  C2'        4.8390  -21.2460    7.0030 C.3    47  DA47        0.0865
    936  C1'        4.8000  -19.8380    7.5730 C.3    47  DA47        0.2094
    937  N9         4.9070  -18.8340    6.4460 N.ar   47  DA47       -0.2714
    938  C8         6.0440  -18.3210    5.8780 C.ar   47  DA47        0.1815
    939  N7         5.8130  -17.5050    4.8760 N.ar   47  DA47       -0.2193
    940  C5         4.4310  -17.4820    4.7790 C.ar   47  DA47        0.1518
    941  C6         3.5550  -16.8050    3.9130 C.ar   47  DA47        0.1919
    942  N6         3.9630  -15.9850    2.9410 N.pl3  47  DA47       -0.1054
    943  N1         2.2300  -17.0010    4.0830 N.ar   47  DA47       -0.2040
    944  C2         1.8220  -17.8210    5.0580 C.ar   47  DA47        0.2016
    945  N3         2.5480  -18.5120    5.9340 N.ar   47  DA47       -0.2048
    946  C4         3.8590  -18.2970    5.7380 C.ar   47  DA47        0.1691
    947  P          6.4950  -24.0220    5.5920 P.3    48  DA48        0.2141
    948  OP1        6.9480  -25.4320    5.5680 O.3    48  DA48       -0.4373
    949  OP2        7.2460  -22.9710    4.8680 O.2    48  DA48       -0.5172
    950  O5'        5.0410  -23.9500    4.9480 O.3    48  DA48       -0.3114
    951  C5'        3.9370  -24.4100    5.7040 C.3    48  DA48        0.1811
    952  C4'        2.6520  -23.8630    5.1470 C.3    48  DA48        0.1746
    953  O4'        2.6210  -22.4240    5.3140 O.3    48  DA48       -0.3327
    954  C3'        2.4340  -24.0450    3.6560 C.3    48  DA48        0.1558
    955  O3'        2.0050  -25.3470    3.3150 O.3    48  DA48       -0.3138
    956  C2'        1.3720  -22.9980    3.3910 C.3    48  DA48        0.0865
    957  C1'        1.8650  -21.8510    4.2720 C.3    48  DA48        0.2094
    958  N9         2.6520  -20.9030    3.5330 N.ar   48  DA48       -0.2714
    959  C8         4.0120  -20.7600    3.6160 C.ar   48  DA48        0.1815
    960  N7         4.4890  -19.7940    2.8670 N.ar   48  DA48       -0.2193
    961  C5         3.3660  -19.2670    2.2490 C.ar   48  DA48        0.1518
    962  C6         3.1960  -18.2160    1.3310 C.ar   48  DA48        0.1919
    963  N6         4.2030  -17.4780    0.8580 N.pl3  48  DA48       -0.1054
    964  N1         1.9410  -17.9470    0.9120 N.ar   48  DA48       -0.2040
    965  C2         0.9330  -18.6870    1.3870 C.ar   48  DA48        0.2016
    966  N3         0.9670  -19.6980    2.2520 N.ar   48  DA48       -0.2048
    967  C4         2.2270  -19.9410    2.6490 C.ar   48  DA48        0.1691
    968  P          2.1730  -25.9560    1.7790 P.3    49  DT49        0.2141
    969  OP1        1.7850  -26.9860    2.7810 O.3    49  DT49       -0.4373
    970  OP2        3.4800  -25.9970    1.0810 O.2    49  DT49       -0.5172
    971  O5'        1.0470  -25.8710    0.6490 O.3    49  DT49       -0.3114
    972  C5'       -0.3330  -25.8330    0.9680 C.3    49  DT49        0.1811
    973  C4'       -1.0050  -24.7570    0.1370 C.3    49  DT49        0.1746
    974  O4'       -0.5220  -23.4640    0.5480 O.3    49  DT49       -0.3327
    975  C3'       -0.6800  -24.7210   -1.3370 C.3    49  DT49        0.1558
    976  O3'       -1.3550  -25.7700   -1.9850 O.3    49  DT49       -0.3138
    977  C2'       -1.2730  -23.3550   -1.6610 C.3    49  DT49        0.0866
    978  C1'       -0.7620  -22.5410   -0.4850 C.3    49  DT49        0.2106
    979  N1         0.5200  -21.9230   -0.7600 N.ar   49  DT49       -0.2559
    980  C2         0.6010  -20.7700   -1.5170 C.ar   49  DT49        0.3545
    981  O2        -0.3680  -20.2500   -2.0410 O.2    49  DT49       -0.2443
    982  N3         1.8640  -20.2440   -1.6410 N.ar   49  DT49       -0.1533
    983  C4         3.0280  -20.7450   -1.0960 C.ar   49  DT49        0.2804
    984  O4         4.0900  -20.1600   -1.2950 O.2    49  DT49       -0.2654
    985  C5         2.8620  -21.9440   -0.3250 C.ar   49  DT49        0.0534
    986  C6         1.6440  -22.4770   -0.1880 C.ar   49  DT49        0.0824
    987  C7         4.0710  -22.5670    0.3090 C.3    49  DT49        0.0377
    988  P         -0.8850  -26.2590   -3.2650 P.3    50  DT50        0.2141
    989  OP1       -1.2500  -27.5620   -3.8620 O.2    50  DT50       -0.5172
    990  OP2        0.4600  -26.0500   -2.6850 O.3    50  DT50       -0.4373
    991  O5'       -1.0180  -25.1110   -4.3710 O.3    50  DT50       -0.3114
    992  C5'       -2.2980  -24.8020   -4.8960 C.3    50  DT50        0.1811
    993  C4'       -2.2430  -23.6230   -5.8310 C.3    50  DT50        0.1746
    994  O4'       -2.0030  -22.3950   -5.0920 O.3    50  DT50       -0.3327
    995  C3'       -1.1140  -23.6410   -6.8460 C.3    50  DT50        0.1558
    996  O3'       -1.3340  -24.5330   -7.9230 O.3    50  DT50       -0.3138
    997  C2'       -1.0490  -22.1750   -7.2490 C.3    50  DT50        0.0866
    998  C1'       -1.2500  -21.5050   -5.8910 C.3    50  DT50        0.2106
    999  N1         0.0600  -21.1970   -5.2460 N.ar   50  DT50       -0.2559
   1000  C2         0.7190  -20.0330   -5.5950 C.ar   50  DT50        0.3545
   1001  O2         0.2750  -19.2340   -6.4000 O.2    50  DT50       -0.2443
   1002  N3         1.9240  -19.8360   -4.9640 N.ar   50  DT50       -0.1533
   1003  C4         2.5230  -20.6670   -4.0410 C.ar   50  DT50        0.2804
   1004  O4         3.6090  -20.3540   -3.5600 O.2    50  DT50       -0.2654
   1005  C5         1.7780  -21.8550   -3.7320 C.ar   50  DT50        0.0534
   1006  C6         0.6030  -22.0720   -4.3310 C.ar   50  DT50        0.0824
   1007  C7         2.3470  -22.8240   -2.7380 C.3    50  DT50        0.0377
   1008  P         -0.0230  -25.4840   -8.5290 P.3    51  DA51        0.2141
   1009  OP1       -0.6910  -26.6200   -9.2030 O.2    51  DA51       -0.5172
   1010  OP2        1.0870  -25.7200   -7.5750 O.3    51  DA51       -0.4373
   1011  O5'        0.4940  -24.4640   -9.6460 O.3    51  DA51       -0.3114
   1012  C5'       -0.4310  -23.9200  -10.5780 C.3    51  DA51        0.1811
   1013  C4'        0.2290  -22.8270  -11.4020 C.3    51  DA51        0.1746
   1014  O4'        0.4690  -21.6720  -10.5580 O.3    51  DA51       -0.3327
   1015  C3'        1.6050  -23.1560  -11.9690 C.3    51  DA51        0.1558
   1016  O3'        1.5110  -23.8930  -13.1750 O.3    51  DA51       -0.3138
   1017  C2'        2.1510  -21.7580  -12.2290 C.3    51  DA51        0.0865
   1018  C1'        1.6420  -21.0140  -10.9950 C.3    51  DA51        0.2094
   1019  N9         2.5860  -21.0350   -9.8820 N.ar   51  DA51       -0.2714
   1020  C8         2.6280  -21.9450   -8.8570 C.ar   51  DA51        0.1815
   1021  N7         3.5790  -21.7120   -7.9830 N.ar   51  DA51       -0.2193
   1022  C5         4.2030  -20.5740   -8.4670 C.ar   51  DA51        0.1518
   1023  C6         5.2900  -19.8180   -7.9930 C.ar   51  DA51        0.1919
   1024  N6         5.9650  -20.1100   -6.8790 N.pl3  51  DA51       -0.1054
   1025  N1         5.6630  -18.7380   -8.7130 N.ar   51  DA51       -0.2040
   1026  C2         4.9860  -18.4460   -9.8300 C.ar   51  DA51        0.2016
   1027  N3         3.9500  -19.0780  -10.3740 N.ar   51  DA51       -0.2048
   1028  C4         3.6040  -20.1460   -9.6360 C.ar   51  DA51        0.1691
   1029  P          2.7570  -24.7900  -13.6390 P.3    52  DC52        0.2141
   1030  OP1        2.2270  -25.9280  -14.4420 O.2    52  DC52       -0.5172
   1031  OP2        3.3580  -25.0590  -12.2950 O.3    52  DC52       -0.4373
   1032  O5'        3.7920  -24.0270  -14.5960 O.3    52  DC52       -0.3114
   1033  C5'        3.5250  -23.9230  -15.9930 C.3    52  DC52        0.1811
   1034  C4'        4.5210  -23.0150  -16.6610 C.3    52  DC52        0.1746
   1035  O4'        4.4570  -21.7020  -16.0510 O.3    52  DC52       -0.3327
   1036  C3'        5.9920  -23.3820  -16.5390 C.3    52  DC52        0.1558
   1037  O3'        6.4190  -24.3620  -17.4830 O.3    52  DC52       -0.3138
   1038  C2'        6.6890  -22.0550  -16.8050 C.3    52  DC52        0.0866
   1039  C1'        5.7110  -21.0520  -16.2100 C.3    52  DC52        0.2106
   1040  N1         6.2220  -20.6240  -14.9410 N.ar   52  DC52       -0.2556
   1041  C2         7.3450  -19.7910  -14.8790 C.ar   52  DC52        0.3531
   1042  O2         7.8930  -19.4460  -15.9400 O.2    52  DC52       -0.2443
   1043  N3         7.8010  -19.3880  -13.6690 N.ar   52  DC52       -0.1739
   1044  C4         7.1820  -19.7850  -12.5570 C.ar   52  DC52        0.1759
   1045  N4         7.6670  -19.3620  -11.3870 N.pl3  52  DC52       -0.1070
   1046  C5         6.0420  -20.6290  -12.5980 C.ar   52  DC52        0.0566
   1047  C6         5.5960  -21.0250  -13.7950 C.ar   52  DC52        0.0849
   1048  P          7.9540  -24.8790  -17.4380 P.3    53  DG53        0.2141
   1049  OP1        7.3100  -24.9330  -18.7800 O.2    53  DG53       -0.5172
   1050  OP2        8.5740  -26.1050  -16.8770 O.3    53  DG53       -0.4373
   1051  O5'        9.0440  -23.7170  -17.4390 O.3    53  DG53       -0.3114
   1052  C5'        9.0850  -22.7320  -18.5000 C.3    53  DG53        0.1811
   1053  C4'       10.1820  -21.7220  -18.2510 C.3    53  DG53        0.1746
   1054  O4'        9.7710  -20.7700  -17.2380 O.3    53  DG53       -0.3327
   1055  C3'       11.4910  -22.2960  -17.7470 C.3    53  DG53        0.1558
   1056  O3'       12.2960  -22.7320  -18.8090 O.3    53  DG53       -0.3138
   1057  C2'       12.1150  -21.1200  -17.0220 C.3    53  DG53        0.0865
   1058  C1'       10.8820  -20.4290  -16.4270 C.3    53  DG53        0.2094
   1059  N9        10.5900  -20.9500  -14.9990 N.ar   53  DG53       -0.2713
   1060  C8         9.6320  -21.8450  -14.5890 C.ar   53  DG53        0.1816
   1061  N7         9.5900  -21.9980  -13.2940 N.ar   53  DG53       -0.2173
   1062  C5        10.5760  -21.1550  -12.8160 C.ar   53  DG53        0.1748
   1063  C6        11.0030  -20.8920  -11.4890 C.ar   53  DG53        0.3023
   1064  O6        10.5710  -21.3760  -10.4360 O.2    53  DG53       -0.2633
   1065  N1        12.0400  -19.9640  -11.4510 N.ar   53  DG53       -0.1709
   1066  C2        12.5970  -19.3640  -12.5540 C.ar   53  DG53        0.2606
   1067  N2        13.5880  -18.4940  -12.3170 N.pl3  53  DG53       -0.0859
   1068  N3        12.2120  -19.5990  -13.7930 N.ar   53  DG53       -0.1918
   1069  C4        11.2060  -20.4970  -13.8550 C.ar   53  DG53        0.1722
   1070  P         12.5850  -23.5080  -18.5220 P.3    54  DT54        0.2141
   1071  OP1       12.8800  -23.7710  -19.9510 O.2    54  DT54       -0.5172
   1072  OP2       12.0490  -24.5910  -17.6580 O.3    54  DT54       -0.4373
   1073  O5'       13.8850  -22.9330  -17.7980 O.3    54  DT54       -0.3114
   1074  C5'       14.6520  -21.8870  -18.3810 C.3    54  DT54        0.1811
   1075  C4'       15.6450  -21.3400  -17.3700 C.3    54  DT54        0.1746
   1076  O4'       14.9120  -20.8010  -16.2350 O.3    54  DT54       -0.3327
   1077  C3'       16.6590  -22.3060  -16.7500 C.3    54  DT54        0.1558
   1078  O3'       17.8320  -22.4500  -17.5620 O.3    54  DT54       -0.3138
   1079  C2'       17.0030  -21.6040  -15.4450 C.3    54  DT54        0.0866
   1080  C1'       15.6620  -20.9870  -15.0470 C.3    54  DT54        0.2106
   1081  N1        14.9120  -21.8300  -14.1060 N.ar   54  DT54       -0.2559
   1082  C2        15.2190  -21.7000  -12.7650 C.ar   54  DT54        0.3545
   1083  O2        16.0680  -20.9320  -12.3500 O.2    54  DT54       -0.2443
   1084  N3        14.4920  -22.5050  -11.9210 N.ar   54  DT54       -0.1533
   1085  C4        13.5110  -23.4080  -12.2760 C.ar   54  DT54        0.2804
   1086  O4        12.9450  -24.0610  -11.4030 O.2    54  DT54       -0.2654
   1087  C5        13.2510  -23.4860  -13.6860 C.ar   54  DT54        0.0534
   1088  C6        13.9430  -22.7140  -14.5290 C.ar   54  DT54        0.0824
   1089  C7        12.2010  -24.4400  -14.1730 C.3    54  DT54        0.0377
   1090  P         18.9010  -23.7410  -17.3270 P.3    55  DC55        0.2141
   1091  OP1       19.8770  -23.7430  -18.4440 O.2    55  DC55       -0.5172
   1092  OP2       18.2070  -24.9960  -16.9650 O.3    55  DC55       -0.4373
   1093  O5'       19.6350  -23.1820  -16.0270 O.3    55  DC55       -0.3114
   1094  C5'       20.5010  -22.0740  -16.1690 C.3    55  DC55        0.1811
   1095  C4'       20.5280  -21.2350  -14.9120 C.3    55  DC55        0.1746
   1096  O4'       19.2040  -20.9640  -14.3900 O.3    55  DC55       -0.3327
   1097  C3'       21.2250  -21.8920  -13.7390 C.3    55  DC55        0.1558
   1098  O3'       22.6210  -21.8990  -13.9760 O.3    55  DC55       -0.3138
   1099  C2'       20.7740  -20.9520  -12.6310 C.3    55  DC55        0.0866
   1100  C1'       19.2900  -20.8190  -12.9780 C.3    55  DC55        0.2106
   1101  N1        18.5110  -21.8840  -12.3560 N.ar   55  DC55       -0.2556
   1102  C2        18.0500  -21.7850  -11.0380 C.ar   55  DC55        0.3531
   1103  O2        18.4670  -20.8540  -10.3280 O.2    55  DC55       -0.2443
   1104  N3        17.1670  -22.7020  -10.5780 N.ar   55  DC55       -0.1739
   1105  C4        16.7480  -23.6850  -11.3760 C.ar   55  DC55        0.1759
   1106  N4        15.8770  -24.5660  -10.8780 N.pl3  55  DC55       -0.1070
   1107  C5        17.2030  -23.8030  -12.7140 C.ar   55  DC55        0.0566
   1108  C6        18.0750  -22.8950  -13.1650 C.ar   55  DC55        0.0849
   1109  P         23.5730  -23.3000  -13.8900 P.3    56  DT56        0.2141
   1110  OP1       24.8480  -23.2360  -14.6400 O.2    56  DT56       -0.5172
   1111  OP2       22.6220  -24.4130  -14.1100 O.3    56  DT56       -0.4373
   1112  O5'       23.8760  -23.3510  -12.3200 O.3    56  DT56       -0.3114
   1113  C5'       24.6440  -22.3100  -11.7380 C.3    56  DT56        0.1811
   1114  C4'       24.3990  -22.1830  -10.2550 C.3    56  DT56        0.1746
   1115  O4'       23.0030  -21.8720   -9.9930 O.3    56  DT56       -0.3327
   1116  C3'       24.6240  -23.4310   -9.4200 C.3    56  DT56        0.1558
   1117  O3'       25.9870  -23.7650   -9.2150 O.3    56  DT56       -0.3138
   1118  C2'       23.8740  -23.0670   -8.1470 C.3    56  DT56        0.0866
   1119  C1'       22.6270  -22.4240   -8.7460 C.3    56  DT56        0.2106
   1120  N1        21.5450  -23.4760   -8.8790 N.ar   56  DT56       -0.2559
   1121  C2        20.8220  -23.8710   -7.7700 C.ar   56  DT56        0.3545
   1122  O2        21.1430  -23.5840   -6.6300 O.2    56  DT56       -0.2443
   1123  N3        19.7020  -24.6200   -8.0420 N.ar   56  DT56       -0.1533
   1124  C4        19.2430  -25.0040   -9.2850 C.ar   56  DT56        0.2804
   1125  O4        18.2190  -25.6770   -9.3700 O.2    56  DT56       -0.2654
   1126  C5        20.0490  -24.5560  -10.3860 C.ar   56  DT56        0.0534
   1127  C6        21.1420  -23.8270  -10.1490 C.ar   56  DT56        0.0824
   1128  C7        19.6330  -24.9240  -11.7800 C.3    56  DT56        0.0377
   1129  P         26.1450  -24.8920   -9.3180 P.3    57  DG57        0.2141
   1130  OP1       27.5990  -24.5630   -9.2870 O.3    57  DG57       -0.4373
   1131  OP2       25.6490  -26.0110  -10.1690 O.2    57  DG57       -0.5172
   1132  O5'       25.6310  -25.1380   -7.8310 O.3    57  DG57       -0.3114
   1133  C5'       26.1160  -24.3530   -6.7490 C.3    57  DG57        0.1811
   1134  C4'       25.4770  -24.8120   -5.4660 C.3    57  DG57        0.1746
   1135  O4'       24.0550  -24.5470   -5.4920 O.3    57  DG57       -0.3327
   1136  C3'       25.5240  -26.3050   -5.2530 C.3    57  DG57        0.1558
   1137  O3'       26.7870  -26.6770   -4.7580 O.3    57  DG57       -0.3138
   1138  C2'       24.4270  -26.5080   -4.2270 C.3    57  DG57        0.0865
   1139  C1'       23.3770  -25.5320   -4.7390 C.3    57  DG57        0.2094
   1140  N9        22.4570  -26.1430   -5.5760 N.ar   57  DG57       -0.2713
   1141  C8        22.6000  -26.2130   -6.9410 C.ar   57  DG57        0.1816
   1142  N7        21.6060  -26.8180   -7.5330 N.ar   57  DG57       -0.2173
   1143  C5        20.7540  -27.1670   -6.5020 C.ar   57  DG57        0.1748
   1144  C6        19.5090  -27.8480   -6.5230 C.ar   57  DG57        0.3023
   1145  O6        18.8950  -28.2900   -7.5020 O.2    57  DG57       -0.2633
   1146  N1        18.9760  -27.9980   -5.2460 N.ar   57  DG57       -0.1709
   1147  C2        19.5690  -27.5480   -4.0900 C.ar   57  DG57        0.2606
   1148  N2        18.9020  -27.7850   -2.9530 N.pl3  57  DG57       -0.0859
   1149  N3        20.7250  -26.9150   -4.0550 N.ar   57  DG57       -0.1918
   1150  C4        21.2620  -26.7590   -5.2830 C.ar   57  DG57        0.1722
   1151  P         27.2450  -27.8780   -5.1920 P.3    58  DC58        0.2141
   1152  OP1       28.6720  -27.6840   -4.8160 O.3    58  DC58       -0.4373
   1153  OP2       26.8980  -28.4510   -6.5220 O.2    58  DC58       -0.5172
   1154  O5'       26.5540  -28.8260   -4.1250 O.3    58  DC58       -0.3114
   1155  C5'       26.7860  -28.6390   -2.7440 C.3    58  DC58        0.1811
   1156  C4'       25.7360  -29.3560   -1.9540 C.3    58  DC58        0.1746
   1157  O4'       24.4300  -28.8280   -2.3100 O.3    58  DC58       -0.3327
   1158  C3'       25.6120  -30.8310   -2.2500 C.3    58  DC58        0.1558
   1159  O3'       26.5790  -31.6150   -1.5790 O.3    58  DC58       -0.3138
   1160  C2'       24.1860  -31.1370   -1.8260 C.3    58  DC58        0.0866
   1161  C1'       23.4610  -29.8580   -2.2520 C.3    58  DC58        0.2106
   1162  N1        22.7990  -29.9290   -3.5580 N.ar   58  DC58       -0.2556
   1163  C2        21.5660  -30.5850   -3.6360 C.ar   58  DC58        0.3531
   1164  O2        21.0580  -31.0310   -2.5930 O.2    58  DC58       -0.2443
   1165  N3        20.9640  -30.7160   -4.8430 N.ar   58  DC58       -0.1739
   1166  C4        21.5470  -30.2230   -5.9360 C.ar   58  DC58        0.1759
   1167  N4        20.9160  -30.3760   -7.1030 N.pl3  58  DC58       -0.1070
   1168  C5        22.7960  -29.5550   -5.8780 C.ar   58  DC58        0.0566
   1169  C6        23.3870  -29.4280   -4.6850 C.ar   58  DC58        0.0849
   1170  P         27.2410  -32.8920   -2.3420 P.3    59  DA59        0.2141
   1171  OP1       28.3570  -33.1410   -1.4050 O.3    59  DA59       -0.4373
   1172  OP2       27.4900  -32.6610   -3.7820 O.2    59  DA59       -0.5172
   1173  O5'       26.2160  -34.1150   -2.2700 O.3    59  DA59       -0.3114
   1174  C5'       25.5570  -34.2450   -1.0200 C.3    59  DA59        0.1811
   1175  C4'       24.1420  -34.7350   -1.1540 C.3    59  DA59        0.1746
   1176  O4'       23.3490  -33.7920   -1.9120 O.3    59  DA59       -0.3327
   1177  C3'       23.9750  -36.0230   -1.9300 C.3    59  DA59        0.1558
   1178  O3'       24.3450  -37.1620   -1.1860 O.3    59  DA59       -0.3138
   1179  C2'       22.5010  -35.9780   -2.2720 C.3    59  DA59        0.0865
   1180  C1'       22.3490  -34.5030   -2.6180 C.3    59  DA59        0.2094
   1181  N9        22.4180  -34.4920   -4.0240 N.ar   59  DA59       -0.2714
   1182  C8        23.4240  -33.7890   -4.6330 C.ar   59  DA59        0.1815
   1183  N7        23.2200  -33.5730   -5.9110 N.ar   59  DA59       -0.2193
   1184  C5        21.9970  -34.1780   -6.1580 C.ar   59  DA59        0.1518
   1185  C6        21.2220  -34.3020   -7.3250 C.ar   59  DA59        0.1919
   1186  N6        21.5830  -33.8010   -8.5090 N.pl3  59  DA59       -0.1054
   1187  N1        20.0510  -34.9660   -7.2310 N.ar   59  DA59       -0.2040
   1188  C2        19.6900  -35.4670   -6.0440 C.ar   59  DA59        0.2016
   1189  N3        20.3320  -35.4140   -4.8790 N.ar   59  DA59       -0.2048
   1190  C4        21.4920  -34.7480   -5.0060 C.ar   59  DA59        0.1691
   1191  P         24.9710  -38.1550   -1.9630 P.3    60  DC60        0.2141
   1192  OP1       25.1720  -39.1160   -0.7840 O.3    60  DC60       -0.4373
   1193  OP2       26.0800  -37.9340   -2.9650 O.2    60  DC60       -0.5172
   1194  O5'       23.7010  -38.5520   -2.8250 O.3    60  DC60       -0.3114
   1195  C5'       22.5470  -39.2830   -2.2840 C.3    60  DC60        0.1812
   1196  C4'       21.7420  -39.8740   -3.4320 C.3    60  DC60        0.1775
   1197  O4'       21.3110  -38.7570   -4.2620 O.3    60  DC60       -0.3326
   1198  C3'       22.5250  -40.7240   -4.4110 C.3    60  DC60        0.1865
   1199  O3'       22.7760  -42.0830   -3.9180 O.3    60  DC60       -0.2133
   1200  C2'       21.6750  -40.6140   -5.6860 C.3    60  DC60        0.0872
   1201  C1'       21.2710  -39.1540   -5.6470 C.3    60  DC60        0.2108
   1202  N1        22.1910  -38.3230   -6.3780 N.ar   60  DC60       -0.2556
   1203  C2        21.9770  -38.1850   -7.7540 C.ar   60  DC60        0.3531
   1204  O2        20.9760  -38.7190   -8.2600 O.2    60  DC60       -0.2443
   1205  N3        22.8660  -37.4770   -8.4910 N.ar   60  DC60       -0.1739
   1206  C4        23.9270  -36.9220   -7.9050 C.ar   60  DC60        0.1759
   1207  N4        24.7750  -36.2330   -8.6720 N.pl3  60  DC60       -0.1070
   1208  C5        24.1610  -37.0500   -6.5120 C.ar   60  DC60        0.0566
   1209  C6        23.2820  -37.7500   -5.7880 C.ar   60  DC60        0.0849
   1210  P         24.1480  -42.4700   -4.2660 P.3    61  DA61        0.3939
   1211  OP1       23.5610  -42.3190   -2.9170 O.3    61  DA61       -0.1496
   1212  OP2       25.1750  -43.5070   -4.5040 O.3    61  DA61       -0.1425
   1213  O5'       22.9620  -42.8810   -5.2630 O.3    61  DA61       -0.2926
   1214  C5'       23.2020  -43.9290   -6.1940 C.3    61  DA61        0.1828
   1215  C4'       21.9440  -44.6160   -6.6740 C.3    61  DA61        0.1747
   1216  O4'       21.3650  -45.3900   -5.5860 O.3    61  DA61       -0.3327
   1217  C3'       20.8450  -43.6900   -7.1940 C.3    61  DA61        0.1558
   1218  O3'       20.6080  -43.8200   -8.5930 O.3    61  DA61       -0.3138
   1219  C2'       19.5730  -44.0930   -6.4540 C.3    61  DA61        0.0865
   1220  C1'       19.9590  -45.2570   -5.5520 C.3    61  DA61        0.2094
   1221  N9        19.7860  -44.8110   -4.0540 N.ar   61  DA61       -0.2714
   1222  C8        20.6500  -44.3480   -3.0970 C.ar   61  DA61        0.1815
   1223  N7        20.0540  -43.8990   -2.0180 N.ar   61  DA61       -0.2193
   1224  C5        18.7060  -44.0790   -2.2850 C.ar   61  DA61        0.1518
   1225  C6        17.5480  -43.8030   -1.5370 C.ar   61  DA61        0.1919
   1226  N6        17.5680  -43.2640   -0.3160 N.pl3  61  DA61       -0.1054
   1227  N1        16.3550  -44.1030   -2.0950 N.ar   61  DA61       -0.2040
   1228  C2        16.3360  -44.6430   -3.3190 C.ar   61  DA61        0.2016
   1229  N3        17.3550  -44.9500   -4.1180 N.ar   61  DA61       -0.2048
   1230  C4        18.5260  -44.6390   -3.5360 C.ar   61  DA61        0.1691
   1231  P         20.1120  -42.5960   -9.3110 P.3    62  DT62        0.2141
   1232  OP1       20.1690  -42.4690  -10.7840 O.2    62  DT62       -0.5172
   1233  OP2       20.8180  -41.6280   -8.4420 O.3    62  DT62       -0.4373
   1234  O5'       18.5910  -42.5150   -8.8170 O.3    62  DT62       -0.3114
   1235  C5'       17.6400  -43.4530   -9.3040 C.3    62  DT62        0.1811
   1236  C4'       16.3980  -43.4850   -8.4510 C.3    62  DT62        0.1746
   1237  O4'       16.7450  -43.8070   -7.0800 O.3    62  DT62       -0.3327
   1238  C3'       15.6400  -42.1750   -8.3100 C.3    62  DT62        0.1558
   1239  O3'       14.8420  -41.8420   -9.4310 O.3    62  DT62       -0.3138
   1240  C2'       14.8280  -42.4040   -7.0450 C.3    62  DT62        0.0866
   1241  C1'       15.8310  -43.1860   -6.2030 C.3    62  DT62        0.2106
   1242  N1        16.4890  -42.2240   -5.3130 N.ar   62  DT62       -0.2559
   1243  C2        15.8680  -41.6470   -4.2220 C.ar   62  DT62        0.3545
   1244  O2        14.6670  -41.7170   -4.0270 O.2    62  DT62       -0.2443
   1245  N3        16.7070  -40.9790   -3.3620 N.ar   62  DT62       -0.1533
   1246  C4        18.0730  -40.8350   -3.4810 C.ar   62  DT62        0.2804
   1247  O4        18.6920  -40.2060   -2.6260 O.2    62  DT62       -0.2654
   1248  C5        18.6430  -41.4610   -4.6400 C.ar   62  DT62        0.0533
   1249  C6        17.8510  -42.1170   -5.4930 C.ar   62  DT62        0.0824
   1250  C7        20.1230  -41.3590   -4.8590 C.3    62  DT62        0.0399
   1251  P         15.1130  -40.7350   -9.7510 P.3    63  DA63        0.2141
   1252  OP1       14.2730  -40.7140  -10.9740 O.2    63  DA63       -0.5172
   1253  OP2       16.4170  -40.0460   -9.7320 O.3    63  DA63       -0.4373
   1254  O5'       14.2470  -40.2190   -8.5010 O.3    63  DA63       -0.3114
   1255  C5'       12.8810  -40.6050   -8.3770 C.3    63  DA63        0.1811
   1256  C4'       12.3210  -40.1840   -7.0320 C.3    63  DA63        0.1746
   1257  O4'       13.2120  -40.6040   -5.9660 O.3    63  DA63       -0.3327
   1258  C3'       12.1740  -38.6800   -6.8460 C.3    63  DA63        0.1558
   1259  O3'       10.9230  -38.2480   -7.3620 O.3    63  DA63       -0.3138
   1260  C2'       12.2600  -38.5370   -5.3300 C.3    63  DA63        0.0865
   1261  C1'       13.3240  -39.5720   -5.0020 C.3    63  DA63        0.2094
   1262  N9        14.7020  -39.0610   -5.0030 N.ar   63  DA63       -0.2714
   1263  C8        15.7370  -39.4250   -5.8250 C.ar   63  DA63        0.1815
   1264  N7        16.8680  -38.8200   -5.5500 N.ar   63  DA63       -0.2193
   1265  C5        16.5550  -38.0030   -4.4750 C.ar   63  DA63        0.1518
   1266  C6        17.3240  -37.1040   -3.7150 C.ar   63  DA63        0.1919
   1267  N6        18.6200  -36.8710   -3.9340 N.pl3  63  DA63       -0.1054
   1268  N1        16.7070  -36.4460   -2.7110 N.ar   63  DA63       -0.2040
   1269  C2        15.4080  -36.6810   -2.4910 C.ar   63  DA63        0.2016
   1270  N3        14.5820  -37.5020   -3.1360 N.ar   63  DA63       -0.2048
   1271  C4        15.2250  -38.1400   -4.1280 C.ar   63  DA63        0.1691
   1272  P         10.8100  -36.7370   -7.5730 P.3    64  DC64        0.2141
   1273  OP1        9.4440  -36.5700   -8.1120 O.3    64  DC64       -0.4373
   1274  OP2       11.9670  -36.7270   -8.4960 O.2    64  DC64       -0.5172
   1275  O5'       11.0800  -35.6460   -6.4270 O.3    64  DC64       -0.3114
   1276  C5'       10.2630  -35.5880   -5.2570 C.3    64  DC64        0.1811
   1277  C4'       11.0670  -35.3900   -3.9780 C.3    64  DC64        0.1746
   1278  O4'       12.3340  -36.0940   -4.0440 O.3    64  DC64       -0.3327
   1279  C3'       11.4700  -33.9610   -3.6480 C.3    64  DC64        0.1558
   1280  O3'       10.3780  -33.2640   -3.0710 O.3    64  DC64       -0.3138
   1281  C2'       12.5760  -34.2210   -2.6310 C.3    64  DC64        0.0866
   1282  C1'       13.3050  -35.3750   -3.3000 C.3    64  DC64        0.2106
   1283  N1        14.3920  -34.8960   -4.1610 N.ar   64  DC64       -0.2556
   1284  C2        15.5380  -34.2120   -3.7380 C.ar   64  DC64        0.3531
   1285  O2        15.5770  -33.7710   -2.5770 O.2    64  DC64       -0.2443
   1286  N3        16.5660  -34.0500   -4.6050 N.ar   64  DC64       -0.1739
   1287  C4        16.4800  -34.5400   -5.8420 C.ar   64  DC64        0.1759
   1288  N4        17.5180  -34.3550   -6.6610 N.pl3  64  DC64       -0.1070
   1289  C5        15.3280  -35.2360   -6.2900 C.ar   64  DC64        0.0566
   1290  C6        14.3140  -35.3940   -5.4310 C.ar   64  DC64        0.0849
   1291  P         10.2650  -31.6960   -3.3500 P.3    65  DC65        0.2141
   1292  OP1        9.1060  -31.2930   -2.5120 O.3    65  DC65       -0.4373
   1293  OP2       10.4090  -31.1380   -4.7220 O.2    65  DC65       -0.5172
   1294  O5'       11.5950  -31.3540   -2.5470 O.3    65  DC65       -0.3114
   1295  C5'       11.7330  -31.7120   -1.1770 C.3    65  DC65        0.1811
   1296  C4'       12.9040  -30.9830   -0.5800 C.3    65  DC65        0.1746
   1297  O4'       14.1510  -31.5500   -1.0750 O.3    65  DC65       -0.3327
   1298  C3'       12.9770  -29.5310   -1.0020 C.3    65  DC65        0.1558
   1299  O3'       12.0940  -28.7150   -0.2490 O.3    65  DC65       -0.3138
   1300  C2'       14.4500  -29.2200   -0.7810 C.3    65  DC65        0.0866
   1301  C1'       15.0950  -30.5090   -1.2990 C.3    65  DC65        0.2106
   1302  N1        15.4190  -30.5290   -2.7740 N.ar   65  DC65       -0.2556
   1303  C2        16.5860  -29.8600   -3.1620 C.ar   65  DC65        0.3531
   1304  O2        17.3040  -29.3530   -2.2830 O.2    65  DC65       -0.2443
   1305  N3        16.8960  -29.7840   -4.4780 N.ar   65  DC65       -0.1739
   1306  C4        16.0950  -30.3420   -5.3860 C.ar   65  DC65        0.1759
   1307  N4        16.4420  -30.2410   -6.6710 N.pl3  65  DC65       -0.1070
   1308  C5        14.9080  -31.0240   -5.0140 C.ar   65  DC65        0.0566
   1309  C6        14.6050  -31.0970   -3.7130 C.ar   65  DC65        0.0849
   1310  P         11.4360  -27.3070   -0.8810 P.3    66  DA66        0.2141
   1311  OP1       10.2040  -27.0030   -0.1240 O.3    66  DA66       -0.4373
   1312  OP2       11.3900  -27.6170   -2.3440 O.2    66  DA66       -0.5172
   1313  O5'       12.4340  -26.0760   -0.8160 O.3    66  DA66       -0.3114
   1314  C5'       13.0800  -25.7220    0.3710 C.3    66  DA66        0.1812
   1315  C4'       14.3930  -25.0390    0.0690 C.3    66  DA66        0.1775
   1316  O4'       15.2810  -25.9550   -0.6760 O.3    66  DA66       -0.3326
   1317  C3'       14.3710  -23.7940   -0.8260 C.3    66  DA66        0.1859
   1318  O3'       13.8640  -22.6450   -0.1190 O.3    66  DA66       -0.2202
   1319  C2'       15.8690  -23.6970   -1.1380 C.3    66  DA66        0.0894
   1320  C1'       16.2290  -25.1680   -1.3950 C.3    66  DA66        0.2095
   1321  N9        16.0900  -25.4750   -2.8120 N.ar   66  DA66       -0.2714
   1322  C8        15.1580  -26.3090   -3.3710 C.ar   66  DA66        0.1815
   1323  N7        15.3340  -26.5130   -4.6550 N.ar   66  DA66       -0.2193
   1324  C5        16.4580  -25.7620   -4.9600 C.ar   66  DA66        0.1518
   1325  C6        17.1620  -25.5560   -6.1590 C.ar   66  DA66        0.1919
   1326  N6        16.8190  -26.1140   -7.3230 N.pl3  66  DA66       -0.1054
   1327  N1        18.2420  -24.7470   -6.1210 N.ar   66  DA66       -0.2040
   1328  C2        18.5850  -24.1890   -4.9540 C.ar   66  DA66        0.2016
   1329  N3        18.0040  -24.3070   -3.7630 N.ar   66  DA66       -0.2048
   1330  C4        16.9340  -25.1160   -3.8350 C.ar   66  DA66        0.1691
   1331  P         12.4850  -21.6140   -0.8650 P.3    67  DG67        0.4149
   1332  OP1       12.4640  -20.7230    0.2740 O.2    67  DG67       -0.2668
   1333  OP2       11.6730  -21.3360   -2.0920 O.3    67  DG67       -0.1481
   1334  O5'       14.0330  -21.7020   -1.2230 O.3    67  DG67       -0.2177
   1335  C5'       14.6590  -20.6250   -0.5920 C.3    67  DG67        0.2140
   1336  C4'       15.9110  -20.2470   -1.2870 C.3    67  DG67        0.1776
   1337  O4'       16.3140  -21.4150   -1.9720 O.3    67  DG67       -0.3326
   1338  C3'       15.7690  -19.3010   -2.4490 C.3    67  DG67        0.1559
   1339  O3'       15.8670  -17.9620   -2.0980 O.3    67  DG67       -0.3138
   1340  C2'       17.0570  -19.5870   -3.1610 C.3    67  DG67        0.0865
   1341  C1'       16.9840  -21.0850   -3.1790 C.3    67  DG67        0.2094
   1342  N9        16.2050  -21.3700   -4.3960 N.ar   67  DG67       -0.2713
   1343  C8        14.9980  -22.0150   -4.2700 C.ar   67  DG67        0.1816
   1344  N7        14.5640  -22.5170   -5.3940 N.ar   67  DG67       -0.2173
   1345  C5        15.5390  -22.1880   -6.3170 C.ar   67  DG67        0.1748
   1346  C6        15.6240  -22.4600   -7.7060 C.ar   67  DG67        0.3023
   1347  O6        14.8180  -23.0730   -8.4180 O.2    67  DG67       -0.2633
   1348  N1        16.7880  -21.9420   -8.2680 N.ar   67  DG67       -0.1709
   1349  C2        17.7500  -21.2460   -7.5760 C.ar   67  DG67        0.2606
   1350  N2        18.8030  -20.8260   -8.2900 N.pl3  67  DG67       -0.0859
   1351  N3        17.6840  -20.9850   -6.2860 N.ar   67  DG67       -0.1918
   1352  C4        16.5630  -21.4780   -5.7190 C.ar   67  DG67        0.1722
   1353  P         15.1090  -17.0570   -2.9590 P.3    68  DC68        0.2141
   1354  OP1       15.3070  -16.1510   -1.8130 O.3    68  DC68       -0.4373
   1355  OP2       13.9480  -17.9690   -2.8760 O.2    68  DC68       -0.5172
   1356  O5'       15.0450  -16.1470   -4.2800 O.3    68  DC68       -0.3114
   1357  C5'       16.2090  -15.4090   -4.6540 C.3    68  DC68        0.1811
   1358  C4'       16.5700  -15.5250   -6.1300 C.3    68  DC68        0.1746
   1359  O4'       16.5920  -16.8950   -6.6300 O.3    68  DC68       -0.3327
   1360  C3'       15.5860  -14.8510   -7.0530 C.3    68  DC68        0.1558
   1361  O3'       15.7890  -13.4990   -7.0470 O.3    68  DC68       -0.3138
   1362  C2'       15.8180  -15.5100   -8.3970 C.3    68  DC68        0.0866
   1363  C1'       15.9880  -16.9580   -7.9200 C.3    68  DC68        0.2106
   1364  N1        14.6740  -17.7590   -7.8910 N.ar   68  DC68       -0.2556
   1365  C2        14.0910  -18.2020   -9.0830 C.ar   68  DC68        0.3531
   1366  O2        14.4720  -17.7040  -10.1570 O.2    68  DC68       -0.2443
   1367  N3        13.1310  -19.1560   -9.0330 N.ar   68  DC68       -0.1739
   1368  C4        12.7540  -19.6610   -7.8580 C.ar   68  DC68        0.1759
   1369  N4        11.8040  -20.6000   -7.8580 N.pl3  68  DC68       -0.1070
   1370  C5        13.3320  -19.2260   -6.6390 C.ar   68  DC68        0.0566
   1371  C6        14.2800  -18.2830   -6.6930 C.ar   68  DC68        0.0849
   1372  P         14.5240  -12.9710   -6.3430 P.3    69  DT69        0.2141
   1373  OP1       14.7770  -11.9800   -5.2690 O.3    69  DT69       -0.4373
   1374  OP2       13.3460  -13.8760   -6.2740 O.2    69  DT69       -0.5172
   1375  O5'       14.4940  -12.2320   -7.7400 O.3    69  DT69       -0.3114
   1376  C5'       14.5280  -12.9950   -8.9200 C.3    69  DT69        0.1811
   1377  C4'       13.3550  -12.6460   -9.7700 C.3    69  DT69        0.1746
   1378  O4'       12.9430  -13.8490  -10.4710 O.3    69  DT69       -0.3327
   1379  C3'       12.1320  -12.2450   -8.9740 C.3    69  DT69        0.1558
   1380  O3'       12.1970  -10.8600   -8.6610 O.3    69  DT69       -0.3138
   1381  C2'       11.0130  -12.6070   -9.9380 C.3    69  DT69        0.0866
   1382  C1'       11.5310  -13.9420  -10.4770 C.3    69  DT69        0.2106
   1383  N1        11.1610  -15.1840   -9.6810 N.ar   69  DT69       -0.2559
   1384  C2         9.9230  -15.6850  -10.0350 C.ar   69  DT69        0.3545
   1385  O2         9.3080  -15.3040  -11.0150 O.2    69  DT69       -0.2443
   1386  N3         9.4250  -16.6510   -9.1950 N.ar   69  DT69       -0.1533
   1387  C4        10.0280  -17.1560   -8.0610 C.ar   69  DT69        0.2804
   1388  O4         9.4560  -18.0250   -7.4080 O.2    69  DT69       -0.2654
   1389  C5        11.3110  -16.5850   -7.7600 C.ar   69  DT69        0.0534
   1390  C6        11.8180  -15.6440   -8.5600 C.ar   69  DT69        0.0824
   1391  C7        12.0480  -17.0680   -6.5460 C.3    69  DT69        0.0377
   1392  P         11.0260  -10.1570   -7.6260 P.3    70  DT70        0.2141
   1393  OP1       11.0840   -8.6940   -7.3790 O.2    70  DT70       -0.5172
   1394  OP2       11.4240  -11.1000   -6.5500 O.3    70  DT70       -0.4373
   1395  O5'        9.5420  -10.5230   -8.0790 O.3    70  DT70       -0.3114
   1396  C5'        8.8830   -9.7860   -9.1060 C.3    70  DT70        0.1811
   1397  C4'        7.5670  -10.4420   -9.4570 C.3    70  DT70        0.1746
   1398  O4'        7.8240  -11.8220   -9.8340 O.3    70  DT70       -0.3327
   1399  C3'        6.5470  -10.5520   -8.3300 C.3    70  DT70        0.1558
   1400  O3'        5.7820   -9.3500   -8.2070 O.3    70  DT70       -0.3138
   1401  C2'        5.6870  -11.7250   -8.7920 C.3    70  DT70        0.0866
   1402  C1'        6.7340  -12.6380   -9.4340 C.3    70  DT70        0.2106
   1403  N1         7.2880  -13.7310   -8.5170 N.ar   70  DT70       -0.2559
   1404  C2         6.4670  -14.8230   -8.3080 C.ar   70  DT70        0.3545
   1405  O2         5.3730  -14.9410   -8.8310 O.2    70  DT70       -0.2443
   1406  N3         6.9730  -15.7770   -7.4590 N.ar   70  DT70       -0.1533
   1407  C4         8.1910  -15.7500   -6.8130 C.ar   70  DT70        0.2804
   1408  O4         8.5090  -16.6840   -6.0810 O.2    70  DT70       -0.2654
   1409  C5         8.9850  -14.5840   -7.0800 C.ar   70  DT70        0.0534
   1410  C6         8.5170  -13.6400   -7.9010 C.ar   70  DT70        0.0824
   1411  C7        10.3280  -14.4610   -6.4230 C.3    70  DT70        0.0377
   1412  P          4.9550   -8.9860   -6.7600 P.3    71  DA71        0.2141
   1413  OP1        4.7630   -7.5300   -6.5560 O.2    71  DA71       -0.5172
   1414  OP2        5.8680   -9.7390   -5.8680 O.3    71  DA71       -0.4373
   1415  O5'        3.5700   -9.7900   -6.6420 O.3    71  DA71       -0.3114
   1416  C5'        2.7010   -9.9710   -7.7530 C.3    71  DA71        0.1811
   1417  C4'        1.6960  -11.0810   -7.5290 C.3    71  DA71        0.1746
   1418  O4'        2.3530  -12.3760   -7.5570 O.3    71  DA71       -0.3327
   1419  C3'        0.9600  -11.0830   -6.1990 C.3    71  DA71        0.1558
   1420  O3'       -0.1260  -10.1770   -6.1630 O.3    71  DA71       -0.3138
   1421  C2'        0.5040  -12.5290   -6.0880 C.3    71  DA71        0.0865
   1422  C1'        1.6890  -13.2740   -6.6930 C.3    71  DA71        0.2094
   1423  N9         2.6370  -13.7350   -5.7580 N.ar   71  DA71       -0.2714
   1424  C8         3.7560  -13.0870   -5.3020 C.ar   71  DA71        0.1815
   1425  N7         4.3850  -13.7280   -4.3460 N.ar   71  DA71       -0.2193
   1426  C5         3.6290  -14.8740   -4.1600 C.ar   71  DA71        0.1518
   1427  C6         3.7670  -15.9680   -3.2870 C.ar   71  DA71        0.1919
   1428  N6         4.7600  -16.0870   -2.4030 N.pl3  71  DA71       -0.1054
   1429  N1         2.8380  -16.9460   -3.3570 N.ar   71  DA71       -0.2040
   1430  C2         1.8440  -16.8260   -4.2440 C.ar   71  DA71        0.2016
   1431  N3         1.6090  -15.8480   -5.1160 N.ar   71  DA71       -0.2048
   1432  C4         2.5480  -14.8920   -5.0220 C.ar   71  DA71        0.1691
   1433  P         -0.8120   -9.7250   -4.7050 P.3    72  DT72        0.2141
   1434  OP1       -1.9440   -8.8410   -5.0840 O.2    72  DT72       -0.5172
   1435  OP2        0.2680   -9.1760   -3.8420 O.3    72  DT72       -0.4373
   1436  O5'       -1.4410  -11.0040   -3.9860 O.3    72  DT72       -0.3114
   1437  C5'       -2.6490  -11.6070   -4.5040 C.3    72  DT72        0.1811
   1438  C4'       -3.0810  -12.7720   -3.6450 C.3    72  DT72        0.1746
   1439  O4'       -2.2030  -13.9020   -3.8450 O.3    72  DT72       -0.3327
   1440  C3'       -3.0730  -12.5300   -2.1500 C.3    72  DT72        0.1558
   1441  O3'       -4.2730  -11.9030   -1.7440 O.3    72  DT72       -0.3138
   1442  C2'       -2.9360  -13.9360   -1.5810 C.3    72  DT72        0.0866
   1443  C1'       -2.0610  -14.6150   -2.6330 C.3    72  DT72        0.2106
   1444  N1        -0.5980  -14.6270   -2.3060 N.ar   72  DT72       -0.2559
   1445  C2        -0.1530  -15.6700   -1.5160 C.ar   72  DT72        0.3545
   1446  O2        -0.8790  -16.5700   -1.1330 O.2    72  DT72       -0.2443
   1447  N3         1.1800  -15.6210   -1.1870 N.ar   72  DT72       -0.1533
   1448  C4         2.0920  -14.6560   -1.5600 C.ar   72  DT72        0.2804
   1449  O4         3.2590  -14.7490   -1.1860 O.2    72  DT72       -0.2654
   1450  C5         1.5530  -13.6070   -2.3790 C.ar   72  DT72        0.0534
   1451  C6         0.2600  -13.6290   -2.7140 C.ar   72  DT72        0.0824
   1452  C7         2.4670  -12.5090   -2.8370 C.3    72  DT72        0.0377
   1453  P         -4.2660  -10.8230   -0.3920 P.3    73  DT73        0.2141
   1454  OP1       -5.1360   -9.6250   -0.2840 O.2    73  DT73       -0.5172
   1455  OP2       -2.9470  -10.8220    0.2890 O.3    73  DT73       -0.4373
   1456  O5'       -5.0700  -12.0930    0.1190 O.3    73  DT73       -0.3114
   1457  C5'       -5.1990  -12.3390    1.4890 C.3    73  DT73        0.1811
   1458  C4'       -5.2910  -13.8090    1.7430 C.3    73  DT73        0.1746
   1459  O4'       -4.2690  -14.5200    1.0080 O.3    73  DT73       -0.3327
   1460  C3'       -4.9650  -14.0400    3.1870 C.3    73  DT73        0.1558
   1461  O3'       -6.1060  -13.8620    3.9810 O.3    73  DT73       -0.3138
   1462  C2'       -4.3300  -15.4190    3.2060 C.3    73  DT73        0.0866
   1463  C1'       -3.5730  -15.4030    1.8760 C.3    73  DT73        0.2106
   1464  N1        -2.1410  -14.9190    2.1280 N.ar   73  DT73       -0.2559
   1465  C2        -1.2460  -15.7170    2.8170 C.ar   73  DT73        0.3545
   1466  O2        -1.5810  -16.7140    3.4300 O.2    73  DT73       -0.2443
   1467  N3         0.0630  -15.3020    2.7630 N.ar   73  DT73       -0.1533
   1468  C4         0.5560  -14.1950    2.1040 C.ar   73  DT73        0.2804
   1469  O4         1.7590  -13.9510    2.1460 O.2    73  DT73       -0.2654
   1470  C5        -0.4350  -13.4180    1.4140 C.ar   73  DT73        0.0534
   1471  C6        -1.7150  -13.7980    1.4500 C.ar   73  DT73        0.0824
   1472  C7         0.0020  -12.1930    0.6670 C.3    73  DT73        0.0377
   1473  P         -5.8880  -13.4720    5.2900 P.3    74  DC74        0.2141
   1474  OP1       -7.3380  -13.5180    5.6020 O.3    74  DC74       -0.4373
   1475  OP2       -5.2340  -12.1700    5.0040 O.2    74  DC74       -0.5172
   1476  O5'       -5.0920  -14.2050    6.4520 O.3    74  DC74       -0.3114
   1477  C5'       -5.3390  -15.5750    6.6990 C.3    74  DC74        0.1811
   1478  C4'       -4.0690  -16.3010    7.0550 C.3    74  DC74        0.1746
   1479  O4'       -3.0980  -16.2490    5.9730 O.3    74  DC74       -0.3327
   1480  C3'       -3.2570  -15.7900    8.2200 C.3    74  DC74        0.1558
   1481  O3'       -3.8650  -16.0350    9.4590 O.3    74  DC74       -0.3138
   1482  C2'       -1.9530  -16.5320    8.0220 C.3    74  DC74        0.0866
   1483  C1'       -1.7920  -16.4280    6.5100 C.3    74  DC74        0.2106
   1484  N1        -1.0540  -15.1450    6.2000 N.ar   74  DC74       -0.2556
   1485  C2         0.3350  -15.0520    6.3440 C.ar   74  DC74        0.3531
   1486  O2         0.9580  -16.0330    6.7830 O.2    74  DC74       -0.2443
   1487  N3         0.9580  -13.8980    6.0020 N.ar   74  DC74       -0.1739
   1488  C4         0.2480  -12.8700    5.5350 C.ar   74  DC74        0.1759
   1489  N4         0.9050  -11.7540    5.2120 N.pl3  74  DC74       -0.1070
   1490  C5        -1.1600  -12.9440    5.3820 C.ar   74  DC74        0.0566
   1491  C6        -1.7710  -14.0850    5.7200 C.ar   74  DC74        0.0849
   1492  P         -3.9990  -14.9620   10.2170 P.3    75  DA75        0.2141
   1493  OP1       -5.4510  -15.0890    9.9690 O.2    75  DA75       -0.5172
   1494  OP2       -3.3880  -13.6120   10.2510 O.3    75  DA75       -0.4373
   1495  O5'       -3.6550  -15.7210   11.5830 O.3    75  DA75       -0.3114
   1496  C5'       -2.7180  -15.1900   12.5080 C.3    75  DA75        0.1811
   1497  C4'       -1.4210  -15.9740   12.4610 C.3    75  DA75        0.1746
   1498  O4'       -0.8860  -15.9750   11.1120 O.3    75  DA75       -0.3327
   1499  C3'       -0.3140  -15.3890   13.3220 C.3    75  DA75        0.1558
   1500  O3'       -0.3730  -15.9170   14.6380 O.3    75  DA75       -0.3138
   1501  C2'        0.9400  -15.8420   12.5820 C.3    75  DA75        0.0865
   1502  C1'        0.5020  -15.6790   11.1300 C.3    75  DA75        0.2094
   1503  N9         0.6440  -14.3520   10.3860 N.ar   75  DA75       -0.2714
   1504  C8        -0.3510  -13.5680    9.8630 C.ar   75  DA75        0.1815
   1505  N7         0.0900  -12.5570    9.1520 N.ar   75  DA75       -0.2193
   1506  C5         1.4690  -12.6860    9.2130 C.ar   75  DA75        0.1518
   1507  C6         2.5150  -11.9250    8.6630 C.ar   75  DA75        0.1919
   1508  N6         2.3230  -10.8390    7.9100 N.pl3  75  DA75       -0.1054
   1509  N1         3.7800  -12.3240    8.9160 N.ar   75  DA75       -0.2040
   1510  C2         3.9710  -13.4130    9.6690 C.ar   75  DA75        0.2016
   1511  N3         3.0710  -14.2090   10.2400 N.ar   75  DA75       -0.2048
   1512  C4         1.8250  -13.7860    9.9710 C.ar   75  DA75        0.1691
   1513  P         -0.0270  -15.0290   15.6950 P.3    76  DA76        0.2141
   1514  OP1       -0.0560  -15.6860   17.0190 O.3    76  DA76       -0.4373
   1515  OP2       -0.8340  -13.8080   15.4720 O.2    76  DA76       -0.5172
   1516  O5'        1.5000  -14.7220   15.3260 O.3    76  DA76       -0.3114
   1517  C5'        2.4750  -15.7470   15.4680 C.3    76  DA76        0.1811
   1518  C4'        3.8780  -15.2080   15.2560 C.3    76  DA76        0.1746
   1519  O4'        4.1290  -15.0300   13.8390 O.3    76  DA76       -0.3327
   1520  C3'        4.1600  -13.8470   15.8740 C.3    76  DA76        0.1558
   1521  O3'        4.4770  -14.0140   17.2530 O.3    76  DA76       -0.3138
   1522  C2'        5.3700  -13.4390   15.0440 C.3    76  DA76        0.0865
   1523  C1'        4.9360  -13.8850   13.6500 C.3    76  DA76        0.2094
   1524  N9         4.1480  -12.8960   12.9110 N.ar   76  DA76       -0.2714
   1525  C8         2.8010  -12.6650   12.8060 C.ar   76  DA76        0.1815
   1526  N7         2.5000  -11.6200   12.0710 N.ar   76  DA76       -0.2192
   1527  C5         3.7320  -11.1320   11.6670 C.ar   76  DA76        0.1538
   1528  C6         4.0990  -10.0360   10.8660 C.ar   76  DA76        0.2138
   1529  N6         3.2190   -9.2030   10.3060 N.pl3  76  DA76       -0.0296
   1530  N1         5.4160   -9.8250   10.6580 N.ar   76  DA76       -0.2024
   1531  C2         6.2970  -10.6620   11.2190 C.ar   76  DA76        0.2016
   1532  N3         6.0740  -11.7240   11.9890 N.ar   76  DA76       -0.2048
   1533  C4         4.7570  -11.9060   12.1780 C.ar   76  DA76        0.1692
   1534  P          4.4600  -12.6990   18.4080 P.3    77  DT77        0.2141
   1535  OP1        4.7780  -13.1270   19.7970 O.3    77  DT77       -0.4373
   1536  OP2        3.1530  -12.0940   18.0600 O.2    77  DT77       -0.5172
   1537  O5'        5.5870  -11.6780   17.9190 O.3    77  DT77       -0.3115
   1538  C5'        6.9390  -12.0380   18.1170 C.3    77  DT77        0.1785
   1539  C4'        7.8780  -11.2830   17.1950 C.3    77  DT77        0.1473
   1540  O4'        7.5190  -11.4470   15.7970 O.3    77  DT77       -0.3353
   1541  C3'        7.8900   -9.7880   17.4170 C.3    77  DT77        0.0368
   1542  O3'        8.6900   -9.5300   18.5730 O.3    77  DT77       -0.1066
   1543  C2'        8.4660   -9.3180   16.0790 C.3    77  DT77        0.0566
   1544  C1'        7.8060  -10.2630   15.0640 C.3    77  DT77        0.2081
   1545  N1         6.5890   -9.9720   14.3830 N.ar   77  DT77       -0.2559
   1546  C2         6.8080   -9.0590   13.3690 C.ar   77  DT77        0.3545
   1547  O2         7.9120   -8.8340   12.9040 O.2    77  DT77       -0.2443
   1548  N3         5.6830   -8.4130   12.9160 N.ar   77  DT77       -0.1533
   1549  C4         4.3910   -8.5850   13.3640 C.ar   77  DT77        0.2804
   1550  O4         3.4820   -7.9310   12.8570 O.2    77  DT77       -0.2654
   1551  C5         4.2450   -9.5490   14.4180 C.ar   77  DT77        0.0534
   1552  C6         5.3220  -10.1920   14.8780 C.ar   77  DT77        0.0824
   1553  C7         2.8760   -9.8070   14.9740 C.3    77  DT77        0.0377
   1554  P          8.5580   -8.9020   18.5200 P.3    78  DT78        0.4736
   1555  OP1        9.5070   -9.1430   19.6400 O.3    78  DT78       -0.0263
   1556  OP2        7.1520   -8.5130   18.8170 O.2    78  DT78       -0.2429
   1557  O5'        9.1670   -7.8050   17.5360 O.3    78  DT78       -0.2822
   1558  C5'        9.5560   -6.5370   18.0380 C.3    78  DT78        0.1839
   1559  C4'       10.4760   -5.8330   17.0690 C.3    78  DT78        0.1754
   1560  O4'        9.6930   -5.2280   16.0010 O.3    78  DT78       -0.3510
   1561  C3'       11.1960   -4.6620   17.7170 C.3    78  DT78        0.1839
   1562  O3'       12.3690   -5.0920   18.3910 O.3    78  DT78       -0.2204
   1563  C2'       11.4460   -3.7210   16.5470 C.3    78  DT78        0.0676
   1564  C1'       10.1630   -3.9130   15.7360 C.3    78  DT78        0.1450
   1565  N1         7.8000   -5.8100   14.9610 N.2    78  DT78       -0.1608
   1566  C2         7.0550   -5.1960   13.9730 C.1    78  DT78        0.2395
   1567  O2         7.5270   -4.3960   13.1840 O.2    78  DT78       -0.2041
   1568  N3         5.7280   -5.5520   13.9400 N.am   78  DT78       -0.0881
   1569  C4         5.0870   -6.4400   14.7780 C.2    78  DT78        0.2768
   1570  O4         3.8870   -6.6590   14.6240 O.2    78  DT78       -0.2676
   1571  C5         5.9280   -7.0350   15.7780 C.2    78  DT78        0.0541
   1572  C6         7.2210   -6.7070   15.8320 C.2    78  DT78        0.1126
   1573  C7         5.3230   -8.0150   16.7390 C.3    78  DT78        0.0376
@<TRIPOS>BOND
     1   425   424    2
     2   445   443    2
     3   424   426    1
     4   424   412    1
     5   424   427    1
     6   405   404    2
     7   444   432    1
     8   412   411    1
     9   428   427    1
    10   428   429    1
    11   443   432    1
    12   408   409    1
    13   408   407    1
    14   404   407    1
    15   404   391    1
    16   404   406    1
    17   411   409    1
    18   411   413    1
    19   429   431    1
    20   429   430    1
    21   409   410    1
    22   447   446    1
    23   447   448    1
    24   431   433    1
    25  1071  1070    2
    26   455   456   ar
    27   455   454   ar
    28   391   390    1
    29   456   457   ar
    30   449   448    1
    31   449   453    1
    32   454   453    1
    33   454   464   ar
    34   413   414    1
    35   448   450    1
    36   457   464   ar
    37   457   458   ar
    38   430   434    1
    39   459   458    2
    40   453   452    1
    41  1056  1070    1
    42  1056  1055    1
    43  1049  1048    2
    44   410   414    1
    45   464   463   ar
    46   458   460   ar
    47   433   434    1
    48  1070  1073    1
    49  1070  1072    1
    50  1052  1053    1
    51  1052  1051    1
    52   390   392    1
    53   390   388    1
    54  1091  1090    2
    55  1074  1073    1
    56  1074  1075    1
    57  1053  1055    1
    58  1053  1054    1
    59   414   415    1
    60   392   393    1
    61   388   387    1
    62   388   389    1
    63   463   461   ar
    64   384   383    2
    65   460   461   ar
    66   434   435    1
    67   387   386    1
    68   442   441   ar
    69   442   435   ar
    70  1055  1057    1
    71   450   452    1
    72   450   451    1
    73   461   462    1
    74  1078  1090    1
    75  1078  1077    1
    76  1037  1048    1
    77  1037  1036    1
    78  1051  1048    1
    79  1048  1050    1
    80   422   415   ar
    81   422   421   ar
    82  1075  1077    1
    83  1075  1076    1
    84  1090  1092    1
    85  1090  1093    1
    86   441   439   ar
    87   435   436   ar
    88   415   416   ar
    89  1054  1058    1
    90   386   383    1
    91  1057  1058    1
    92  1038  1036    1
    93  1038  1039    1
    94   423   421    1
    95   389   393    1
    96   451   465    1
    97  1077  1079    1
    98   383   370    1
    99   383   385    1
   100   393   394    1
   101  1034  1036    1
   102  1034  1035    1
   103  1034  1033    1
   104   421   419   ar
   105  1058  1059    1
   106   416   417    2
   107   416   418   ar
   108  1076  1080    1
   109   436   437    2
   110   436   438   ar
   111  1039  1035    1
   112  1039  1040    1
   113   439   438   ar
   114   439   440    1
   115  1094  1093    1
   116  1094  1095    1
   117   370   369    1
   118  1033  1032    1
   119  1042  1041    2
   120   394   395   ar
   121   394   403   ar
   122   419   418   ar
   123   419   420    2
   124   467   465    2
   125  1079  1080    1
   126   481   480    1
   127   465   466    1
   128   465   468    1
   129   395   396   ar
   130   482   480   ar
   131   482   483   ar
   132   402   403   ar
   133   402   401   ar
   134  1080  1081    1
   135   480   479   ar
   136  1059  1060   ar
   137  1059  1069   ar
   138   403   397   ar
   139  1040  1041   ar
   140  1040  1047   ar
   141  1095  1096    1
   142  1095  1097    1
   143  1041  1043   ar
   144   483   476   ar
   145   369   371    1
   146   369   367    1
   147   471   475    1
   148   471   470    1
   149  1110  1109    2
   150  1032  1029    1
   151  1060  1061   ar
   152  1088  1081   ar
   153  1088  1087   ar
   154   371   372    1
   155   468   469    1
   156   479   477   ar
   157  1030  1029    2
   158  1096  1100    1
   159   396   397   ar
   160   401   400   ar
   161   476   477   ar
   162   476   475    1
   163  1089  1087    1
   164   397   398   ar
   165   469   470    1
   166  1111  1109    1
   167  1081  1082   ar
   168   477   478    2
   169   475   474    1
   170  1098  1109    1
   171  1098  1097    1
   172  1109  1112    1
   173  1069  1068   ar
   174  1069  1062   ar
   175   367   366    1
   176   367   368    1
   177  1047  1046   ar
   178  1068  1066   ar
   179  1097  1099    1
   180   470   472    1
   181  1087  1085   ar
   182  1043  1044   ar
   183  1029  1016    1
   184  1029  1031    1
   185   366   365    1
   186   400   398   ar
   187   398   399    1
   188  1061  1062   ar
   189  1016  1015    1
   190  1108  1107   ar
   191  1108  1101   ar
   192   365   362    1
   193   363   362    2
   194   372   368    1
   195   372   373    1
   196  1100  1099    1
   197  1100  1101    1
   198   518   517    2
   199  1062  1063   ar
   200  1082  1083    2
   201  1082  1084   ar
   202  1107  1105   ar
   203  1046  1044   ar
   204   474   472    1
   205   502   501   ar
   206   502   503   ar
   207  1044  1045    1
   208  1066  1067    1
   209  1066  1065   ar
   210   381   380   ar
   211   381   382   ar
   212   501   499   ar
   213   472   473    1
   214  1101  1102   ar
   215  1112  1113    1
   216   373   382   ar
   217   373   374   ar
   218  1085  1084   ar
   219  1085  1086    2
   220  1017  1015    1
   221  1017  1018    1
   222   362   364    1
   223   362   350    1
   224   380   379   ar
   225   382   376   ar
   226   503   504   ar
   227  1015  1013    1
   228   517   519   ar
   229   517   516   ar
   230   538   537    2
   231  1128  1126    1
   232  1113  1114    1
   233   499   500    1
   234   499   498   ar
   235   531   530    1
   236   531   535    1
   237   374   375   ar
   238  1063  1065   ar
   239  1063  1064    2
   240  1013  1012    1
   241  1013  1014    1
   242   519   520   ar
   243   515   514    1
   244   515   516    1
   245   515   511    1
   246  1105  1106    1
   247  1105  1104   ar
   248   379   377   ar
   249   376   375   ar
   250   376   377   ar
   251   504   498   ar
   252   504   495   ar
   253   473   485    1
   254   530   529    1
   255   530   532    1
   256   514   512    1
   257   498   497   ar
   258  1102  1104   ar
   259  1102  1103    2
   260   537   536   ar
   261   537   539   ar
   262  1385  1384    2
   263   350   349    1
   264  1018  1014    1
   265  1018  1019    1
   266   516   523   ar
   267  1252  1251    2
   268   535   536    1
   269   535   534    1
   270   377   378    1
   271   494   490    1
   272   494   495    1
   273   494   493    1
   274   536   543   ar
   275  1232  1231    2
   276   511   510    1
   277   490   489    1
   278  1012  1011    1
   279   529   528    1
   280   495   496   ar
   281  1382  1378    1
   282  1382  1381    1
   283  1382  1383    1
   284  1378  1377    1
   285  1126  1127   ar
   286  1126  1124   ar
   287  1027  1026   ar
   288  1027  1028   ar
   289   539   540   ar
   290  1114  1115    1
   291  1114  1116    1
   292   533   532    1
   293   533   545    1
   294   551   555    1
   295   551   550    1
   296   520   521    2
   297   520   522   ar
   298   497   496   ar
   299   485   484    1
   300  1131  1129    2
   301  1366  1365    2
   302  1127  1120   ar
   303  1384  1383   ar
   304  1384  1386   ar
   305   532   534    1
   306   493   491    1
   307  1115  1119    1
   308   555   556    1
   309   555   554    1
   310  1381  1379    1
   311   543   542   ar
   312  1019  1028   ar
   313  1019  1020   ar
   314   510   512    1
   315   510   509    1
   316   484   487    1
   317   484   486    1
   318   349   351    1
   319   349   347    1
   320  1398  1397    1
   321  1398  1402    1
   322  1026  1025   ar
   323   523   522   ar
   324  1377  1379    1
   325  1377  1376    1
   326  1251  1253    1
   327  1251  1239    1
   328  1251  1254    1
   329   512   513    1
   330  1383  1390   ar
   331  1011  1008    1
   332  1028  1022   ar
   333   489   491    1
   334   489   488    1
   335   550   549    1
   336   550   552    1
   337   487   488    1
   338   351   352    1
   339  1397  1396    1
   340  1397  1399    1
   341   513   525    1
   342  1402  1401    1
   343  1402  1403    1
   344  1239  1238    1
   345  1116  1117    1
   346  1116  1118    1
   347   522   524    1
   348  1125  1124    2
   349   540   542   ar
   350   540   541    2
   351   564   565   ar
   352   564   563   ar
   353   549   548    1
   354  1129  1130    1
   355  1129  1117    1
   356  1129  1132    1
   357  1231  1234    1
   358  1231  1218    1
   359  1231  1233    1
   360  1235  1234    1
   361  1235  1236    1
   362  1124  1123   ar
   363   528   525    1
   364   556   565   ar
   365   556   557   ar
   366  1009  1008    2
   367  1386  1387   ar
   368   542   544    1
   369  1396  1395    1
   370   554   552    1
   371  1365  1367   ar
   372  1365  1364   ar
   373   546   545    2
   374  1367  1368   ar
   375   545   548    1
   376   545   547    1
   377  1379  1380    1
   378   565   559   ar
   379   563   562   ar
   380  1376  1375    1
   381   491   492    1
   382  1120  1119    1
   383  1120  1121   ar
   384  1020  1021   ar
   385  1405  1404    2
   386   355   354    2
   387  1401  1399    1
   388  1119  1118    1
   389  1025  1023   ar
   390  1207  1206    1
   391  1380  1392    1
   392   557   558   ar
   393   347   346    1
   394   347   348    1
   395  1218  1217    1
   396  1390  1389   ar
   397   509   508    1
   398  1008   996    1
   399  1008  1010    1
   400  1403  1404   ar
   401  1403  1410   ar
   402  1186  1185    1
   403  1254  1255    1
   404  1274  1272    2
   405  1205  1206   ar
   406  1205  1203   ar
   407   346   345    1
   408  1022  1023   ar
   409  1022  1021   ar
   410  1236  1238    1
   411  1236  1237    1
   412   552   553    1
   413  1347  1346    2
   414  1362  1363    1
   415  1362  1360    1
   416  1255  1256    1
   417  1399  1400    1
   418  1238  1240    1
   419  1404  1406   ar
   420  1350  1349    1
   421   559   558   ar
   422   559   560   ar
   423  1348  1346   ar
   424  1348  1349   ar
   425   562   560   ar
   426  1204  1203    2
   427   525   526    2
   428   525   527    1
   429  1400  1412    1
   430   492   505    1
   431   354   353   ar
   432   354   356   ar
   433  1273  1272    1
   434  1395  1392    1
   435  1387  1389   ar
   436  1387  1388    2
   437  1123  1121   ar
   438  1023  1024    1
   439   352   353    1
   440   352   348    1
   441   996   995    1
   442   560   561    1
   443  1363  1364    1
   444  1363  1359    1
   445  1206  1208   ar
   446  1410  1409   ar
   447  1364  1371   ar
   448   572   576    1
   449   572   571    1
   450   553   566    1
   451  1369  1368    1
   452  1368  1370   ar
   453   508   505    1
   454  1132  1133    1
   455   576   575    1
   456   576   577    1
   457   353   360   ar
   458  1121  1122    2
   459  1389  1391    1
   460  1203  1202   ar
   461  1416  1417    1
   462  1416  1415    1
   463  1375  1372    1
   464  1346  1345   ar
   465   356   357   ar
   466  1392  1393    2
   467  1392  1394    1
   468  1349  1351   ar
   469  1272  1259    1
   470  1272  1275    1
   471  1418  1417    1
   472  1418  1422    1
   473  1142  1141   ar
   474  1142  1143   ar
   475  1417  1419    1
   476  1145  1144    2
   477  1406  1407   ar
   478   575   573    1
   479  1259  1258    1
   480   571   573    1
   481   571   570    1
   482  1185  1187   ar
   483  1185  1184   ar
   484  1326  1325    1
   485   997   995    1
   486   997   998    1
   487  1187  1188   ar
   488  1217  1215    1
   489  1217  1219    1
   490   579   578    2
   491   569   566    1
   492   569   570    1
   493   345   342    1
   494  1167  1166    1
   495  1237  1241    1
   496  1409  1407   ar
   497  1409  1411    1
   498   344   342    2
   499   360   359   ar
   500  1360  1361    1
   501  1360  1358    1
   502  1361  1372    1
   503  1240  1241    1
   504  1256  1258    1
   505  1256  1257    1
   506  1141  1140   ar
   507   357   359   ar
   508   357   358    2
   509   343   342    1
   510  1258  1260    1
   511   995   993    1
   512  1407  1408    2
   513   577   578   ar
   514   577   584   ar
   515  1412  1415    1
   516  1412  1413    2
   517  1412  1414    1
   518  1133  1134    1
   519  1371  1370   ar
   520  1422  1421    1
   521  1422  1423    1
   522  1215  1214    1
   523  1215  1216    1
   524   505   506    2
   525   505   507    1
   526  1307  1306    1
   527  1288  1287    1
   528  1359  1358    1
   529   359   361    1
   530   573   574    1
   531   578   580   ar
   532   342   330    1
   533   566   568    2
   534   566   567    1
   535  1144  1143   ar
   536  1144  1146   ar
   537  1153  1151    2
   538  1208  1209   ar
   539  1143  1150   ar
   540   574   585    1
   541  1219  1220    1
   542  1275  1276    1
   543  1001  1000    2
   544  1202  1209   ar
   545  1202  1201    1
   546  1372  1374    2
   547  1372  1373    1
   548  1345  1352   ar
   549  1345  1344   ar
   550  1289  1287   ar
   551  1289  1290   ar
   552  1351  1352   ar
   553  1241  1242    1
   554  1419  1420    1
   555  1419  1421    1
   556  1214  1213    1
   557  1420  1433    1
   558  1325  1327   ar
   559  1325  1324   ar
   560  1184  1183   ar
   561  1184  1190   ar
   562   584   583   ar
   563  1358  1357    1
   564  1327  1328   ar
   565  1188  1189   ar
   566  1257  1261    1
   567  1166  1168   ar
   568  1166  1165   ar
   569  1183  1182   ar
   570   998   999    1
   571   998   994    1
   572  1168  1169   ar
   573  1287  1286   ar
   574   589   590    1
   575   589   588    1
   576   993   994    1
   577   993   992    1
   578  1263  1264   ar
   579  1263  1262   ar
   580  1423  1424   ar
   581  1423  1432   ar
   582  1352  1342   ar
   583   591   590    1
   584   591   595    1
   585   580   581   ar
   586  1200  1201    1
   587  1200  1250    1
   588  1200  1198    1
   589  1201  1197    1
   590  1000   999   ar
   591  1000  1002   ar
   592  1216  1220    1
   593  1140  1150   ar
   594  1140  1139    1
   595  1220  1221    1
   596  1264  1265   ar
   597  1249  1242   ar
   598  1249  1248   ar
   599  1135  1134    1
   600  1135  1139    1
   601  1134  1136    1
   602   590   592    1
   603  1290  1283   ar
   604  1344  1343   ar
   605  1306  1308   ar
   606  1306  1305   ar
   607  1260  1261    1
   608  1242  1243   ar
   609  1424  1425   ar
   610   583   581   ar
   611  1150  1149   ar
   612  1213  1210    1
   613  1276  1277    1
   614  1136  1137    1
   615  1136  1138    1
   616   586   585    2
   617  1146  1147   ar
   618   999  1006   ar
   619  1151  1152    1
   620  1151  1137    1
   621  1151  1154    1
   622   585   588    1
   623   585   587    1
   624  1431  1432   ar
   625  1431  1430   ar
   626  1434  1433    2
   627   581   582    1
   628   330   329    1
   629  1432  1426   ar
   630  1308  1309   ar
   631  1190  1189   ar
   632  1190  1181   ar
   633  1262  1261    1
   634  1262  1271   ar
   635  1002  1003   ar
   636  1324  1323   ar
   637  1324  1330   ar
   638  1328  1329   ar
   639   992   991    1
   640  1250  1248    1
   641  1165  1163   ar
   642   595   596    1
   643   595   594    1
   644  1139  1138    1
   645  1293  1291    2
   646  1433  1436    1
   647  1433  1435    1
   648  1169  1162   ar
   649  1323  1322   ar
   650  1357  1356    1
   651  1248  1246   ar
   652  1182  1181   ar
   653  1286  1284   ar
   654  1437  1436    1
   655  1437  1438    1
   656  1212  1210    1
   657  1305  1303   ar
   658  1265  1271   ar
   659  1265  1266   ar
   660  1198  1199    1
   661  1198  1196    1
   662  1342  1343   ar
   663  1342  1341    1
   664   991   988    1
   665  1425  1426   ar
   666  1006  1005   ar
   667  1356  1353    1
   668  1210  1211    1
   669  1197  1196    1
   670   329   331    1
   671   329   327    1
   672   331   332    1
   673   335   334    2
   674  1430  1429   ar
   675  1243  1244    2
   676  1243  1245   ar
   677  1283  1284   ar
   678  1283  1282    1
   679  1426  1427   ar
   680  1271  1270   ar
   681  1154  1155    1
   682   336   334   ar
   683   336   337   ar
   684  1229  1230   ar
   685  1229  1228   ar
   686   596   603   ar
   687   596   597   ar
   688  1147  1149   ar
   689  1147  1148    1
   690  1221  1230   ar
   691  1221  1222   ar
   692  1278  1277    1
   693  1278  1282    1
   694  1003  1005   ar
   695  1003  1004    2
   696   338   337    2
   697  1181  1180    1
   698   592   594    1
   699   592   593    1
   700  1277  1279    1
   701   603   602   ar
   702  1267  1266    1
   703  1199  1211    1
   704   334   333   ar
   705   989   988    2
   706  1439  1438    1
   707  1439  1443    1
   708  1330  1329   ar
   709  1330  1321   ar
   710  1172  1170    2
   711   337   339   ar
   712  1284  1285    2
   713  1005  1007    1
   714  1266  1268   ar
   715  1309  1302   ar
   716   593   605    1
   717  1279  1280    1
   718  1279  1281    1
   719  1438  1440    1
   720  1163  1162   ar
   721  1163  1164    2
   722   598   597    2
   723  1162  1161    1
   724  1230  1224   ar
   725  1246  1245   ar
   726  1246  1247    2
   727   597   599   ar
   728  1196  1195    1
   729   605   604    1
   730  1322  1321   ar
   731  1429  1427   ar
   732  1291  1280    1
   733  1291  1294    1
   734  1291  1292    1
   735  1228  1227   ar
   736  1282  1281    1
   737  1427  1428    1
   738   988   990    1
   739   988   976    1
   740   333   332    1
   741   333   340   ar
   742   602   600   ar
   743  1341  1340    1
   744  1341  1337    1
   745  1303  1302   ar
   746  1303  1304    2
   747  1340  1338    1
   748  1270  1269   ar
   749  1222  1223   ar
   750   339   340   ar
   751   339   341    1
   752   332   328    1
   753  1193  1191    2
   754  1353  1355    2
   755  1353  1339    1
   756  1353  1354    1
   757  1452  1450    1
   758  1194  1195    1
   759  1194  1191    1
   760  1321  1320    1
   761   327   326    1
   762   327   328    1
   763  1302  1301    1
   764   324   322    2
   765  1155  1156    1
   766  1451  1450   ar
   767  1451  1444   ar
   768  1268  1269   ar
   769   323   322    1
   770   599   600   ar
   771   325   326    1
   772   325   322    1
   773  1443  1444    1
   774  1443  1442    1
   775  1180  1179    1
   776  1180  1176    1
   777   600   601    1
   778  1294  1295    1
   779  1338  1339    1
   780  1338  1336    1
   781  1450  1448   ar
   782  1312  1310    2
   783  1170  1173    1
   784  1170  1159    1
   785  1170  1171    1
   786  1157  1161    1
   787  1157  1156    1
   788  1444  1445   ar
   789  1224  1223   ar
   790  1224  1225   ar
   791  1179  1177    1
   792   322   309    1
   793  1173  1174    1
   794  1161  1160    1
   795   604   606    1
   796   604   607    1
   797  1158  1156    1
   798  1158  1160    1
   799  1158  1159    1
   800  1440  1441    1
   801  1440  1442    1
   802  1227  1225   ar
   803  1333  1331    1
   804   981   980    2
   805   976   975    1
   806  1337  1336    1
   807  1191  1178    1
   808  1191  1192    1
   809  1177  1178    1
   810  1177  1175    1
   811  1176  1175    1
   812  1441  1453    1
   813   977   975    1
   814   977   978    1
   815   982   980   ar
   816   982   983   ar
   817  1448  1447   ar
   818  1448  1449    2
   819   608   607    1
   820   608   609    1
   821  1225  1226    1
   822   980   979   ar
   823  1445  1447   ar
   824  1445  1446    2
   825  1320  1319    1
   826  1320  1316    1
   827   610   609    1
   828   610   614    1
   829   975   973    1
   830  1301  1297    1
   831  1301  1300    1
   832   984   983    2
   833  1336  1335    1
   834  1334  1335    1
   835  1334  1318    1
   836  1295  1296    1
   837  1175  1174    1
   838  1319  1317    1
   839   983   985   ar
   840  1297  1296    1
   841  1298  1300    1
   842  1298  1296    1
   843  1298  1299    1
   844  1310  1313    1
   845  1310  1299    1
   846  1310  1311    1
   847  1331  1332    2
   848   609   611    1
   849   623   621    1
   850  1317  1318    1
   851  1317  1315    1
   852  1313  1314    1
   853   979   978    1
   854   979   986   ar
   855  1316  1315    1
   856   309   308    1
   857   622   621   ar
   858   622   615   ar
   859   317   316    1
   860   978   974    1
   861   621   619   ar
   862  1453  1454    2
   863  1453  1456    1
   864  1453  1455    1
   865   614   615    1
   866   614   613    1
   867   985   986   ar
   868   985   987    1
   869   615   616   ar
   870   161   160    2
   871   308   310    1
   872   308   306    1
   873   318   316   ar
   874   318   319   ar
   875   316   315   ar
   876   310   311    1
   877   149   148    1
   878   149   160    1
   879  1315  1314    1
   880  1456  1457    1
   881   146   145    1
   882   146   148    1
   883   146   147    1
   884   973   974    1
   885   973   972    1
   886   319   320   ar
   887   315   314   ar
   888   315   321   ar
   889   145   144    1
   890   827   826    2
   891   163   164    1
   892   163   160    1
   893   619   620    2
   894   619   618   ar
   895   314   313   ar
   896   616   618   ar
   897   616   617    2
   898   320   321   ar
   899   321   312   ar
   900   814   826    1
   901   814   813    1
   902   971   972    1
   903   971   968    1
   904   611   613    1
   905   611   612    1
   906  1472  1470    1
   907   811   810    1
   908   811   812    1
   909   811   813    1
   910   313   312   ar
   911   303   301    2
   912   148   150    1
   913   164   165    1
   914   830   831    1
   915   830   829    1
   916   160   162    1
   917   312   311    1
   918   963   962    1
   919   304   305    1
   920   304   301    1
   921   147   151    1
   922   964   962   ar
   923   964   965   ar
   924   810   809    1
   925  1459  1458    1
   926  1459  1463    1
   927   311   307    1
   928   165   166    1
   929   165   167    1
   930   150   151    1
   931   970   968    2
   932   142   141    2
   933   306   305    1
   934   306   307    1
   935   812   816    1
   936   826   829    1
   937   826   828    1
   938   813   815    1
   939   831   832    1
   940   831   833    1
   941   612   624    1
   942   962   961   ar
   943   181   180    2
   944   815   816    1
   945   965   966   ar
   946   847   846    2
   947   302   301    1
   948  1470  1471   ar
   949  1470  1468   ar
   950   301   288    1
   951  1471  1464   ar
   952  1457  1458    1
   953   151   152    1
   954   168   167    1
   955   168   180    1
   956   144   141    1
   957   166   170    1
   958   127   141    1
   959   127   126    1
   960   807   806    2
   961   816   817    1
   962  1458  1460    1
   963   968   969    1
   964   968   955    1
   965   834   833    1
   966   834   846    1
   967   182   180    1
   968  1463  1464    1
   969  1463  1462    1
   970   832   836    1
   971   128   126    1
   972   128   129    1
   973   141   143    1
   974  1468  1469    2
   975  1468  1467   ar
   976   167   169    1
   977  1464  1465   ar
   978   180   183    1
   979   961   967   ar
   980   961   960   ar
   981   966   967   ar
   982   809   806    1
   983   833   835    1
   984   868   867    2
   985   124   126    1
   986   124   125    1
   987   124   123    1
   988   795   806    1
   989   795   794    1
   990   169   170    1
   991   846   848    1
   992   846   849    1
   993   967   958   ar
   994   170   171    1
   995   806   808    1
   996   296   295    1
   997   297   295   ar
   998   297   298   ar
   999   796   794    1
  1000   796   797    1
  1001  1467  1465   ar
  1002   643   641    1
  1003   630   634    1
  1004   630   629    1
  1005  1465  1466    2
  1006   624   626    2
  1007   624   625    1
  1008   624   627    1
  1009   129   125    1
  1010   129   130    1
  1011   960   959   ar
  1012   942   941    1
  1013   288   287    1
  1014   640   639    2
  1015   295   294   ar
  1016   152   159   ar
  1017   152   153   ar
  1018   138   137    1
  1019   298   299   ar
  1020   641   639   ar
  1021   641   642   ar
  1022   819   818    2
  1023   850   849    1
  1024   850   851    1
  1025   639   638   ar
  1026   836   835    1
  1027   836   837    1
  1028   154   153    2
  1029   642   635   ar
  1030  1460  1462    1
  1031  1460  1461    1
  1032   123   122    1
  1033   817   818   ar
  1034   817   824   ar
  1035   638   636   ar
  1036   955   954    1
  1037   139   137   ar
  1038   139   140   ar
  1039   794   792    1
  1040   792   793    1
  1041   792   791    1
  1042   635   634    1
  1043   635   636   ar
  1044   956   954    1
  1045   956   957    1
  1046   628   627    1
  1047   628   629    1
  1048   634   633    1
  1049   797   793    1
  1050   797   798    1
  1051   636   637    2
  1052   299   300   ar
  1053   287   289    1
  1054   287   285    1
  1055   294   300   ar
  1056   294   293   ar
  1057   958   959   ar
  1058   958   957    1
  1059   289   290    1
  1060   800   799    2
  1061   159   158   ar
  1062   954   952    1
  1063   867   869    1
  1064   867   854    1
  1065   867   870    1
  1066   183   184    1
  1067   300   291   ar
  1068   153   155   ar
  1069   818   820   ar
  1070   137   136   ar
  1071   629   631    1
  1072   293   292   ar
  1073   941   943   ar
  1074   941   940   ar
  1075   171   178   ar
  1076   171   172   ar
  1077   178   177   ar
  1078  1461  1473    1
  1079   943   944   ar
  1080   130   140   ar
  1081   130   131   ar
  1082   824   823   ar
  1083   888   887    2
  1084   184   185    1
  1085   291   292   ar
  1086   291   290    1
  1087   851   853    1
  1088   851   852    1
  1089   854   853    1
  1090   957   953    1
  1091   837   844   ar
  1092   837   838   ar
  1093   140   133   ar
  1094   791   790    1
  1095   784   783    1
  1096   844   843   ar
  1097   277   276    1
  1098   117   116   ar
  1099   117   118   ar
  1100   116   115   ar
  1101   107   108    1
  1102   107   105    1
  1103   122   119    1
  1104   290   286    1
  1105   799   798   ar
  1106   799   801   ar
  1107   798   805   ar
  1108   202   200    2
  1109   940   939   ar
  1110   940   946   ar
  1111   870   871    1
  1112   949   947    2
  1113   939   938   ar
  1114   633   631    1
  1115   260   258    1
  1116   950   947    1
  1117   950   951    1
  1118   853   855    1
  1119   285   284    1
  1120   285   286    1
  1121   158   156   ar
  1122  1475  1473    2
  1123   199   197    1
  1124   106   105    1
  1125   106   119    1
  1126   179   177    1
  1127   944   945   ar
  1128   177   175   ar
  1129   923   922    1
  1130   155   156   ar
  1131   889   887    1
  1132   172   173    2
  1133   172   174   ar
  1134   820   821   ar
  1135   952   953    1
  1136   952   951    1
  1137   136   134   ar
  1138   284   283    1
  1139   909   907    2
  1140  1489  1488    1
  1141   120   119    2
  1142   852   856    1
  1143  1473  1474    1
  1144  1473  1476    1
  1145   887   890    1
  1146   887   875    1
  1147   108   104    1
  1148   108   109    1
  1149   131   132   ar
  1150   838   839    2
  1151   838   840   ar
  1152  1490  1488   ar
  1153  1490  1491   ar
  1154   843   845    1
  1155   843   841   ar
  1156   906   904    1
  1157   823   821   ar
  1158   823   825    1
  1159   871   872    1
  1160   283   280    1
  1161   257   256    2
  1162  1488  1487   ar
  1163   276   278   ar
  1164   276   275   ar
  1165   105   103    1
  1166   783   785   ar
  1167   783   782   ar
  1168   948   947    1
  1169   947   934    1
  1170   223   221    2
  1171   790   787    1
  1172   133   134   ar
  1173   133   132   ar
  1174   119   121    1
  1175   185   186    1
  1176   185   187    1
  1177   156   157    1
  1178   115   113   ar
  1179  1491  1484   ar
  1180   946   945   ar
  1181   946   937   ar
  1182   240   238    1
  1183   928   926    2
  1184   118   109   ar
  1185   118   112   ar
  1186   801   802   ar
  1187   103   104    1
  1188   103   102    1
  1189   785   786   ar
  1190   938   937   ar
  1191   805   804   ar
  1192   282   280    2
  1193   200   201    1
  1194   200   188    1
  1195   200   203    1
  1196   660   659    1
  1197  1479  1483    1
  1198  1479  1478    1
  1199   243   241    2
  1200  1487  1485   ar
  1201   821   822    2
  1202   278   279   ar
  1203   258   256   ar
  1204   258   259   ar
  1205   891   890    1
  1206   891   892    1
  1207   237   236    2
  1208   922   924   ar
  1209   922   921   ar
  1210   109   110   ar
  1211   275   273   ar
  1212   188   187    1
  1213   242   241    1
  1214   924   925   ar
  1215   134   135    2
  1216   256   255   ar
  1217  1484  1485   ar
  1218  1484  1483    1
  1219   186   190    1
  1220   187   189    1
  1221   174   175   ar
  1222   632   644    1
  1223   632   645    1
  1224   774   775    1
  1225   774   772    1
  1226   197   198   ar
  1227   197   195   ar
  1228   175   176    2
  1229   198   191   ar
  1230   855   856    1
  1231  1485  1486    2
  1232   875   874    1
  1233   908   907    1
  1234   788   787    2
  1235   907   895    1
  1236   907   910    1
  1237   280   281    1
  1238   280   269    1
  1239   886   884    1
  1240   937   936    1
  1241   840   841   ar
  1242  1476  1477    1
  1243   782   780   ar
  1244  1483  1482    1
  1245   856   857    1
  1246   263   261    2
  1247   841   842    2
  1248   904   905   ar
  1249   904   902   ar
  1250   657   658   ar
  1251   657   656   ar
  1252   646   644    2
  1253   644   645    1
  1254   644   647    1
  1255  1477  1478    1
  1256   773   787    1
  1257   773   772    1
  1258   858   857   ar
  1259   858   859   ar
  1260   241   244    1
  1261   241   229    1
  1262   872   874    1
  1263   872   873    1
  1264   238   236   ar
  1265   238   239   ar
  1266   903   902    2
  1267   787   789    1
  1268   236   235   ar
  1269   659   658   ar
  1270   659   661   ar
  1271   874   876    1
  1272   934   933    1
  1273   259   252   ar
  1274   113   112   ar
  1275   113   114    1
  1276    92    91    2
  1277   802   804   ar
  1278   802   803    1
  1279   221   222    1
  1280   221   224    1
  1281   221   208    1
  1282   112   111   ar
  1283   935   933    1
  1284   935   936    1
  1285   102   101    1
  1286   933   931    1
  1287   921   919   ar
  1288  1478  1480    1
  1289   279   272   ar
  1290   905   898   ar
  1291   786   776   ar
  1292   786   779   ar
  1293   775   776    1
  1294   775   771    1
  1295   926   929    1
  1296   926   927    1
  1297   926   915    1
  1298   273   272   ar
  1299   273   274    2
  1300   658   664   ar
  1301   895   894    1
  1302   902   901   ar
  1303   925   918   ar
  1304   203   204    1
  1305   255   253   ar
  1306   857   866   ar
  1307   772   770    1
  1308   656   655   ar
  1309   929   930    1
  1310   884   885   ar
  1311   884   882   ar
  1312   892   894    1
  1313   892   893    1
  1314   191   190    1
  1315   191   192   ar
  1316   894   896    1
  1317   110   111   ar
  1318   190   189    1
  1319   213   212   ar
  1320   213   214   ar
  1321   195   196    2
  1322   195   194   ar
  1323   936   932    1
  1324   885   878   ar
  1325   859   860   ar
  1326   661   662   ar
  1327   272   271    1
  1328   910   911    1
  1329   762   761   ar
  1330   762   763   ar
  1331   776   777   ar
  1332   239   232   ar
  1333   261   262    1
  1334   261   264    1
  1335   261   249    1
  1336   224   225    1
  1337   216   215    1
  1338   269   268    1
  1339   873   877    1
  1340   780   779   ar
  1341   780   781    2
  1342   212   211   ar
  1343   235   233   ar
  1344  1508  1507    1
  1345   647   648    1
  1346   770   771    1
  1347   770   769    1
  1348   270   268    1
  1349   270   271    1
  1350   268   266    1
  1351   761   759   ar
  1352   252   253   ar
  1353   252   251    1
  1354   264   265    1
  1355   245   244    1
  1356   245   246    1
  1357  1482  1480    1
  1358   101    98    1
  1359   919   918   ar
  1360   919   920    2
  1361    91    93   ar
  1362    91    90   ar
  1363   253   254    2
  1364   779   778   ar
  1365   208   207    1
  1366   898   899   ar
  1367   898   897    1
  1368   664   655   ar
  1369   664   663   ar
  1370   918   917    1
  1371   248   249    1
  1372   248   246    1
  1373   248   250    1
  1374   893   897    1
  1375  1480  1481    1
  1376   883   882    2
  1377   655   654    1
  1378   229   228    1
  1379   914   915    1
  1380   914   916    1
  1381   914   912    1
  1382   882   881   ar
  1383   901   899   ar
  1384    88    89    1
  1385    88    86    1
  1386   931   932    1
  1387   931   930    1
  1388   876   877    1
  1389   648   649    1
  1390   207   205    1
  1391   207   209    1
  1392   204   205    1
  1393   228   230    1
  1394   228   226    1
  1395   878   877    1
  1396   878   879   ar
  1397   214   215   ar
  1398   214   220   ar
  1399    93    94   ar
  1400   662   663   ar
  1401   247   246    1
  1402   247   251    1
  1403   866   860   ar
  1404   866   865   ar
  1405   194   192   ar
  1406   763   764   ar
  1407   916   917    1
  1408   225   226    1
  1409   192   193    2
  1410   271   267    1
  1411  1507  1509   ar
  1412  1507  1506   ar
  1413    89    90    1
  1414    89    85    1
  1415   215   217   ar
  1416   232   233   ar
  1417   232   231    1
  1418   681   680    2
  1419   860   861   ar
  1420   650   654    1
  1421   650   649    1
  1422   899   900    2
  1423   250   251    1
  1424   233   234    2
  1425   896   897    1
  1426   911   912    1
  1427  1509  1510   ar
  1428    14    13    1
  1429   777   778   ar
  1430    90    97   ar
  1431   211   220   ar
  1432   211   210    1
  1433   917   913    1
  1434  1505  1506   ar
  1435  1505  1504   ar
  1436   881   879   ar
  1437   759   760    1
  1438   759   758   ar
  1439  1506  1512   ar
  1440   769   768    1
  1441   266   265    1
  1442   266   267    1
  1443   205   206    1
  1444   654   653    1
  1445   230   231    1
  1446   912   913    1
  1447   879   880    2
  1448   226   227    1
  1449   209   210    1
  1450    56    57   ar
  1451    56    54   ar
  1452   649   651    1
  1453  1481  1492    1
  1454    55    54    1
  1455   865   864   ar
  1456   684   682    1
  1457    87    98    1
  1458    87    86    1
  1459   220   219   ar
  1460    98    99    2
  1461    98   100    1
  1462   231   227    1
  1463  1510  1511   ar
  1464    86    84    1
  1465    73    72    2
  1466   680   682   ar
  1467   680   679   ar
  1468    85    84    1
  1469    94    95    1
  1470    94    96   ar
  1471   764   758   ar
  1472   764   755   ar
  1473    11    12    1
  1474    11    10    2
  1475  1504  1503   ar
  1476   217   218   ar
  1477   206   210    1
  1478   653   651    1
  1479    13    12    2
  1480    13    15    1
  1481    57    58   ar
  1482  1493  1492    2
  1483  1512  1511   ar
  1484  1512  1503   ar
  1485   861   862    1
  1486   861   863   ar
  1487    84    83    1
  1488    54    53   ar
  1489   701   700    1
  1490    35    34    2
  1491  1492  1494    1
  1492  1492  1495    1
  1493   758   757   ar
  1494   768   765    1
  1495   682   683   ar
  1496    12    18    1
  1497  1529    15    1
  1498  1529  1528    1
  1499   651   652    1
  1500  1503  1502    1
  1501    97    96   ar
  1502    10     9    1
  1503   679   677   ar
  1504   753   754    1
  1505   753   751    1
  1506    15    16    1
  1507   864   863   ar
  1508    74    72   ar
  1509    74    75   ar
  1510  1530  1528   ar
  1511  1530  1531   ar
  1512   219   218   ar
  1513    72    71   ar
  1514   741   740    1
  1515  1528  1527   ar
  1516   702   700   ar
  1517   702   703   ar
  1518   755   754    1
  1519   755   756   ar
  1520   754   750    1
  1521   700   699   ar
  1522  1498  1502    1
  1523  1498  1497    1
  1524  1502  1501    1
  1525  1531  1532   ar
  1526    58    59   ar
  1527    18     9    1
  1528    18    17    1
  1529    34    33   ar
  1530    34    36   ar
  1531     9     8    1
  1532   683   676   ar
  1533    53    59   ar
  1534    53    52   ar
  1535    16    17    2
  1536    83    82    1
  1537   767   765    2
  1538  1495  1496    1
  1539    33    31   ar
  1540   765   766    1
  1541   765   752    1
  1542   757   756   ar
  1543    76    75    1
  1544   739   740   ar
  1545   739   737   ar
  1546  1527  1526   ar
  1547  1527  1533   ar
  1548   652   665    1
  1549   677   676   ar
  1550   677   678    2
  1551    75    77   ar
  1552    69    70    1
  1553    69    67    1
  1554   752   751    1
  1555   740   742   ar
  1556   751   749    1
  1557   667   665    2
  1558    59    50   ar
  1559   722   721    1
  1560   703   704   ar
  1561  1532  1533   ar
  1562    71    70    1
  1563    71    78   ar
  1564  1526  1525   ar
  1565   676   675    1
  1566  1533  1524   ar
  1567    38    36    1
  1568    70    66    1
  1569   699   698   ar
  1570   699   705   ar
  1571    82    79    1
  1572   750   749    1
  1573     1     2    1
  1574    36    37   ar
  1575    52    51   ar
  1576  1497  1496    1
  1577  1497  1499    1
  1578   738   737    2
  1579  1501  1499    1
  1580   720   721   ar
  1581   720   718   ar
  1582     8     4    1
  1583     8     7    1
  1584   698   697   ar
  1585   737   736   ar
  1586     4     3    1
  1587    31    32    2
  1588    31    30   ar
  1589   665   668    1
  1590   665   666    1
  1591  1525  1524   ar
  1592   749   748    1
  1593  1550  1549    2
  1594     2     3    1
  1595   721   723   ar
  1596  1547  1546    2
  1597  1524  1523    1
  1598  1548  1549   ar
  1599  1548  1546   ar
  1600    77    78   ar
  1601    67    68    1
  1602    67    65    1
  1603   704   705   ar
  1604    68    79    1
  1605   742   743   ar
  1606   668   669    1
  1607   705   696   ar
  1608  1567  1566    2
  1609     7     5    1
  1610    50    51   ar
  1611    50    49    1
  1612  1499  1500    1
  1613   719   718    2
  1614  1549  1551   ar
  1615  1546  1545   ar
  1616   671   675    1
  1617   671   670    1
  1618   675   674    1
  1619   718   717   ar
  1620    37    30   ar
  1621     3     5    1
  1622    66    65    1
  1623  1523  1519    1
  1624  1523  1522    1
  1625    79    81    2
  1626    79    80    1
  1627    30    29    1
  1628   697   696   ar
  1629  1519  1518    1
  1630  1568  1566   am
  1631  1568  1569   am
  1632  1566  1565    2
  1633   736   743   ar
  1634   736   735    1
  1635    65    64    1
  1636   669   670    1
  1637     5     6    1
  1638   723   724   ar
  1639   696   695    1
  1640    49    48    1
  1641    49    45    1
  1642   748   747    1
  1643  1545  1552   ar
  1644  1545  1544    1
  1645  1551  1552   ar
  1646  1551  1553    1
  1647   747   744    1
  1648   670   672    1
  1649  1570  1569    2
  1650  1500  1513    1
  1651   674   672    1
  1652    48    46    1
  1653  1569  1571    1
  1654   717   724   ar
  1655   717   716    1
  1656   672   673    1
  1657  1565  1572    1
  1658    29    25    1
  1659    29    28    1
  1660  1522  1520    1
  1661  1544  1540    1
  1662  1544  1543    1
  1663   734   735    1
  1664   734   732    1
  1665   735   731    1
  1666  1518  1517    1
  1667  1518  1520    1
  1668    45    44    1
  1669  1516  1517    1
  1670  1516  1513    1
  1671   695   691    1
  1672   695   694    1
  1673    21    19    2
  1674  1515  1513    2
  1675     6    19    1
  1676    64    63    1
  1677   746   744    2
  1678  1513  1514    1
  1679  1564  1560    1
  1680  1564  1563    1
  1681   687   685    2
  1682  1571  1572    2
  1683  1571  1573    1
  1684  1540  1539    1
  1685    25    24    1
  1686   744   745    1
  1687   744   733    1
  1688   716   715    1
  1689   716   712    1
  1690    28    26    1
  1691  1520  1521    1
  1692   691   690    1
  1693  1560  1559    1
  1694  1543  1541    1
  1695   732   733    1
  1696   732   730    1
  1697    46    44    1
  1698    46    47    1
  1699   673   685    1
  1700    63    60    1
  1701    22    19    1
  1702    22    23    1
  1703   715   713    1
  1704   694   692    1
  1705   731   730    1
  1706    19    20    1
  1707    62    60    2
  1708   688   685    1
  1709   688   689    1
  1710    44    43    1
  1711  1563  1561    1
  1712    26    24    1
  1713    26    27    1
  1714   685   686    1
  1715   712   711    1
  1716  1559  1561    1
  1717  1559  1558    1
  1718    24    23    1
  1719    42    43    1
  1720    42    39    1
  1721    47    60    1
  1722    41    39    2
  1723   730   729    1
  1724  1539  1541    1
  1725  1539  1538    1
  1726   692   690    1
  1727   692   693    1
  1728  1521  1534    1
  1729   690   689    1
  1730    60    61    1
  1731   727   725    2
  1732   728   729    1
  1733   728   725    1
  1734  1557  1558    1
  1735  1557  1554    1
  1736   713   711    1
  1737   713   714    1
  1738   708   706    2
  1739  1561  1562    1
  1740    27    39    1
  1741  1537  1538    1
  1742  1537  1534    1
  1743    39    40    1
  1744  1536  1534    2
  1745   711   710    1
  1746   725   714    1
  1747   725   726    1
  1748  1534  1535    1
  1749   709   706    1
  1750   709   710    1
  1751  1554  1542    1
  1752  1554  1556    2
  1753   693   706    1
  1754  1542  1555    1
  1755   706   707    1
