@<TRIPOS>MOLECULE
dna.pdb
 1946 2194 0 0 0
SMALL
GASTEIGER

@<TRIPOS>ATOM
      1  O5'       12.5160   -1.7950    1.3470 O.3     1  DA1        -0.2176
      2  C5'       12.2310   -2.8640    2.2460 C.3     1  DA1         0.2140
      3  C4'       11.1120   -2.4860    3.1970 C.3     1  DA1         0.1776
      4  O4'       11.5300   -1.3880    4.0570 O.3     1  DA1        -0.3326
      5  C3'        9.7960   -2.0050    2.6010 C.3     1  DA1         0.1559
      6  O3'        8.9650   -3.0670    2.1330 O.3     1  DA1        -0.3138
      7  C2'        9.1690   -1.2380    3.7640 C.3     1  DA1         0.0865
      8  C1'       10.3980   -0.6210    4.4350 C.3     1  DA1         0.2094
      9  N9        10.6130    0.7600    4.0190 N.ar    1  DA1        -0.2714
     10  C8        11.5160    1.2360    3.1050 C.ar    1  DA1         0.1815
     11  N7        11.4700    2.5380    2.9440 N.ar    1  DA1        -0.2193
     12  C5        10.4680    2.9440    3.8110 C.ar    1  DA1         0.1518
     13  C6         9.9320    4.2090    4.1110 C.ar    1  DA1         0.1919
     14  N6        10.3520    5.3430    3.5460 N.pl3   1  DA1        -0.1054
     15  N1         8.9380    4.2670    5.0230 N.ar    1  DA1        -0.2040
     16  C2         8.5190    3.1300    5.5900 C.ar    1  DA1         0.2016
     17  N3         8.9440    1.8850    5.3900 N.ar    1  DA1        -0.2048
     18  C4         9.9300    1.8600    4.4790 C.ar    1  DA1         0.1691
     19  P          7.9840   -2.6480    0.9730 P.3     2  DT2         0.2141
     20  OP1        8.5720   -2.3260   -0.3430 O.2     2  DT2        -0.5172
     21  OP2        7.5070   -1.5400    1.8370 O.3     2  DT2        -0.4373
     22  O5'        6.7700   -3.6370    0.7080 O.3     2  DT2        -0.3114
     23  C5'        7.0470   -4.9830    0.3130 C.3     2  DT2         0.1811
     24  C4'        6.3670   -5.9880    1.2240 C.3     2  DT2         0.1746
     25  O4'        7.0530   -6.1670    2.4910 O.3     2  DT2        -0.3327
     26  C3'        4.9490   -5.7030    1.6600 C.3     2  DT2         0.1558
     27  O3'        4.0420   -5.9140    0.6010 O.3     2  DT2        -0.3138
     28  C2'        4.7630   -6.7430    2.7560 C.3     2  DT2         0.0866
     29  C1'        6.1310   -6.7060    3.4340 C.3     2  DT2         0.2106
     30  N1         6.1120   -5.8790    4.5820 N.ar    2  DT2        -0.2559
     31  C2         5.5600   -6.3310    5.7660 C.ar    2  DT2         0.3545
     32  O2         5.0540   -7.4330    5.8840 O.2     2  DT2        -0.2443
     33  N3         5.6210   -5.4430    6.8120 N.ar    2  DT2        -0.1533
     34  C4         6.1660   -4.1760    6.7940 C.ar    2  DT2         0.2804
     35  O4         6.1470   -3.4950    7.8160 O.2     2  DT2        -0.2654
     36  C5         6.7180   -3.7790    5.5290 C.ar    2  DT2         0.0534
     37  C6         6.6720   -4.6230    4.4950 C.ar    2  DT2         0.0824
     38  C7         7.3340   -2.4170    5.4070 C.3     2  DT2         0.0377
     39  P          2.4530   -4.9590    0.5600 P.3     3  DA3         0.2141
     40  OP1        1.6120   -4.9120   -0.6560 O.2     3  DA3        -0.5172
     41  OP2        2.9060   -3.7240    1.2450 O.3     3  DA3        -0.4373
     42  O5'        1.6860   -5.7810    1.7020 O.3     3  DA3        -0.3114
     43  C5'        0.9020   -6.9270    1.3930 C.3     3  DA3         0.1811
     44  C4'        0.1820   -7.4510    2.6130 C.3     3  DA3         0.1746
     45  O4'        1.1430   -7.6340    3.6860 O.3     3  DA3        -0.3327
     46  C3'       -0.8870   -6.5440    3.2200 C.3     3  DA3         0.1558
     47  O3'       -2.1540   -6.6260    2.5860 O.3     3  DA3        -0.3138
     48  C2'       -0.9150   -6.9900    4.6750 C.3     3  DA3         0.0865
     49  C1'        0.5680   -7.2710    4.9250 C.3     3  DA3         0.2094
     50  N9         1.2270   -6.1210    5.4440 N.ar    3  DA3        -0.2714
     51  C8         1.7810   -5.0940    4.7250 C.ar    3  DA3         0.1815
     52  N7         2.3080   -4.1520    5.4690 N.ar    3  DA3        -0.2193
     53  C5         2.0850   -4.5890    6.7650 C.ar    3  DA3         0.1518
     54  C6         2.4050   -4.0370    8.0180 C.ar    3  DA3         0.1919
     55  N6         3.0470   -2.8760    8.1730 N.pl3   3  DA3        -0.1054
     56  N1         2.0390   -4.7270    9.1190 N.ar    3  DA3        -0.2040
     57  C2         1.3970   -5.8910    8.9630 C.ar    3  DA3         0.2016
     58  N3         1.0420   -6.5110    7.8410 N.ar    3  DA3        -0.2048
     59  C4         1.4190   -5.8000    6.7660 C.ar    3  DA3         0.1691
     60  P         -3.2380   -5.2540    2.4560 P.3     4  DC4         0.2141
     61  OP1       -4.4950   -5.6980    1.7930 O.2     4  DC4        -0.5172
     62  OP2       -2.8370   -3.8220    2.3600 O.3     4  DC4        -0.4373
     63  O5'       -3.3210   -5.6110    4.0110 O.3     4  DC4        -0.3114
     64  C5'       -3.8570   -6.8550    4.4260 C.3     4  DC4         0.1811
     65  C4'       -3.9340   -6.9160    5.9210 C.3     4  DC4         0.1746
     66  O4'       -2.6490   -6.6470    6.5090 O.3     4  DC4        -0.3327
     67  C3'       -4.8220   -5.8640    6.5200 C.3     4  DC4         0.1558
     68  O3'       -6.1450   -6.3280    6.4480 O.3     4  DC4        -0.3138
     69  C2'       -4.3130   -5.7550    7.9490 C.3     4  DC4         0.0866
     70  C1'       -2.8340   -6.0570    7.7640 C.3     4  DC4         0.2106
     71  N1        -2.0750   -4.8110    7.8710 N.ar    4  DC4        -0.2556
     72  C2        -1.8470   -4.1880    9.1030 C.ar    4  DC4         0.3531
     73  O2        -2.3240   -4.7000   10.1300 O.2     4  DC4        -0.2443
     74  N3        -1.1170   -3.0470    9.1400 N.ar    4  DC4        -0.1739
     75  C4        -0.6260   -2.5330    8.0120 C.ar    4  DC4         0.1759
     76  N4         0.0880   -1.4080    8.0980 N.pl3   4  DC4        -0.1070
     77  C5        -0.8460   -3.1490    6.7540 C.ar    4  DC4         0.0566
     78  C6        -1.5670   -4.2750    6.7220 C.ar    4  DC4         0.0849
     79  P         -7.2200   -5.3650    6.2800 P.3     5  DC5         0.2141
     80  OP1       -8.4160   -6.1630    5.9310 O.3     5  DC5        -0.4373
     81  OP2       -6.8700   -4.1420    5.5220 O.2     5  DC5        -0.5172
     82  O5'       -7.3920   -4.8550    7.7840 O.3     5  DC5        -0.3114
     83  C5'       -7.5360   -5.7940    8.8320 C.3     5  DC5         0.1811
     84  C4'       -7.1670   -5.1640   10.1470 C.3     5  DC5         0.1746
     85  O4'       -5.7560   -4.8230   10.1690 O.3     5  DC5        -0.3327
     86  C3'       -7.8390   -3.8390   10.4390 C.3     5  DC5         0.1558
     87  O3'       -9.1910   -3.9760   10.8320 O.3     5  DC5        -0.3138
     88  C2'       -6.9310   -3.2540   11.5120 C.3     5  DC5         0.0866
     89  C1'       -5.5630   -3.6810   10.9790 C.3     5  DC5         0.2106
     90  N1        -4.9420   -2.5830   10.1570 N.ar    5  DC5        -0.2556
     91  C2        -4.3890   -1.4790   10.8160 C.ar    5  DC5         0.3531
     92  O2        -4.4920   -1.4080   12.0530 O.2     5  DC5        -0.2443
     93  N3        -3.7610   -0.5230   10.0900 N.ar    5  DC5        -0.1739
     94  C4        -3.6750   -0.6410    8.7650 C.ar    5  DC5         0.1759
     95  N4        -3.0470    0.3250    8.0910 N.pl3   5  DC5        -0.1070
     96  C5        -4.2290   -1.7520    8.0780 C.ar    5  DC5         0.0566
     97  C6        -4.8480   -2.6930    8.7990 C.ar    5  DC5         0.0849
     98  P        -10.1840   -3.1320   10.1640 P.3     6  DA6         0.2141
     99  OP1      -11.3990   -3.5670    9.4280 O.2     6  DA6        -0.5172
    100  OP2       -9.2130   -2.2180    9.5160 O.3     6  DA6        -0.4373
    101  O5'      -10.6620   -2.4410   11.5120 O.3     6  DA6        -0.3114
    102  C5'       -9.7040   -1.8590   12.3650 C.3     6  DA6         0.1811
    103  C4'      -10.2570   -1.6870   13.7470 C.3     6  DA6         0.1746
    104  O4'       -9.3000   -2.2250   14.6950 O.3     6  DA6        -0.3327
    105  C3'      -10.4220   -0.2210   14.0820 C.3     6  DA6         0.1558
    106  O3'      -11.7920    0.1010   13.8610 O.3     6  DA6        -0.3138
    107  C2'      -10.0030   -0.1470   15.5430 C.3     6  DA6         0.0865
    108  C1'       -8.9110   -1.2200   15.5980 C.3     6  DA6         0.2094
    109  N9        -7.3120   -1.0230   15.2980 N.ar    6  DA6        -0.2714
    110  C8        -6.3960   -1.3370   14.3280 C.ar    6  DA6         0.1815
    111  N7        -5.2500   -0.7120   14.4610 N.ar    6  DA6        -0.2193
    112  C5        -5.4260    0.0660   15.5940 C.ar    6  DA6         0.1518
    113  C6        -4.5770    0.9620   16.2670 C.ar    6  DA6         0.1919
    114  N6        -3.3300    1.2350   15.8760 N.pl3   6  DA6        -0.1054
    115  N1        -5.0610    1.5760   17.3680 N.ar    6  DA6        -0.2040
    116  C2        -6.3100    1.3010   17.7600 C.ar    6  DA6         0.2016
    117  N3        -7.2010    0.4780   17.2120 N.ar    6  DA6        -0.2048
    118  C4        -6.6910   -0.1150   16.1200 C.ar    6  DA6         0.1691
    119  P        -12.3340    1.4580   12.9130 P.3     7  DG7         0.2141
    120  OP1      -13.5080    1.5570   12.0160 O.2     7  DG7        -0.5172
    121  OP2      -11.0460    2.0250   12.4560 O.3     7  DG7        -0.4373
    122  O5'      -12.6840    2.0860   14.3440 O.3     7  DG7        -0.3114
    123  C5'      -12.6630    3.4890   14.4830 C.3     7  DG7         0.1811
    124  C4'      -11.6120    3.9770   15.4650 C.3     7  DG7         0.1746
    125  O4'      -10.5210    3.0440   15.6690 O.3     7  DG7        -0.3327
    126  C3'      -10.8370    5.2100   15.0310 C.3     7  DG7         0.1558
    127  O3'      -11.6690    6.3480   14.9390 O.3     7  DG7        -0.3138
    128  C2'       -9.7870    5.2450   16.1410 C.3     7  DG7         0.0865
    129  C1'       -9.3580    3.7860   16.0240 C.3     7  DG7         0.2094
    130  N9        -8.3750    3.6990   14.8620 N.ar    7  DG7        -0.2713
    131  C8        -8.6100    2.7250   13.9220 C.ar    7  DG7         0.1816
    132  N7        -7.5730    2.4740   13.1700 N.ar    7  DG7        -0.2173
    133  C5        -6.5930    3.3290   13.6400 C.ar    7  DG7         0.1748
    134  C6        -5.2520    3.5160   13.2180 C.ar    7  DG7         0.3023
    135  O6        -4.6470    2.9350   12.3090 O.2     7  DG7        -0.2633
    136  N1        -4.6020    4.4920   13.9690 N.ar    7  DG7        -0.1709
    137  C2        -5.1730    5.1990   14.9990 C.ar    7  DG7         0.2606
    138  N2        -4.3870    6.0980   15.6060 N.pl3   7  DG7        -0.0859
    139  N3        -6.4180    5.0360   15.4020 N.ar    7  DG7        -0.1918
    140  C4        -7.0690    4.0950   14.6860 C.ar    7  DG7         0.1722
    141  P        -12.0780    6.8730   13.3520 P.3     8  DC8         0.2141
    142  OP1      -13.2050    7.8420   13.2420 O.3     8  DC8        -0.4373
    143  OP2      -11.6850    6.0440   12.1700 O.2     8  DC8        -0.5172
    144  O5'      -10.8100    7.6820   13.8860 O.3     8  DC8        -0.3114
    145  C5'      -10.9070    8.5170   15.0460 C.3     8  DC8         0.1811
    146  C4'       -9.6050    9.2350   15.2900 C.3     8  DC8         0.1746
    147  O4'       -8.5480    8.2530   15.4090 O.3     8  DC8        -0.3327
    148  C3'       -9.1560   10.1420   14.1620 C.3     8  DC8         0.1558
    149  O3'       -9.6530   11.4600   14.3110 O.3     8  DC8        -0.3138
    150  C2'       -7.6450   10.1460   14.2910 C.3     8  DC8         0.0866
    151  C1'       -7.3720    8.7320   14.7860 C.3     8  DC8         0.2106
    152  N1        -7.0010    7.9960   13.6900 N.ar    8  DC8        -0.2556
    153  C2        -5.6470    7.9910   13.3330 C.ar    8  DC8         0.3531
    154  O2        -4.8180    8.4700   14.1250 O.2     8  DC8        -0.2443
    155  N3        -5.2820    7.4670   12.1390 N.ar    8  DC8        -0.1739
    156  C4        -6.2070    6.9640   11.3200 C.ar    8  DC8         0.1759
    157  N4        -5.8000    6.4590   10.1530 N.pl3   8  DC8        -0.1070
    158  C5        -7.5840    6.9600   11.6630 C.ar    8  DC8         0.0566
    159  C6        -7.9400    7.4780   12.8430 C.ar    8  DC8         0.0849
    160  P         -9.6360   12.5000   12.9930 P.3     9  DT9         0.2141
    161  OP1      -10.5440   13.5920   13.4040 O.3     9  DT9        -0.4373
    162  OP2       -9.9740   11.6690   11.8090 O.2     9  DT9        -0.5172
    163  O5'       -8.1820   13.0860   12.7330 O.3     9  DT9        -0.3114
    164  C5'       -7.4920   13.7020   13.7910 C.3     9  DT9         0.1811
    165  C4'       -6.0250   13.8140   13.4930 C.3     9  DT9         0.1746
    166  O4'       -5.4190   12.4880   13.4600 O.3     9  DT9        -0.3327
    167  C3'       -5.7090   14.3710   12.1230 C.3     9  DT9         0.1558
    168  O3'       -5.8230   15.7850   12.1200 O.3     9  DT9        -0.3138
    169  C2'       -4.2840   13.8760   11.9030 C.3     9  DT9         0.0866
    170  C1'       -4.3300   12.5000   12.5570 C.3     9  DT9         0.2106
    171  N1        -4.4360   11.4230   11.5770 N.ar    9  DT9        -0.2559
    172  C2        -3.2700   10.9310   11.0220 C.ar    9  DT9         0.3545
    173  O2        -2.1620   11.2870   11.3800 O.2     9  DT9        -0.2443
    174  N3        -3.4490   10.0020   10.0250 N.ar    9  DT9        -0.1533
    175  C4        -4.6490    9.5270    9.5400 C.ar    9  DT9         0.2804
    176  O4        -4.6490    8.6900    8.6400 O.2     9  DT9        -0.2654
    177  C5        -5.8130   10.0870   10.1660 C.ar    9  DT9         0.0534
    178  C6        -5.6680   10.9920   11.1380 C.ar    9  DT9         0.0824
    179  C7        -7.1670    9.6340    9.7060 C.3     9  DT9         0.0377
    180  P         -5.8290   16.6560   10.7150 P.3    10  DT10        0.2141
    181  OP1       -6.0500   18.0000   11.3180 O.3    10  DT10       -0.4373
    182  OP2       -6.9050   15.8450   10.0710 O.2    10  DT10       -0.5172
    183  O5'       -4.5640   16.6990    9.7730 O.3    10  DT10       -0.3114
    184  C5'       -3.4460   17.2980   10.2900 C.3    10  DT10        0.1811
    185  C4'       -2.2490   16.7710    9.5510 C.3    10  DT10        0.1746
    186  O4'       -2.4210   15.3380    9.5690 O.3    10  DT10       -0.3327
    187  C3'       -2.1610   16.9750    8.0550 C.3    10  DT10        0.1558
    188  O3'       -1.8460   18.3000    7.6670 O.3    10  DT10       -0.3138
    189  C2'       -1.1090   15.9110    7.6940 C.3    10  DT10        0.0866
    190  C1'       -1.6130   14.7770    8.5490 C.3    10  DT10        0.2106
    191  N1        -2.3960   13.9630    7.7150 N.ar   10  DT10       -0.2559
    192  C2        -1.8810   13.0650    6.7990 C.ar   10  DT10        0.3545
    193  O2        -0.7020   13.0300    6.4940 O.2    10  DT10       -0.2443
    194  N3        -2.8000   12.2060    6.2470 N.ar   10  DT10       -0.1533
    195  C4        -4.1530   12.1540    6.5140 C.ar   10  DT10        0.2804
    196  O4        -4.8520   11.3240    5.9390 O.2    10  DT10       -0.2654
    197  C5        -4.6110   13.1180    7.4750 C.ar   10  DT10        0.0534
    198  C6        -3.7380   13.9660    8.0260 C.ar   10  DT10        0.0824
    199  C7        -6.0680   13.1420    7.8320 C.3    10  DT10        0.0377
    200  P         -2.7560   18.8000    6.5950 P.3    11  DA11        0.2141
    201  OP1       -2.7520   20.2420    6.9470 O.3    11  DA11       -0.4373
    202  OP2       -3.9600   18.1540    6.0160 O.2    11  DA11       -0.5172
    203  O5'       -1.4840   18.5340    5.6560 O.3    11  DA11       -0.3114
    204  C5'       -1.2850   17.2080    5.2230 C.3    11  DA11        0.1811
    205  C4'        0.0050   16.9590    4.4970 C.3    11  DA11        0.1746
    206  O4'        0.5460   15.7490    5.0660 O.3    11  DA11       -0.3327
    207  C3'       -0.1720   16.7230    3.0020 C.3    11  DA11        0.1558
    208  O3'        0.5640   17.6670    2.2910 O.3    11  DA11       -0.3138
    209  C2'        0.3300   15.3210    2.7160 C.3    11  DA11        0.0865
    210  C1'        0.4520   14.7200    4.1070 C.3    11  DA11        0.2094
    211  N9        -0.8080   13.8860    4.2540 N.ar   11  DA11       -0.2714
    212  C8        -2.0990   14.3320    4.3640 C.ar   11  DA11        0.1815
    213  N7        -2.9990   13.4330    4.0430 N.ar   11  DA11       -0.2193
    214  C5        -2.2480   12.3200    3.6980 C.ar   11  DA11        0.1518
    215  C6        -2.6090   11.0320    3.2650 C.ar   11  DA11        0.1919
    216  N6        -3.8730   10.6350    3.1010 N.pl3  11  DA11       -0.1054
    217  N1        -1.6140   10.1570    3.0040 N.ar   11  DA11       -0.2040
    218  C2        -0.3480   10.5560    3.1700 C.ar   11  DA11        0.2016
    219  N3         0.1150   11.7380    3.5720 N.ar   11  DA11       -0.2048
    220  C4        -0.8970   12.5850    3.8220 C.ar   11  DA11        0.1691
    221  P         -0.0040   18.1300    0.6540 P.3    12  DT12        0.2141
    222  OP1        0.6070   19.2520   -0.0990 O.2    12  DT12       -0.5172
    223  OP2       -1.4750   17.9450    0.6770 O.3    12  DT12       -0.4373
    224  O5'        0.5370   16.7310    0.0840 O.3    12  DT12       -0.3114
    225  C5'        1.8990   16.5470   -0.2850 C.3    12  DT12        0.1811
    226  C4'        2.2190   15.1080   -0.6230 C.3    12  DT12        0.1746
    227  O4'        1.6790   14.2320    0.4020 O.3    12  DT12       -0.3327
    228  C3'        1.6290   14.5540   -1.9150 C.3    12  DT12        0.1558
    229  O3'        2.3460   14.9180   -3.0800 O.3    12  DT12       -0.3138
    230  C2'        1.6370   13.0550   -1.6630 C.3    12  DT12        0.0866
    231  C1'        1.2750   13.0070   -0.1780 C.3    12  DT12        0.2106
    232  N1        -0.2260   12.8340   -0.0450 N.ar   12  DT12       -0.2559
    233  C2        -0.7870   11.5970   -0.2990 C.ar   12  DT12        0.3545
    234  O2        -0.1640   10.6730   -0.7900 O.2    12  DT12       -0.2443
    235  N3        -2.1130   11.4800    0.0430 N.ar   12  DT12       -0.1533
    236  C4        -2.9150   12.4530    0.6010 C.ar   12  DT12        0.2804
    237  O4        -4.0900   12.1970    0.8540 O.2    12  DT12       -0.2654
    238  C5        -2.2600   13.7090    0.8340 C.ar   12  DT12        0.0534
    239  C6        -0.9710   13.8510    0.5100 C.ar   12  DT12        0.0824
    240  C7        -3.0490   14.8320    1.4380 C.3    12  DT12        0.0377
    241  P          1.5950   15.5010   -4.2250 P.3    13  DT13        0.2141
    242  OP1        2.4670   16.3290   -5.0880 O.2    13  DT13       -0.5172
    243  OP2        0.2560   15.9820   -3.8100 O.3    13  DT13       -0.4373
    244  O5'        1.2930   14.1080   -4.9600 O.3    13  DT13       -0.3114
    245  C5'        2.3110   13.4620   -5.7090 C.3    13  DT13        0.1811
    246  C4'        2.0570   11.9820   -5.8650 C.3    13  DT13        0.1746
    247  O4'        1.4860   11.4440   -4.6460 O.3    13  DT13       -0.3327
    248  C3'        1.0730   11.5610   -6.9430 C.3    13  DT13        0.1558
    249  O3'        1.6620   11.5420   -8.2300 O.3    13  DT13       -0.3138
    250  C2'        0.6690   10.1760   -6.4640 C.3    13  DT13        0.0866
    251  C1'        0.6420   10.3640   -4.9530 C.3    13  DT13        0.2106
    252  N1        -0.7310   10.8310   -4.4940 N.ar   13  DT13       -0.2559
    253  C2        -1.7670    9.9200   -4.4130 C.ar   13  DT13        0.3545
    254  O2        -1.6710    8.7690   -4.8000 O.2    13  DT13       -0.2443
    255  N3        -2.9270   10.4070   -3.8600 N.ar   13  DT13       -0.1533
    256  C4        -3.1500   11.6850   -3.3900 C.ar   13  DT13        0.2804
    257  O4        -4.2470   11.9730   -2.9190 O.2    13  DT13       -0.2654
    258  C5        -2.0270   12.5720   -3.5100 C.ar   13  DT13        0.0534
    259  C6        -0.8870   12.1240   -4.0440 C.ar   13  DT13        0.0824
    260  C7        -2.1700   13.9850   -3.0270 C.3    13  DT13        0.0377
    261  P          0.7730   11.5580   -9.6260 P.3    14  DC14        0.2141
    262  OP1        1.5410   11.5030  -10.9000 O.2    14  DC14       -0.5172
    263  OP2        0.0390   12.8070   -9.2770 O.3    14  DC14       -0.4373
    264  O5'       -0.2420   10.3120   -9.5670 O.3    14  DC14       -0.3114
    265  C5'       -0.1650    9.2090  -10.4990 C.3    14  DC14        0.1811
    266  C4'       -1.2580    8.1550  -10.2330 C.3    14  DC14        0.1746
    267  O4'       -1.7350    8.2550   -8.8610 O.3    14  DC14       -0.3327
    268  C3'       -2.5420    8.1790  -11.0730 C.3    14  DC14        0.1558
    269  O3'       -2.4530    7.5170  -12.3280 O.3    14  DC14       -0.3138
    270  C2'       -3.5320    7.4380  -10.1940 C.3    14  DC14        0.0866
    271  C1'       -3.1090    7.9020   -8.8050 C.3    14  DC14        0.2106
    272  N1        -3.8530    9.1080   -8.4080 N.ar   14  DC14       -0.2556
    273  C2        -5.2270    9.0210   -8.1560 C.ar   14  DC14        0.3531
    274  O2        -5.8060    7.9420   -8.3710 O.2    14  DC14       -0.2443
    275  N3        -5.8830   10.1100   -7.6890 N.ar   14  DC14       -0.1739
    276  C4        -5.2200   11.2470   -7.4740 C.ar   14  DC14        0.1759
    277  N4        -5.9090   12.2940   -7.0140 N.pl3  14  DC14       -0.1070
    278  C5        -3.8280   11.3560   -7.7230 C.ar   14  DC14        0.0566
    279  C6        -3.1840   10.2780   -8.1840 C.ar   14  DC14        0.0849
    280  P         -3.2430    8.1540  -13.7240 P.3    15  DA15        0.2141
    281  OP1       -2.8970    7.7540  -15.1060 O.2    15  DA15       -0.5172
    282  OP2       -3.0400    9.5520  -13.2740 O.3    15  DA15       -0.4373
    283  O5'       -4.8080    7.9060  -13.4990 O.3    15  DA15       -0.3114
    284  C5'       -5.4140    6.6360  -13.6940 C.3    15  DA15        0.1811
    285  C4'       -6.8460    6.6520  -13.2230 C.3    15  DA15        0.1746
    286  O4'       -6.8860    7.0640  -11.8320 O.3    15  DA15       -0.3327
    287  C3'       -7.7530    7.6560  -13.9200 C.3    15  DA15        0.1558
    288  O3'       -8.2440    7.2010  -15.1670 O.3    15  DA15       -0.3138
    289  C2'       -8.8420    7.8900  -12.8840 C.3    15  DA15        0.0865
    290  C1'       -8.0380    7.8390  -11.5890 C.3    15  DA15        0.2094
    291  N9        -7.6630    9.1590  -11.1510 N.ar   15  DA15       -0.2714
    292  C8        -6.4740    9.8020  -11.3750 C.ar   15  DA15        0.1815
    293  N7        -6.4230   11.0110  -10.8680 N.ar   15  DA15       -0.2193
    294  C5        -7.6640   11.1730  -10.2710 C.ar   15  DA15        0.1518
    295  C6        -8.2390   12.2400   -9.5590 C.ar   15  DA15        0.1919
    296  N6        -7.6100   13.3940   -9.3200 N.pl3  15  DA15       -0.1054
    297  N1        -9.4970   12.0790   -9.0970 N.ar   15  DA15       -0.2040
    298  C2       -10.1260   10.9230   -9.3360 C.ar   15  DA15        0.2016
    299  N3        -9.6900    9.8490   -9.9900 N.ar   15  DA15       -0.2048
    300  C4        -8.4380   10.0410  -10.4380 C.ar   15  DA15        0.1691
    301  P         -8.7510    8.3040  -16.3340 P.3    16  DA16        0.2141
    302  OP1       -9.2000    7.1620  -17.1760 O.2    16  DA16       -0.5172
    303  OP2       -8.0500    9.4600  -16.9550 O.3    16  DA16       -0.4373
    304  O5'      -10.0050    8.9090  -15.5630 O.3    16  DA16       -0.3114
    305  C5'      -11.2770    8.2470  -15.5940 C.3    16  DA16        0.1811
    306  C4'      -12.3230    9.0950  -14.9110 C.3    16  DA16        0.1746
    307  O4'      -11.9160    9.3570  -13.5420 O.3    16  DA16       -0.3327
    308  C3'      -12.5460   10.4660  -15.5160 C.3    16  DA16        0.1558
    309  O3'      -13.4690   10.3340  -16.5980 O.3    16  DA16       -0.3138
    310  C2'      -13.1170   11.2460  -14.3340 C.3    16  DA16        0.0865
    311  C1'      -12.3170   10.6570  -13.1670 C.3    16  DA16        0.2094
    312  N9       -11.1250   11.4270  -12.7800 N.ar   16  DA16       -0.2714
    313  C8        -9.8270   11.3110  -13.2030 C.ar   16  DA16        0.1815
    314  N7        -9.0470   12.2810  -12.7880 N.ar   16  DA16       -0.2193
    315  C5        -9.8910   13.0900  -12.0430 C.ar   16  DA16        0.1518
    316  C6        -9.6740   14.2840  -11.3340 C.ar   16  DA16        0.1919
    317  N6        -8.4890   14.8940  -11.2580 N.pl3  16  DA16       -0.1054
    318  N1       -10.7300   14.8360  -10.6990 N.ar   16  DA16       -0.2040
    319  C2       -11.9170   14.2240  -10.7750 C.ar   16  DA16        0.2016
    320  N3       -12.2440   13.1000  -11.4090 N.ar   16  DA16       -0.2048
    321  C4       -11.1740   12.5770  -12.0300 C.ar   16  DA16        0.1691
    322  P        -13.3750   11.3420  -17.9030 P.3    17  DT17        0.2141
    323  OP1      -14.0370   10.9360  -19.1640 O.2    17  DT17       -0.5172
    324  OP2      -11.9100   11.5410  -17.8510 O.3    17  DT17       -0.4373
    325  O5'      -13.9870   12.7470  -17.4330 O.3    17  DT17       -0.3114
    326  C5'      -15.3750   12.8790  -17.1730 C.3    17  DT17        0.1811
    327  C4'      -15.6610   13.8850  -16.0800 C.3    17  DT17        0.1746
    328  O4'      -14.7800   13.6660  -14.9510 O.3    17  DT17       -0.3327
    329  C3'      -15.4520   15.3550  -16.4150 C.3    17  DT17        0.1558
    330  O3'      -16.5310   15.9060  -17.1540 O.3    17  DT17       -0.3138
    331  C2'      -15.2830   15.9840  -15.0370 C.3    17  DT17        0.0866
    332  C1'      -14.5420   14.8850  -14.2850 C.3    17  DT17        0.2106
    333  N1       -13.0940   15.1070  -14.2420 N.ar   17  DT17       -0.2559
    334  C2       -12.6040   16.1580  -13.4900 C.ar   17  DT17        0.3545
    335  O2       -13.3230   16.9260  -12.8750 O.2    17  DT17       -0.2443
    336  N3       -11.2360   16.2790  -13.4840 N.ar   17  DT17       -0.1533
    337  C4       -10.3290   15.4740  -14.1400 C.ar   17  DT17        0.2804
    338  O4        -9.1270   15.7090  -14.0380 O.2    17  DT17       -0.2654
    339  C5       -10.9150   14.4060  -14.9000 C.ar   17  DT17        0.0534
    340  C6       -12.2430   14.2650  -14.9230 C.ar   17  DT17        0.0824
    341  C7       -10.0100   13.4740  -15.6510 C.3    17  DT17        0.0377
    342  P        -16.3520   17.1720  -18.3020 P.3    18  DT18        0.2141
    343  OP1      -17.5030   17.1860  -19.2530 O.2    18  DT18       -0.5172
    344  OP2      -14.9650   17.0310  -18.8140 O.3    18  DT18       -0.4373
    345  O5'      -16.3950   18.4540  -17.3720 O.3    18  DT18       -0.3114
    346  C5'      -17.4590   18.5570  -16.4680 C.3    18  DT18        0.1811
    347  C4'      -17.0260   19.2150  -15.2050 C.3    18  DT18        0.1746
    348  O4'      -15.9960   18.4660  -14.5160 O.3    18  DT18       -0.3327
    349  C3'      -16.4460   20.5860  -15.3680 C.3    18  DT18        0.1558
    350  O3'      -17.4980   21.4950  -15.6130 O.3    18  DT18       -0.3138
    351  C2'      -15.7660   20.7720  -14.0220 C.3    18  DT18        0.0866
    352  C1'      -15.2130   19.3680  -13.7510 C.3    18  DT18        0.2106
    353  N1       -13.8080   19.3670  -14.2220 N.ar   18  DT18       -0.2559
    354  C2       -12.7850   19.8250  -13.4130 C.ar   18  DT18        0.3545
    355  O2       -12.9800   20.4510  -12.3860 O.2    18  DT18       -0.2443
    356  N3       -11.5180   19.5250  -13.8520 N.ar   18  DT18       -0.1533
    357  C4       -11.1790   18.8280  -14.9930 C.ar   18  DT18        0.2804
    358  O4        -9.9940   18.6360  -15.2550 O.2    18  DT18       -0.2654
    359  C5       -12.2960   18.3870  -15.7800 C.ar   18  DT18        0.0534
    360  C6       -13.5380   18.6650  -15.3760 C.ar   18  DT18        0.0824
    361  C7       -12.0300   17.6200  -17.0420 C.3    18  DT18        0.0377
    362  P        -17.4030   22.4150  -16.7640 P.3    19  DA19        0.2141
    363  OP1      -18.6300   23.2350  -16.8770 O.3    19  DA19       -0.4373
    364  OP2      -16.9380   21.5820  -17.8960 O.2    19  DA19       -0.5172
    365  O5'      -16.1540   23.3640  -16.4390 O.3    19  DA19       -0.3114
    366  C5'      -16.2320   24.2970  -15.3670 C.3    19  DA19        0.1811
    367  C4'      -14.9340   25.0440  -15.1770 C.3    19  DA19        0.1746
    368  O4'      -14.0730   24.3210  -14.2480 O.3    19  DA19       -0.3327
    369  C3'      -14.1380   25.2400  -16.4670 C.3    19  DA19        0.1558
    370  O3'      -13.8560   26.6140  -16.7260 O.3    19  DA19       -0.3138
    371  C2'      -12.8390   24.4590  -16.2600 C.3    19  DA19        0.0865
    372  C1'      -12.7500   24.2370  -14.7530 C.3    19  DA19        0.2094
    373  N9       -12.1700   23.2890  -14.3380 N.ar   19  DA19       -0.2714
    374  C8       -12.3690   22.2890  -15.2540 C.ar   19  DA19        0.1815
    375  N7       -11.3130   21.5350  -15.4510 N.ar   19  DA19       -0.2193
    376  C5       -10.3560   22.0770  -14.6080 C.ar   19  DA19        0.1518
    377  C6        -9.0180   21.7310  -14.3500 C.ar   19  DA19        0.1919
    378  N6        -8.3910   20.7120  -14.9410 N.pl3  19  DA19       -0.1054
    379  N1        -8.3400   22.4780  -13.4530 N.ar   19  DA19       -0.2040
    380  C2        -8.9700   23.4990  -12.8600 C.ar   19  DA19        0.2016
    381  N3       -10.2220   23.9200  -13.0190 N.ar   19  DA19       -0.2048
    382  C4       -10.8680   23.1590  -13.9180 C.ar   19  DA19        0.1691
    383  P        -13.7670   27.0030  -18.3280 P.3    20  DA20        0.2141
    384  OP1      -14.8490   27.8200  -18.9240 O.2    20  DA20       -0.5172
    385  OP2      -13.5050   25.6350  -18.8320 O.3    20  DA20       -0.4373
    386  O5'      -12.3740   27.7740  -18.5030 O.3    20  DA20       -0.3114
    387  C5'      -12.2460   29.1330  -18.1030 C.3    20  DA20        0.1811
    388  C4'      -10.8510   29.4580  -17.6220 C.3    20  DA20        0.1746
    389  O4'      -10.4800   28.5730  -16.5300 O.3    20  DA20       -0.3327
    390  C3'       -9.7340   29.2810  -18.6380 C.3    20  DA20        0.1558
    391  O3'       -9.6260   30.3730  -19.5370 O.3    20  DA20       -0.3138
    392  C2'       -8.5140   29.0810  -17.7470 C.3    20  DA20        0.0865
    393  C1'       -9.1040   28.2720  -16.5940 C.3    20  DA20        0.2094
    394  N9        -9.0010   26.8120  -16.7590 N.ar   20  DA20       -0.2714
    395  C8        -9.9110   25.9520  -17.3160 C.ar   20  DA20        0.1815
    396  N7        -9.5240   24.6980  -17.3120 N.ar   20  DA20       -0.2193
    397  C5        -8.2750   24.7380  -16.7130 C.ar   20  DA20        0.1518
    398  C6        -7.3380   23.7340  -16.4120 C.ar   20  DA20        0.1919
    399  N6        -7.5260   22.4410  -16.6860 N.pl3  20  DA20       -0.1054
    400  N1        -6.1880   24.1100  -15.8130 N.ar   20  DA20       -0.2040
    401  C2        -6.0010   25.4060  -15.5380 C.ar   20  DA20        0.2016
    402  N3        -6.8060   26.4390  -15.7720 N.ar   20  DA20       -0.2048
    403  C4        -7.9390   26.0330  -16.3680 C.ar   20  DA20        0.1691
    404  P         -8.2180   30.2390  -20.6190 P.3    21  DT21        0.2141
    405  OP1       -7.8630   31.5380  -21.2570 O.3    21  DT21       -0.4373
    406  OP2       -9.0540   29.2660  -21.3610 O.2    21  DT21       -0.5172
    407  O5'       -6.8750   29.4830  -20.2010 O.3    21  DT21       -0.3114
    408  C5'       -5.8990   30.1200  -19.3490 C.3    21  DT21        0.1811
    409  C4'       -4.6270   29.3080  -19.2870 C.3    21  DT21        0.1746
    410  O4'       -4.8730   28.0370  -18.6420 O.3    21  DT21       -0.3327
    411  C3'       -4.0260   28.9270  -20.6260 C.3    21  DT21        0.1558
    412  O3'       -3.2660   29.9770  -21.2080 O.3    21  DT21       -0.3138
    413  C2'       -3.1860   27.7100  -20.2800 C.3    21  DT21        0.0866
    414  C1'       -4.0550   27.0380  -19.2270 C.3    21  DT21        0.2106
    415  N1        -4.9910   25.9980  -19.9390 N.ar   21  DT21       -0.2559
    416  C2        -4.3570   24.8160  -20.2730 C.ar   21  DT21        0.3545
    417  O2        -3.1970   24.5800  -19.9830 O.2    21  DT21       -0.2443
    418  N3        -5.1320   23.9150  -20.9630 N.ar   21  DT21       -0.1533
    419  C4        -6.4480   24.0740  -21.3440 C.ar   21  DT21        0.2804
    420  O4        -7.0120   23.1740  -21.9600 O.2    21  DT21       -0.2654
    421  C5        -7.0350   25.3280  -20.9620 C.ar   21  DT21        0.0534
    422  C6        -6.3040   26.2210  -20.2900 C.ar   21  DT21        0.0824
    423  C7        -8.4640   25.5970  -21.3320 C.3    21  DT21        0.0377
    424  P         -3.1660   30.0970  -22.9130 P.3    22  DC22        0.2141
    425  OP1       -2.7160   31.3970  -23.4720 O.2    22  DC22       -0.5172
    426  OP2       -4.5190   29.5830  -23.2520 O.3    22  DC22       -0.4373
    427  O5'       -2.0970   28.9770  -23.3030 O.3    22  DC22       -0.3114
    428  C5'       -0.7130   29.1420  -22.9880 C.3    22  DC22        0.1811
    429  C4'        0.0510   27.8630  -23.2640 C.3    22  DC22        0.1746
    430  O4'       -0.5670   26.7760  -22.5260 O.3    22  DC22       -0.3327
    431  C3'        0.0700   27.3680  -24.7050 C.3    22  DC22        0.1558
    432  O3'        1.1230   27.9860  -25.4410 O.3    22  DC22       -0.3138
    433  C2'        0.3470   25.8780  -24.5350 C.3    22  DC22        0.0866
    434  C1'       -0.4050   25.5640  -23.2410 C.3    22  DC22        0.2106
    435  N1        -1.7110   24.9240  -23.4530 N.ar   22  DC22       -0.2556
    436  C2        -1.7390   23.5890  -23.8750 C.ar   22  DC22        0.3531
    437  O2        -0.6610   22.9940  -24.0480 O.2    22  DC22       -0.2443
    438  N3        -2.9350   22.9880  -24.0810 N.ar   22  DC22       -0.1739
    439  C4        -4.0650   23.6660  -23.8830 C.ar   22  DC22        0.1759
    440  N4        -5.2200   23.0320  -24.0990 N.pl3  22  DC22       -0.1070
    441  C5        -4.0580   25.0190  -23.4560 C.ar   22  DC22        0.0566
    442  C6        -2.8750   25.6090  -23.2530 C.ar   22  DC22        0.0849
    443  P          1.1480   27.8740  -27.0870 P.3    23  DG23        0.2141
    444  OP1        2.4540   28.3500  -26.5450 O.3    23  DG23       -0.4373
    445  OP2        0.6170   28.4710  -28.3350 O.2    23  DG23       -0.5172
    446  O5'        1.2550   26.3040  -27.2990 O.3    23  DG23       -0.3114
    447  C5'        2.5110   25.6400  -27.2110 C.3    23  DG23        0.1811
    448  C4'        2.3540   24.1910  -27.5880 C.3    23  DG23        0.1746
    449  O4'        1.5170   23.5370  -26.5990 O.3    23  DG23       -0.3327
    450  C3'        1.6580   23.9730  -28.9250 C.3    23  DG23        0.1558
    451  O3'        2.5970   23.9910  -30.0070 O.3    23  DG23       -0.3138
    452  C2'        0.9940   22.6170  -28.7290 C.3    23  DG23        0.0865
    453  C1'        0.6070   22.6690  -27.2430 C.3    23  DG23        0.2093
    454  N9        -0.7720   23.1370  -27.0000 N.ar   23  DG23       -0.2728
    455  C8        -1.2020   24.3750  -26.5870 C.ar   23  DG23        0.1814
    456  N7        -2.5020   24.4870  -26.5640 N.ar   23  DG23       -0.2177
    457  C5        -2.9610   23.2530  -26.9830 C.ar   23  DG23        0.1711
    458  C6        -4.2840   22.7710  -27.1610 C.2    23  DG23        0.2985
    459  O6        -5.3490   23.3710  -26.9720 O.2    23  DG23       -0.2655
    460  N1        -4.3020   21.4520  -27.6050 N.am   23  DG23       -0.1042
    461  C2        -3.1840   20.6900  -27.8470 C.1    23  DG23        0.1460
    462  N2        -3.4020   19.4370  -28.2700 N.2    23  DG23       -0.0024
    463  N3        -1.9490   21.1240  -27.6870 N.pl3  23  DG23       -0.1259
    464  C4        -1.9070   22.4030  -27.2570 C.ar   23  DG23        0.1688
    465  P          2.0430   24.0850  -31.6040 P.3    24  DC24        0.2141
    466  OP1        3.2270   23.9410  -32.5120 O.2    24  DC24       -0.5172
    467  OP2        1.2060   25.3150  -31.6770 O.3    24  DC24       -0.4373
    468  O5'        1.0850   22.8310  -31.8460 O.3    24  DC24       -0.3114
    469  C5'        1.6090   21.5820  -32.3090 C.3    24  DC24        0.1811
    470  C4'        0.4920   20.6080  -32.6000 C.3    24  DC24        0.1746
    471  O4'       -0.3370   20.4920  -31.4110 O.3    24  DC24       -0.3327
    472  C3'       -0.4890   20.9650  -33.7140 C.3    24  DC24        0.1558
    473  O3'       -0.0300   20.5640  -35.0050 O.3    24  DC24       -0.3138
    474  C2'       -1.7350   20.1800  -33.3150 C.3    24  DC24        0.0866
    475  C1'       -1.6890   20.2690  -31.7890 C.3    24  DC24        0.2106
    476  N1        -2.5000   21.3120  -31.2610 N.ar   24  DC24       -0.2556
    477  C2        -3.8870   21.1280  -31.3070 C.ar   24  DC24        0.3531
    478  O2        -4.3330   20.0410  -31.7130 O.2    24  DC24       -0.2443
    479  N3        -4.7000   22.1360  -30.9110 N.ar   24  DC24       -0.1739
    480  C4        -4.1770   23.2860  -30.4840 C.ar   24  DC24        0.1759
    481  N4        -5.0170   24.2510  -30.1030 N.pl3  24  DC24       -0.1070
    482  C5        -2.7740   23.4920  -30.4290 C.ar   24  DC24        0.0566
    483  C6        -1.9750   22.4940  -30.8220 C.ar   24  DC24        0.0849
    484  P         -0.7380   21.2230  -36.3990 P.3    25  DA25        0.2141
    485  OP1       -0.0220   20.5450  -37.5060 O.2    25  DA25       -0.5172
    486  OP2       -0.5330   22.6800  -36.1980 O.3    25  DA25       -0.4373
    487  O5'       -2.3000   20.8850  -36.5420 O.3    25  DA25       -0.3114
    488  C5'       -2.7490   19.5480  -36.7690 C.3    25  DA25        0.1811
    489  C4'       -4.2560   19.4550  -36.6370 C.3    25  DA25        0.1746
    490  O4'       -4.6380   19.7800  -35.2760 O.3    25  DA25       -0.3327
    491  C3'       -5.0490   20.4460  -37.4810 C.3    25  DA25        0.1558
    492  O3'       -5.1740   20.0100  -38.8340 O.3    25  DA25       -0.3138
    493  C2'       -6.3720   20.5110  -36.7100 C.3    25  DA25        0.0865
    494  C1'       -5.8320   20.5440  -35.2870 C.3    25  DA25        0.2094
    495  N9        -5.5640   21.8480  -34.7720 N.ar   25  DA25       -0.2714
    496  C8        -4.3760   22.5300  -34.7790 C.ar   25  DA25        0.1815
    497  N7        -4.4790   23.7780  -34.3860 N.ar   25  DA25       -0.2193
    498  C5        -5.8280   23.9250  -34.1040 C.ar   25  DA25        0.1518
    499  C6        -6.5840   25.0170  -33.6420 C.ar   25  DA25        0.1919
    500  N6        -6.0620   26.2160  -33.3740 N.pl3  25  DA25       -0.1054
    501  N1        -7.9090   24.8320  -33.4650 N.ar   25  DA25       -0.2040
    502  C2        -8.4310   23.6290  -33.7330 C.ar   25  DA25        0.2016
    503  N3        -7.8240   22.5280  -34.1700 N.ar   25  DA25       -0.2048
    504  C4        -6.5090   22.7460  -34.3370 C.ar   25  DA25        0.1691
    505  P         -6.0830   20.8650  -39.9380 P.3    26  DT26        0.2141
    506  OP1       -6.2280   19.7710  -40.9130 O.2    26  DT26       -0.5172
    507  OP2       -4.8740   21.7240  -39.9410 O.3    26  DT26       -0.4373
    508  O5'       -7.4390   21.7100  -40.0730 O.3    26  DT26       -0.3114
    509  C5'       -8.6700   21.0130  -40.1560 C.3    26  DT26        0.1811
    510  C4'       -9.9020   21.9070  -39.9760 C.3    26  DT26        0.1746
    511  O4'      -10.1100   22.1800  -38.5770 O.3    26  DT26       -0.3327
    512  C3'       -9.8100   23.2980  -40.5990 C.3    26  DT26        0.1558
    513  O3'      -10.2420   23.3270  -41.9450 O.3    26  DT26       -0.3138
    514  C2'      -10.6310   24.2130  -39.6740 C.3    26  DT26        0.0866
    515  C1'      -10.3700   23.5630  -38.3520 C.3    26  DT26        0.2106
    516  N1        -9.2860   24.2890  -37.6710 N.ar   26  DT26       -0.2559
    517  C2        -9.6520   25.1700  -36.6710 C.ar   26  DT26        0.3545
    518  O2       -10.8100   25.3670  -36.3500 O.2    26  DT26       -0.2443
    519  N3        -8.6070   25.8190  -36.0580 N.ar   26  DT26       -0.1533
    520  C4        -7.2640   25.6780  -36.3380 C.ar   26  DT26        0.2804
    521  O4        -6.4410   26.3300  -35.6990 O.3    26  DT26       -0.2654
    522  C5        -6.9650   24.7460  -37.3880 C.ar   26  DT26        0.0534
    523  C6        -7.9620   24.1010  -38.0020 C.ar   26  DT26        0.0824
    524  C7        -5.5310   24.5230  -37.7670 C.3    26  DT26        0.0377
    525  P         -9.8310   24.5900  -42.7370 P.3    27  DT27        0.2141
    526  OP1      -10.1770   24.4730  -44.1770 O.2    27  DT27       -0.5172
    527  OP2       -8.4100   24.4890  -42.3050 O.3    27  DT27       -0.4373
    528  O5'      -10.4160   25.9560  -42.1770 O.3    27  DT27       -0.3114
    529  C5'      -11.7450   26.3810  -42.4930 C.3    27  DT27        0.1811
    530  C4'      -11.9770   27.7520  -41.9140 C.3    27  DT27        0.1746
    531  O4'      -11.9240   27.6800  -40.4690 O.3    27  DT27       -0.3327
    532  C3'      -10.8930   28.7490  -42.2850 C.3    27  DT27        0.1558
    533  O3'      -11.2060   29.3360  -43.5420 O.3    27  DT27       -0.3138
    534  C2'      -10.9350   29.7510  -41.1410 C.3    27  DT27        0.0866
    535  C1'      -11.3370   28.8580  -39.9590 C.3    27  DT27        0.2106
    536  N1       -10.3190   28.4770  -39.0030 N.ar   27  DT27       -0.2559
    537  C2       -10.4790   28.6040  -37.6360 C.ar   27  DT27        0.3545
    538  O2       -11.5210   28.9670  -37.1200 O.2    27  DT27       -0.2443
    539  N3        -9.3680   28.2910  -36.8900 N.ar   27  DT27       -0.1533
    540  C4        -8.1420   27.8730  -37.3630 C.ar   27  DT27        0.2804
    541  O4        -7.2380   27.6270  -36.5680 O.3    27  DT27       -0.2654
    542  C5        -8.0550   27.7670  -38.7920 C.ar   27  DT27        0.0534
    543  C6        -9.1200   28.0650  -39.5420 C.ar   27  DT27        0.0824
    544  C7        -6.7600   27.3200  -39.4040 C.3    27  DT27        0.0377
    545  P         -9.9470   30.0730  -44.5820 P.3    28  DA28        0.2141
    546  OP1       -9.5280   29.9060  -45.9910 O.2    28  DA28       -0.5172
    547  OP2       -8.9460   29.9610  -43.4990 O.3    28  DA28       -0.4373
    548  O5'      -10.5890   31.5300  -44.3810 O.3    28  DA28       -0.3114
    549  C5'       -9.7860   32.7060  -44.4470 C.3    28  DA28        0.1811
    550  C4'      -10.1670   33.6860  -43.3630 C.3    28  DA28        0.1746
    551  O4'      -10.6800   32.9350  -42.2300 O.3    28  DA28       -0.3327
    552  C3'       -9.0420   34.5270  -42.7660 C.3    28  DA28        0.1558
    553  O3'       -8.6720   35.6810  -43.5080 O.3    28  DA28       -0.3138
    554  C2'       -9.5870   34.8470  -41.3800 C.3    28  DA28        0.0865
    555  C1'      -10.2400   33.5160  -41.0210 C.3    28  DA28        0.2094
    556  N9        -9.2650   32.5350  -40.3810 N.ar   28  DA28       -0.2714
    557  C8        -8.9270   31.3210  -40.9210 C.ar   28  DA28        0.1815
    558  N7        -8.2860   30.5330  -40.0910 N.ar   28  DA28       -0.2193
    559  C5        -8.1960   31.2800  -38.9270 C.ar   28  DA28        0.1518
    560  C6        -7.6280   31.0070  -37.6690 C.ar   28  DA28        0.1919
    561  N6        -7.0200   29.8580  -37.3670 N.pl3  28  DA28       -0.1054
    562  N1        -7.7090   31.9680  -36.7240 N.ar   28  DA28       -0.2040
    563  C2        -8.3190   33.1190  -37.0290 C.ar   28  DA28        0.2016
    564  N3        -8.8910   33.4910  -38.1720 N.ar   28  DA28       -0.2048
    565  C4        -8.7930   32.5150  -39.0900 C.ar   28  DA28        0.1691
    566  P         -7.1790   35.8360  -43.7460 P.3    29  DC29        0.2141
    567  OP1       -6.9700   37.0150  -44.6130 O.2    29  DC29       -0.5172
    568  OP2       -6.5600   34.5490  -44.1160 O.3    29  DC29       -0.4373
    569  O5'       -6.5980   36.0950  -42.2730 O.3    29  DC29       -0.3114
    570  C5'       -6.9730   37.2200  -41.4890 C.3    29  DC29        0.1811
    571  C4'       -6.6660   37.0420  -40.0170 C.3    29  DC29        0.1746
    572  O4'       -7.2840   35.8270  -39.5120 O.3    29  DC29       -0.3327
    573  C3'       -5.2000   36.9050  -39.6290 C.3    29  DC29        0.1558
    574  O3'       -4.5280   38.1510  -39.5780 O.3    29  DC29       -0.3138
    575  C2'       -5.3050   36.2160  -38.2740 C.3    29  DC29        0.0866
    576  C1'       -6.4750   35.2590  -38.5040 C.3    29  DC29        0.2106
    577  N1        -6.0070   33.8860  -38.9810 N.ar   29  DC29       -0.2556
    578  C2        -5.5970   32.9610  -38.0140 C.ar   29  DC29        0.3531
    579  O2        -5.4540   33.3460  -36.8410 O.2    29  DC29       -0.2443
    580  N3        -5.3670   31.6780  -38.3830 N.ar   29  DC29       -0.1739
    581  C4        -5.5320   31.3100  -39.6540 C.ar   29  DC29        0.1759
    582  N4        -5.2930   30.0360  -39.9720 N.pl3  29  DC29       -0.1070
    583  C5        -5.9470   32.2320  -40.6490 C.ar   29  DC29        0.0566
    584  C6        -6.1730   33.4980  -40.2800 C.ar   29  DC29        0.0849
    585  P         -2.7650   38.4750  -39.8820 P.3    30  DC30        0.2141
    586  OP1       -2.3420   39.6120  -40.7470 O.2    30  DC30       -0.5172
    587  OP2       -2.6360   37.0780  -40.3870 O.3    30  DC30       -0.4373
    588  O5'       -1.9910   38.5830  -38.4980 O.3    30  DC30       -0.3114
    589  C5'       -0.5910   38.2860  -38.3980 C.3    30  DC30        0.1811
    590  C4'       -0.0390   38.8820  -37.1320 C.3    30  DC30        0.1746
    591  O4'        0.0020   40.3190  -37.2650 O.3    30  DC30       -0.3327
    592  C3'       -0.9080   38.6130  -35.9180 C.3    30  DC30        0.1558
    593  O3'       -0.5240   37.3630  -35.3500 O.3    30  DC30       -0.3138
    594  C2'       -0.6560   39.8220  -35.0120 C.3    30  DC30        0.0866
    595  C1'       -0.3200   40.9210  -36.0260 C.3    30  DC30        0.2106
    596  N1        -1.4320   42.0150  -36.1770 N.ar   30  DC30       -0.2556
    597  C2        -1.6140   42.8810  -35.0930 C.ar   30  DC30        0.3531
    598  O2        -1.3980   42.4560  -33.9450 O.2    30  DC30       -0.2443
    599  N3        -2.0200   44.1530  -35.3250 N.ar   30  DC30       -0.1739
    600  C4        -2.2420   44.5650  -36.5740 C.ar   30  DC30        0.1759
    601  N4        -2.6410   45.8260  -36.7540 N.pl3  30  DC30       -0.1070
    602  C5        -2.0630   43.7030  -37.6860 C.ar   30  DC30        0.0566
    603  C6        -1.6620   42.4480  -37.4520 C.ar   30  DC30        0.0849
    604  P         -1.7220   36.3040  -35.0150 P.3    31  DT31        0.2141
    605  OP1       -0.8210   35.1390  -34.8690 O.3    31  DT31       -0.4373
    606  OP2       -2.7890   36.3080  -36.0430 O.2    31  DT31       -0.5172
    607  O5'       -2.4920   36.5480  -33.6360 O.3    31  DT31       -0.3114
    608  C5'       -1.7050   37.0480  -32.5660 C.3    31  DT31        0.1811
    609  C4'       -2.5320   37.7400  -31.5140 C.3    31  DT31        0.1746
    610  O4'       -3.1910   38.9160  -32.0580 O.3    31  DT31       -0.3327
    611  C3'       -3.6630   36.9300  -30.9050 C.3    31  DT31        0.1558
    612  O3'       -3.1960   35.9840  -29.9530 O.3    31  DT31       -0.3138
    613  C2'       -4.5430   38.0290  -30.3240 C.3    31  DT31        0.0866
    614  C1'       -4.4050   39.1370  -31.3710 C.3    31  DT31        0.2106
    615  N1        -5.2250   39.7400  -32.3150 N.ar   31  DT31       -0.2559
    616  C2        -6.2180   40.5720  -31.8330 C.ar   31  DT31        0.3545
    617  O2        -6.0980   41.2300  -30.8150 O.2    31  DT31       -0.2443
    618  N3        -7.3650   40.6050  -32.5890 N.ar   31  DT31       -0.1533
    619  C4        -7.6120   39.9060  -33.7520 C.ar   31  DT31        0.2804
    620  O4        -8.6940   40.0400  -34.3200 O.2    31  DT31       -0.2654
    621  C5        -6.5330   39.0640  -34.1870 C.ar   31  DT31        0.0534
    622  C6        -5.4070   39.0130  -33.4710 C.ar   31  DT31        0.0824
    623  C7        -6.7050   38.2620  -35.4430 C.3    31  DT31        0.0377
    624  P         -4.2650   35.5650  -28.5800 P.3    32  DT32        0.2141
    625  OP1       -3.9730   35.9770  -27.1900 O.3    32  DT32       -0.4373
    626  OP2       -3.6000   34.3750  -29.1650 O.2    32  DT32       -0.5172
    627  O5'       -5.8420   35.3210  -28.7260 O.3    32  DT32       -0.3114
    628  C5'       -6.7990   36.3570  -28.4910 C.3    32  DT32        0.1811
    629  C4'       -8.0090   36.1920  -29.4010 C.3    32  DT32        0.1746
    630  O4'       -7.6220   36.1960  -30.8040 O.3    32  DT32       -0.3327
    631  C3'       -8.7470   34.8700  -29.2700 C.3    32  DT32        0.1558
    632  O3'       -9.5610   34.8460  -28.1280 O.3    32  DT32       -0.3138
    633  C2'       -9.5590   34.8630  -30.5550 C.3    32  DT32        0.0866
    634  C1'       -8.4730   35.3250  -31.5400 C.3    32  DT32        0.2106
    635  N1        -7.7060   34.1790  -32.1270 N.ar   32  DT32       -0.2559
    636  C2        -8.3580   33.3570  -33.0270 C.ar   32  DT32        0.3545
    637  O2        -9.5420   33.4690  -33.2920 O.2    32  DT32       -0.2443
    638  N3        -7.5710   32.3920  -33.6080 N.ar   32  DT32       -0.1533
    639  C4        -6.2280   32.1710  -33.3860 C.ar   32  DT32        0.2804
    640  O4        -5.6560   31.2640  -33.9850 O.2    32  DT32       -0.2654
    641  C5        -5.6230   33.0650  -32.4380 C.ar   32  DT32        0.0534
    642  C6        -6.3650   34.0120  -31.8580 C.ar   32  DT32        0.0824
    643  C7        -4.1640   32.9050  -32.1270 C.3    32  DT32        0.0377
    644  P         -9.4490   33.6610  -27.3200 P.3    33  DA33        0.2141
    645  OP1       -9.8220   34.1630  -25.9770 O.3    33  DA33       -0.4373
    646  OP2       -8.1940   32.9010  -27.5280 O.2    33  DA33       -0.5172
    647  O5'      -10.6060   32.7170  -27.8980 O.3    33  DA33       -0.3114
    648  C5'      -11.8880   33.2900  -28.1100 C.3    33  DA33        0.1811
    649  C4'      -12.5850   32.7160  -29.3200 C.3    33  DA33        0.1746
    650  O4'      -11.7430   32.8580  -30.4900 O.3    33  DA33       -0.3327
    651  C3'      -12.9000   31.2290  -29.2740 C.3    33  DA33        0.1558
    652  O3'      -14.0850   30.9470  -28.5550 O.3    33  DA33       -0.3138
    653  C2'      -12.9830   30.8510  -30.7460 C.3    33  DA33        0.0865
    654  C1'      -11.8890   31.7370  -31.3330 C.3    33  DA33        0.2094
    655  N9       -10.5830   31.0250  -31.4180 N.ar   33  DA33       -0.2714
    656  C8        -9.4070   31.3320  -30.7860 C.ar   33  DA33        0.1815
    657  N7        -8.3900   30.6010  -31.1750 N.ar   33  DA33       -0.2193
    658  C5        -8.9350   29.7550  -32.1280 C.ar   33  DA33        0.1518
    659  C6        -8.3760   28.7370  -32.9210 C.ar   33  DA33        0.1919
    660  N6        -7.0880   28.3890  -32.8750 N.pl3  33  DA33       -0.1054
    661  N1        -9.1950   28.0840  -33.7710 N.ar   33  DA33       -0.2040
    662  C2       -10.4850   28.4350  -33.8170 C.ar   33  DA33        0.2016
    663  N3       -11.1270   29.3730  -33.1240 N.ar   33  DA33       -0.2048
    664  C4       -10.2850   30.0030  -32.2880 C.ar   33  DA33        0.1691
    665  P        -14.0750   29.7820  -27.4920 P.3    34  DT34        0.2141
    666  OP1      -15.2500   29.8440  -26.5950 O.3    34  DT34       -0.4373
    667  OP2      -12.7240   29.7320  -26.8920 O.2    34  DT34       -0.5172
    668  O5'      -14.1890   28.4910  -28.4360 O.3    34  DT34       -0.3114
    669  C5'      -15.4770   28.0250  -28.8120 C.3    34  DT34        0.1811
    670  C4'      -15.4260   27.0990  -30.0030 C.3    34  DT34        0.1746
    671  O4'      -14.4390   27.5850  -30.9470 O.3    34  DT34       -0.3327
    672  C3'      -15.0500   25.6490  -29.7250 C.3    34  DT34        0.1558
    673  O3'      -16.1950   24.8560  -29.4580 O.3    34  DT34       -0.3138
    674  C2'      -14.3200   25.2040  -30.9870 C.3    34  DT34        0.0866
    675  C1'      -13.7600   26.5110  -31.5530 C.3    34  DT34        0.2106
    676  N1       -12.2620   26.6180  -31.1270 N.ar   34  DT34       -0.2559
    677  C2       -11.3390   25.9160  -31.8790 C.ar   34  DT34        0.3545
    678  O2       -11.6540   25.0720  -32.6990 O.2    34  DT34       -0.2443
    679  N3       -10.0260   26.2370  -31.6340 N.ar   34  DT34       -0.1533
    680  C4        -9.5530   27.1690  -30.7340 C.ar   34  DT34        0.2804
    681  O4        -8.3420   27.3470  -30.6270 O.2    34  DT34       -0.2654
    682  C5       -10.5720   27.8550  -29.9910 C.ar   34  DT34        0.0534
    683  C6       -11.8570   27.5620  -30.2090 C.ar   34  DT34        0.0824
    684  C7       -10.1580   28.8880  -28.9850 C.3    34  DT34        0.0377
    685  P        -16.1710   23.5510  -28.4020 P.3    35  DA35        0.2141
    686  OP1      -17.4360   22.8290  -28.1260 O.2    35  DA35       -0.5172
    687  OP2      -15.4480   24.2270  -27.3000 O.3    35  DA35       -0.4373
    688  O5'      -15.1440   22.5650  -29.1370 O.3    35  DA35       -0.3114
    689  C5'      -15.6070   21.7030  -30.1700 C.3    35  DA35        0.1811
    690  C4'      -14.4640   20.9770  -30.8580 C.3    35  DA35        0.1746
    691  O4'      -13.5970   21.9260  -31.5200 O.3    35  DA35       -0.3327
    692  C3'      -13.5270   20.2170  -29.9410 C.3    35  DA35        0.1558
    693  O3'      -14.0970   18.9850  -29.6020 O.3    35  DA35       -0.3138
    694  C2'      -12.2980   20.0600  -30.8280 C.3    35  DA35        0.0865
    695  C1'      -12.2750   21.4150  -31.5210 C.3    35  DA35        0.2094
    696  N9       -11.4040   22.3670  -30.8960 N.ar   35  DA35       -0.2714
    697  C8       -11.7320   23.2470  -29.8980 C.ar   35  DA35        0.1815
    698  N7       -10.7230   23.9750  -29.4820 N.ar   35  DA35       -0.2193
    699  C5        -9.6590   23.5420  -30.2570 C.ar   35  DA35        0.1518
    700  C6        -8.3060   23.9200  -30.3030 C.ar   35  DA35        0.1919
    701  N6        -7.7750   24.8620  -29.5200 N.pl3  35  DA35       -0.1054
    702  N1        -7.5090   23.2900  -31.1920 N.ar   35  DA35       -0.2040
    703  C2        -8.0420   22.3470  -31.9770 C.ar   35  DA35        0.2016
    704  N3        -9.2970   21.9060  -32.0280 N.ar   35  DA35       -0.2048
    705  C4       -10.0630   22.5510  -31.1320 C.ar   35  DA35        0.1691
    706  P        -13.9040   18.4370  -28.1640 P.3    36  DC36        0.2141
    707  OP1      -14.7720   17.2880  -27.7980 O.2    36  DC36       -0.5172
    708  OP2      -13.6050   19.4870  -27.1530 O.3    36  DC36       -0.4373
    709  O5'      -12.5120   17.8830  -28.7290 O.3    36  DC36       -0.3114
    710  C5'      -12.4450   16.7400  -29.5960 C.3    36  DC36        0.1811
    711  C4'      -11.0040   16.4500  -29.9900 C.3    36  DC36        0.1746
    712  O4'      -10.4620   17.6140  -30.6770 O.3    36  DC36       -0.3327
    713  C3'      -10.0290   16.2220  -28.8380 C.3    36  DC36        0.1558
    714  O3'      -10.0130   14.9060  -28.3000 O.3    36  DC36       -0.3138
    715  C2'       -8.6920   16.6350  -29.4310 C.3    36  DC36        0.0866
    716  C1'       -9.1110   17.8310  -30.2830 C.3    36  DC36        0.2106
    717  N1        -8.9190   19.0670  -29.2940 N.ar   36  DC36       -0.2556
    718  C2        -7.6390   19.6000  -29.1030 C.ar   36  DC36        0.3531
    719  O2        -6.6540   18.9320  -29.4600 O.2    36  DC36       -0.2443
    720  N3        -7.5110   20.8230  -28.5340 N.ar   36  DC36       -0.1739
    721  C4        -8.5970   21.5030  -28.1650 C.ar   36  DC36        0.1759
    722  N4        -8.4230   22.7040  -27.6090 N.pl3  36  DC36       -0.1070
    723  C5        -9.9030   20.9810  -28.3500 C.ar   36  DC36        0.0566
    724  C6       -10.0240   19.7730  -28.9120 C.ar   36  DC36        0.0849
    725  P        -10.4120   14.6610  -26.7280 P.3    37  DC37        0.2141
    726  OP1      -10.9000   13.3310  -26.2520 O.2    37  DC37       -0.5172
    727  OP2      -10.9560   15.8950  -26.1220 O.3    37  DC37       -0.4373
    728  O5'       -8.8260   14.7140  -26.5670 O.3    37  DC37       -0.3114
    729  C5'       -8.0340   13.6200  -26.9840 C.3    37  DC37        0.1811
    730  C4'       -6.6660   14.0810  -27.4140 C.3    37  DC37        0.1744
    731  O4'       -6.7700   15.3090  -28.1740 O.3    37  DC37       -0.3348
    732  C3'       -5.6790   14.4470  -26.3260 C.3    37  DC37        0.1555
    733  O3'       -5.0700   13.3180  -25.7700 O.3    37  DC37       -0.3139
    734  C2'       -4.6610   15.2880  -27.0790 C.3    37  DC37        0.0836
    735  C1'       -5.5630   16.0620  -28.0300 C.3    37  DC37        0.1999
    736  N1        -5.8550   17.3760  -27.3660 N.pl3  37  DC37       -0.2132
    737  C2        -4.9380   18.4310  -27.4470 C.2    37  DC37        0.4331
    738  O2        -3.8060   18.2040  -27.9090 O.2    37  DC37       -0.2850
    739  N3        -5.3080   19.6620  -27.0220 N.2    37  DC37        0.0237
    740  C4        -6.5330   19.8580  -26.5320 C.2    37  DC37        0.4172
    741  N4        -6.8540   21.0880  -26.1250 N.pl3  37  DC37        0.2162
    742  C5        -7.4770   18.8030  -26.4410 C.2    37  DC37        0.0937
    743  C6        -7.1070   17.5880  -26.8630 C.3    37  DC37        0.1340
    744  P         -4.9920   13.3070  -24.5460 P.3    38  DA38        0.2141
    745  OP1       -4.8780   11.9100  -24.0620 O.2    38  DA38       -0.5172
    746  OP2       -5.9210   14.2540  -23.8870 O.3    38  DA38       -0.4373
    747  O5'       -3.5740   14.0470  -24.4700 O.3    38  DA38       -0.3114
    748  C5'       -2.4080   13.5290  -25.0960 C.3    38  DA38        0.1811
    749  C4'       -1.2840   14.5350  -25.0770 C.3    38  DA38        0.1746
    750  O4'       -1.7420   15.7620  -25.6960 O.3    38  DA38       -0.3327
    751  C3'       -0.7790   14.9650  -23.7020 C.3    38  DA38        0.1558
    752  O3'        0.2110   14.0970  -23.1820 O.3    38  DA38       -0.3138
    753  C2'       -0.2300   16.3610  -23.9470 C.3    38  DA38        0.0865
    754  C1'       -1.1470   16.8740  -25.0610 C.3    38  DA38        0.2094
    755  N9        -2.1910   17.7450  -24.4860 N.ar   38  DA38       -0.2714
    756  C8        -3.5300   17.6260  -24.7530 C.ar   38  DA38        0.1815
    757  N7        -4.1160   18.7660  -25.0350 N.ar   38  DA38       -0.2193
    758  C5        -3.0920   19.6960  -24.9460 C.ar   38  DA38        0.1518
    759  C6        -3.0610   21.0890  -25.1320 C.ar   38  DA38        0.1919
    760  N6        -4.1320   21.8150  -25.4610 N.pl3  38  DA38       -0.1054
    761  N1        -1.8780   21.7170  -24.9660 N.ar   38  DA38       -0.2040
    762  C2        -0.8050   20.9890  -24.6370 C.ar   38  DA38        0.2016
    763  N3        -0.7090   19.6770  -24.4360 N.ar   38  DA38       -0.2048
    764  C4        -1.9010   19.0820  -24.6070 C.ar   38  DA38        0.1691
    765  P          0.0170   13.4150  -21.5890 P.3    39  DG39        0.2141
    766  OP1        0.4320   12.0820  -21.0950 O.3    39  DG39       -0.4373
    767  OP2       -1.3480   13.9100  -21.3340 O.2    39  DG39       -0.5172
    768  O5'        1.0600   14.4890  -21.0410 O.3    39  DG39       -0.3114
    769  C5'        2.2070   14.7590  -21.8060 C.3    39  DG39        0.1811
    770  C4'        2.5890   16.2100  -21.6410 C.3    39  DG39        0.1746
    771  O4'        1.8580   17.0350  -22.5770 O.3    39  DG39       -0.3327
    772  C3'        2.2040   16.7920  -20.3030 C.3    39  DG39        0.1558
    773  O3'        3.1260   16.3800  -19.3040 O.3    39  DG39       -0.3138
    774  C2'        2.2910   18.2810  -20.6180 C.3    39  DG39        0.0865
    775  C1'        1.7160   18.3330  -22.0320 C.3    39  DG39        0.2094
    776  N9         0.3010   18.6540  -22.0580 N.ar   39  DG39       -0.2713
    777  C8        -0.7560   17.7790  -22.1290 C.ar   39  DG39        0.1816
    778  N7        -1.9180   18.3670  -22.0450 N.ar   39  DG39       -0.2173
    779  C5        -1.6150   19.7100  -21.9120 C.ar   39  DG39        0.1748
    780  C6        -2.4630   20.8390  -21.7760 C.ar   39  DG39        0.3023
    781  O6        -3.6990   20.8690  -21.7470 O.2    39  DG39       -0.2633
    782  N1        -1.7390   22.0230  -21.6670 N.ar   39  DG39       -0.1709
    783  C2        -0.3680   22.1090  -21.6870 C.ar   39  DG39        0.2606
    784  N2         0.1490   23.3400  -21.5700 N.pl3  39  DG39       -0.0859
    785  N3         0.4330   21.0690  -21.8120 N.ar   39  DG39       -0.1918
    786  C4        -0.2480   19.9080  -21.9180 C.ar   39  DG39        0.1722
    787  P          2.6500   16.3150  -18.0660 P.3    40  DC40        0.2141
    788  OP1        3.9600   15.9220  -17.4930 O.3    40  DC40       -0.4373
    789  OP2        1.4030   15.6000  -17.7040 O.2    40  DC40       -0.5172
    790  O5'        2.3820   17.8200  -17.6360 O.3    40  DC40       -0.3114
    791  C5'        3.5540   18.6010  -17.5870 C.3    40  DC40        0.1811
    792  C4'        3.1800   19.9840  -17.1750 C.3    40  DC40        0.1746
    793  O4'        2.2900   20.5470  -18.1690 O.3    40  DC40       -0.3327
    794  C3'        2.3690   20.0660  -15.9020 C.3    40  DC40        0.1558
    795  O3'        3.1780   19.9310  -14.7490 O.3    40  DC40       -0.3138
    796  C2'        1.7190   21.4330  -16.0570 C.3    40  DC40        0.0866
    797  C1'        1.3780   21.4170  -17.5420 C.3    40  DC40        0.2106
    798  N1        -0.0020   20.9800  -17.8450 N.ar   40  DC40       -0.2556
    799  C2        -1.0060   21.9390  -17.6720 C.ar   40  DC40        0.3531
    800  O2        -0.6760   23.1230  -17.4860 O.2    40  DC40       -0.2443
    801  N3        -2.3030   21.5510  -17.7110 N.ar   40  DC40       -0.1739
    802  C4        -2.6100   20.2690  -17.9120 C.ar   40  DC40        0.1759
    803  N4        -3.9020   19.9330  -17.9430 N.pl3  40  DC40       -0.1070
    804  C5        -1.6070   19.2810  -18.0890 C.ar   40  DC40        0.0566
    805  C6        -0.3280   19.6690  -18.0500 C.ar   40  DC40        0.0849
    806  P          2.5900   19.4840  -13.7820 P.3    41  DT41        0.2141
    807  OP1        3.8000   19.2180  -12.9700 O.3    41  DT41       -0.4373
    808  OP2        1.6920   18.3750  -14.1780 O.2    41  DT41       -0.5172
    809  O5'        1.7290   20.6010  -13.0310 O.3    41  DT41       -0.3114
    810  C5'        2.3800   21.7350  -12.4770 C.3    41  DT41        0.1811
    811  C4'        1.4210   22.9050  -12.3660 C.3    41  DT41        0.1746
    812  O4'        0.6530   23.0300  -13.5900 O.3    41  DT41       -0.3327
    813  C3'        0.3260   22.7670  -11.3270 C.3    41  DT41        0.1558
    814  O3'        0.8230   22.9780  -10.0140 O.3    41  DT41       -0.3138
    815  C2'       -0.5870   23.8970  -11.7850 C.3    41  DT41        0.0866
    816  C1'       -0.5790   23.6640  -13.2930 C.3    41  DT41        0.2106
    817  N1        -1.7350   22.7780  -13.7480 N.ar   41  DT41       -0.2559
    818  C2        -2.9430   23.3440  -14.1060 C.ar   41  DT41        0.3545
    819  O2        -3.2220   24.5090  -13.8840 O.2    41  DT41       -0.2443
    820  N3        -3.8190   22.4940  -14.7360 N.ar   41  DT41       -0.1533
    821  C4        -3.6130   21.1640  -15.0370 C.ar   41  DT41        0.2804
    822  O4        -4.4960   20.5290  -15.6090 O.2    41  DT41       -0.2654
    823  C5        -2.3350   20.6490  -14.6330 C.ar   41  DT41        0.0534
    824  C6        -1.4650   21.4540  -14.0180 C.ar   41  DT41        0.0824
    825  C7        -2.0150   19.2110  -14.9160 C.3    41  DT41        0.0377
    826  P          0.1730   22.1370   -8.8870 P.3    42  DT42        0.2141
    827  OP1        0.8830   21.9990   -7.5930 O.3    42  DT42       -0.4373
    828  OP2       -0.0910   20.9570   -9.7440 O.2    42  DT42       -0.5172
    829  O5'       -1.2640   22.7990   -8.6320 O.3    42  DT42       -0.3114
    830  C5'       -1.3440   23.9960   -7.8730 C.3    42  DT42        0.1811
    831  C4'       -2.5600   24.8240   -8.2170 C.3    42  DT42        0.1746
    832  O4'       -2.7450   24.8980   -9.6550 O.3    42  DT42       -0.3327
    833  C3'       -3.8960   24.3030   -7.7210 C.3    42  DT42        0.1558
    834  O3'       -4.1230   24.5820   -6.3550 O.3    42  DT42       -0.3138
    835  C2'       -4.8860   25.0020   -8.6400 C.3    42  DT42        0.0866
    836  C1'       -4.1230   24.9880   -9.9630 C.3    42  DT42        0.2106
    837  N1        -4.4900   23.8050  -10.7490 N.ar   42  DT42       -0.2559
    838  C2        -5.7190   23.7540  -11.3780 C.ar   42  DT42        0.3545
    839  O2        -6.5480   24.6420  -11.2900 O.2    42  DT42       -0.2443
    840  N3        -5.9460   22.6190  -12.1180 N.ar   42  DT42       -0.1533
    841  C4        -5.0870   21.5530  -12.2880 C.ar   42  DT42        0.2804
    842  O4        -5.4330   20.6030  -12.9850 O.2    42  DT42       -0.2654
    843  C5        -3.8320   21.6810  -11.6030 C.ar   42  DT42        0.0534
    844  C6        -3.5850   22.7740  -10.8760 C.ar   42  DT42        0.0824
    845  C7        -2.8290   20.5730  -11.7260 C.3    42  DT42        0.0377
    846  P         -4.8400   23.5340   -5.6400 P.3    43  DA43        0.2141
    847  OP1       -4.6870   24.0930   -4.2710 O.3    43  DA43       -0.4373
    848  OP2       -4.3530   22.1590   -5.9350 O.2    43  DA43       -0.5172
    849  O5'       -6.3870   23.6000   -6.0200 O.3    43  DA43       -0.3114
    850  C5'       -7.1660   24.7820   -5.7580 C.3    43  DA43        0.1811
    851  C4'       -8.4880   24.7020   -6.4800 C.3    43  DA43        0.1746
    852  O4'       -8.2310   24.5540   -7.9010 O.3    43  DA43       -0.3327
    853  C3'       -9.3580   23.5050   -6.1250 C.3    43  DA43        0.1558
    854  O3'      -10.1730   23.7430   -4.9850 O.3    43  DA43       -0.3138
    855  C2'      -10.1950   23.3100   -7.3800 C.3    43  DA43        0.0865
    856  C1'       -9.1990   23.6930   -8.4760 C.3    43  DA43        0.2094
    857  N9        -8.5270   22.4970   -9.1230 N.ar   43  DA43       -0.2714
    858  C8        -7.2340   22.0560   -9.0140 C.ar   43  DA43        0.1815
    859  N7        -6.9750   20.9920   -9.7360 N.ar   43  DA43       -0.2193
    860  C5        -8.1800   20.7150  -10.3620 C.ar   43  DA43        0.1518
    861  C6        -8.5680   19.7080  -11.2640 C.ar   43  DA43        0.1919
    862  N6        -7.7440   18.7560  -11.7090 N.pl3  43  DA43       -0.1054
    863  N1        -9.8470   19.7140  -11.6970 N.ar   43  DA43       -0.2040
    864  C2       -10.6710   20.6690  -11.2520 C.ar   43  DA43        0.2016
    865  N3       -10.4230   21.6660  -10.4060 N.ar   43  DA43       -0.2048
    866  C4        -9.1450   21.6320   -9.9930 C.ar   43  DA43        0.1691
    867  P        -10.5140   22.5860   -4.0090 P.3    44  DT44        0.2141
    868  OP1      -11.4410   23.0210   -2.9450 O.3    44  DT44       -0.4373
    869  OP2       -9.5050   21.5380   -3.7540 O.2    44  DT44       -0.5172
    870  O5'      -11.3890   22.1590   -5.2540 O.3    44  DT44       -0.3114
    871  C5'      -12.7720   22.2750   -5.1850 C.3    44  DT44        0.1811
    872  C4'      -13.3290   21.2190   -6.1040 C.3    44  DT44        0.1746
    873  O4'      -12.5350   21.0780   -7.3050 O.3    44  DT44       -0.3327
    874  C3'      -13.2660   19.8350   -5.5320 C.3    44  DT44        0.1558
    875  O3'      -14.2480   19.8160   -4.5570 O.3    44  DT44       -0.3138
    876  C2'      -13.7440   19.1970   -6.8110 C.3    44  DT44        0.0866
    877  C1'      -12.8230   19.8140   -7.8540 C.3    44  DT44        0.2106
    878  N1       -11.5070   19.0850   -8.0100 N.ar   44  DT44       -0.2559
    879  C2       -11.4600   18.0150   -8.8830 C.ar   44  DT44        0.3545
    880  O2       -12.4540   17.5320   -9.3950 O.2    44  DT44       -0.2443
    881  N3       -10.2010   17.5260   -9.1360 N.ar   44  DT44       -0.1533
    882  C4        -9.0110   17.9890   -8.6150 C.ar   44  DT44        0.2804
    883  O4        -7.9570   17.4460   -8.9380 O.2    44  DT44       -0.2654
    884  C5        -9.1430   19.1010   -7.7160 C.ar   44  DT44        0.0534
    885  C6       -10.3550   19.5960   -7.4530 C.ar   44  DT44        0.0824
    886  C7        -7.9050   19.6770   -7.0960 C.3    44  DT44        0.0377
    887  P        -14.3060   18.6400   -3.6720 P.3    45  DT45        0.2141
    888  OP1      -14.6320   19.3030   -2.3760 O.3    45  DT45       -0.4373
    889  OP2      -13.0260   17.8970   -3.8130 O.2    45  DT45       -0.5172
    890  O5'      -15.5120   17.6670   -4.0640 O.3    45  DT45       -0.3114
    891  C5'      -15.6050   16.3470   -3.5260 C.3    45  DT45        0.1811
    892  C4'      -15.8210   15.3520   -4.6370 C.3    45  DT45        0.1746
    893  O4'      -15.0290   15.7470   -5.7820 O.3    45  DT45       -0.3327
    894  C3'      -15.3730   13.9400   -4.3110 C.3    45  DT45        0.1558
    895  O3'      -16.4190   13.2000   -3.6960 O.3    45  DT45       -0.3138
    896  C2'      -15.0100   13.3640   -5.6790 C.3    45  DT45        0.0866
    897  C1'      -14.5120   14.6010   -6.4240 C.3    45  DT45        0.2106
    898  N1       -13.0720   14.7640   -6.5310 N.ar   45  DT45       -0.2559
    899  C2       -12.3880   14.0420   -7.4910 C.ar   45  DT45        0.3545
    900  O2       -12.9210   13.2010   -8.1930 O.2    45  DT45       -0.2443
    901  N3       -11.0510   14.3390   -7.5990 N.ar   45  DT45       -0.1533
    902  C4       -10.3450   15.2650   -6.8600 C.ar   45  DT45        0.2804
    903  O4        -9.1450   15.4210   -7.0730 O.2    45  DT45       -0.2654
    904  C5       -11.1240   15.9730   -5.8840 C.ar   45  DT45        0.0534
    905  C6       -12.4260   15.7040   -5.7580 C.ar   45  DT45        0.0824
    906  C7       -10.4450   17.0020   -5.0290 C.3    45  DT45        0.0377
    907  P        -16.0480   11.8790   -2.6760 P.3    46  DC46        0.2141
    908  OP1      -17.1510   11.2410   -1.9300 O.3    46  DC46       -0.4373
    909  OP2      -15.0030   12.6250   -1.9380 O.2    46  DC46       -0.5172
    910  O5'      -15.3350   10.7630   -3.5590 O.3    46  DC46       -0.3114
    911  C5'      -16.1040    9.7910   -4.2870 C.3    46  DC46        0.1811
    912  C4'      -15.1800    8.8530   -5.0250 C.3    46  DC46        0.1746
    913  O4'      -14.4340    9.6020   -6.0210 O.3    46  DC46       -0.3327
    914  C3'      -14.1020    8.2330   -4.1520 C.3    46  DC46        0.1558
    915  O3'      -14.5800    7.1100   -3.4270 O.3    46  DC46       -0.3138
    916  C2'      -13.0140    7.9020   -5.1580 C.3    46  DC46        0.0866
    917  C1'      -13.1040    9.1160   -6.0870 C.3    46  DC46        0.2106
    918  N1       -12.1730   10.2620   -5.6480 N.ar   46  DC46       -0.2556
    919  C2       -10.8290   10.1110   -6.0070 C.ar   46  DC46        0.3531
    920  O2       -10.4890    9.1010   -6.6450 O.2    46  DC46       -0.2443
    921  N3        -9.9390   11.0680   -5.6470 N.ar   46  DC46       -0.1739
    922  C4       -10.3490   12.1350   -4.9610 C.ar   46  DC46        0.1759
    923  N4        -9.4370   13.0520   -4.6280 N.pl3  46  DC46       -0.1070
    924  C5       -11.7070   12.3060   -4.5880 C.ar   46  DC46        0.0566
    925  C6       -12.5820   11.3600   -4.9450 C.ar   46  DC46        0.0849
    926  P        -14.0600    6.8960   -2.0690 P.3    47  DA47        0.2141
    927  OP1      -14.3210    6.1130   -0.8420 O.3    47  DA47       -0.4373
    928  OP2      -13.8130    8.3500   -1.9680 O.2    47  DA47       -0.5172
    929  O5'      -12.8150    6.2300   -2.8170 O.3    47  DA47       -0.3114
    930  C5'      -12.6500    4.8210   -2.8310 C.3    47  DA47        0.1811
    931  C4'      -11.4920    4.4330   -3.7250 C.3    47  DA47        0.1746
    932  O4'      -11.0570    5.5580   -4.5280 O.3    47  DA47       -0.3327
    933  C3'      -10.2540    4.0570   -2.9440 C.3    47  DA47        0.1558
    934  O3'      -10.3120    2.7070   -2.5530 O.3    47  DA47       -0.3138
    935  C2'       -9.1270    4.3340   -3.9260 C.3    47  DA47        0.0865
    936  C1'       -9.6390    5.6240   -4.5600 C.3    47  DA47        0.2094
    937  N9        -9.1690    6.8430   -3.8330 N.ar   47  DA47       -0.2714
    938  C8        -9.9740    7.7500   -3.1940 C.ar   47  DA47        0.1815
    939  N7        -9.3560    8.8540   -2.8470 N.ar   47  DA47       -0.2193
    940  C5        -8.0560    8.6590   -3.2870 C.ar   47  DA47        0.1518
    941  C6        -6.9050    9.4640   -3.2230 C.ar   47  DA47        0.1919
    942  N6        -6.8820   10.6770   -2.6670 N.pl3  47  DA47       -0.1054
    943  N1        -5.7670    8.9720   -3.7570 N.ar   47  DA47       -0.2040
    944  C2        -5.7920    7.7560   -4.3150 C.ar   47  DA47        0.2016
    945  N3        -6.8100    6.9080   -4.4360 N.ar   47  DA47       -0.2048
    946  C4        -7.9260    7.4250   -3.8950 C.ar   47  DA47        0.1691
    947  P        -10.0780    2.5240   -1.0850 P.3    48  DA48        0.2141
    948  OP1      -10.5810    1.1450   -0.8090 O.2    48  DA48       -0.5172
    949  OP2      -10.3850    3.6220   -0.1310 O.3    48  DA48       -0.4373
    950  O5'       -8.4990    2.4780   -1.2850 O.3    48  DA48       -0.3114
    951  C5'       -7.9310    1.6440   -2.2800 C.3    48  DA48        0.1811
    952  C4'       -6.5310    2.0910   -2.6070 C.3    48  DA48        0.1746
    953  O4'       -6.5490    3.4510   -3.1080 O.3    48  DA48       -0.3327
    954  C3'       -5.5930    2.1270   -1.4180 C.3    48  DA48        0.1558
    955  O3'       -5.0800    0.8080   -1.2590 O.3    48  DA48       -0.3138
    956  C2'       -4.5390    3.1390   -1.8610 C.3    48  DA48        0.0865
    957  C1'       -5.3800    4.1290   -2.6770 C.3    48  DA48        0.2094
    958  N9        -5.7980    5.2990   -2.0270 N.ar   48  DA48       -0.2714
    959  C8        -7.0170    5.5800   -1.4660 C.ar   48  DA48        0.1815
    960  N7        -7.0500    6.7220   -0.8190 N.ar   48  DA48       -0.2193
    961  C5        -5.7670    7.2230   -0.9650 C.ar   48  DA48        0.1518
    962  C6        -5.1560    8.4050   -0.5100 C.ar   48  DA48        0.1919
    963  N6        -5.7870    9.3320    0.2130 N.pl3  48  DA48       -0.1054
    964  N1        -3.8580    8.6020   -0.8280 N.ar   48  DA48       -0.2040
    965  C2        -3.2270    7.6730   -1.5540 C.ar   48  DA48        0.2016
    966  N3        -3.6940    6.5240   -2.0390 N.ar   48  DA48       -0.2048
    967  C4        -4.9840    6.3580   -1.7050 C.ar   48  DA48        0.1691
    968  P         -4.0990    0.5250   -0.1790 P.3    49  DT49        0.2141
    969  OP1       -3.8390   -0.8660   -0.6070 O.2    49  DT49       -0.5172
    970  OP2       -5.1710    0.7870    0.8060 O.3    49  DT49       -0.4373
    971  O5'       -2.7270    1.1400    0.3790 O.3    49  DT49       -0.3114
    972  C5'       -1.4550    0.6980   -0.1020 C.3    49  DT49        0.1811
    973  C4'       -0.4990    1.8620   -0.3050 C.3    49  DT49        0.1746
    974  O4'       -1.2350    3.0660   -0.6360 O.3    49  DT49       -0.3327
    975  C3'        0.3260    2.2520    0.9110 C.3    49  DT49        0.1558
    976  O3'        1.4760    1.4300    1.0260 O.3    49  DT49       -0.3138
    977  C2'        0.6830    3.7030    0.6110 C.3    49  DT49        0.0866
    978  C1'       -0.5660    4.1980   -0.1130 C.3    49  DT49        0.2106
    979  N1        -1.4290    4.9260    0.8140 N.ar   49  DT49       -0.2559
    980  C2        -1.1320    6.2400    1.1210 C.ar   49  DT49        0.3545
    981  O2        -0.0950    6.7830    0.7820 O.2    49  DT49       -0.2443
    982  N3        -2.0960    6.9000    1.8440 N.ar   49  DT49       -0.1533
    983  C4        -3.3010    6.3890    2.2800 C.ar   49  DT49        0.2804
    984  O4        -4.0650    7.1070    2.9200 O.2    49  DT49       -0.2654
    985  C5        -3.5350    5.0190    1.9230 C.ar   49  DT49        0.0534
    986  C6        -2.6150    4.3530    1.2200 C.ar   49  DT49        0.0824
    987  C7        -4.8180    4.3720    2.3530 C.3    49  DT49        0.0377
    988  P          2.0840    1.4490    2.2450 P.3    50  DT50        0.2141
    989  OP1        3.2780    0.5760    2.2370 O.2    50  DT50       -0.5172
    990  OP2        0.9510    1.1300    3.1400 O.3    50  DT50       -0.4373
    991  O5'        2.5260    2.9540    2.5500 O.3    50  DT50       -0.3114
    992  C5'        3.7700    3.4680    2.0910 C.3    50  DT50        0.1811
    993  C4'        4.1470    4.6920    2.9000 C.3    50  DT50        0.1746
    994  O4'        3.3110    5.8170    2.5260 O.3    50  DT50       -0.3327
    995  C3'        3.8880    4.5730    4.3930 C.3    50  DT50        0.1558
    996  O3'        4.8630    3.7720    5.0440 O.3    50  DT50       -0.3138
    997  C2'        3.9250    6.0410    4.8010 C.3    50  DT50        0.0866
    998  C1'        3.1210    6.6530    3.6570 C.3    50  DT50        0.2106
    999  N1         1.5170    6.6440    3.9120 N.ar   50  DT50       -0.2559
   1000  C2         0.9620    7.8060    4.4140 C.ar   50  DT50        0.3545
   1001  O2         1.6020    8.8290    4.5810 O.2    50  DT50       -0.2443
   1002  N3        -0.3760    7.7270    4.7160 N.ar   50  DT50       -0.1533
   1003  C4        -1.1960    6.6280    4.5700 C.ar   50  DT50        0.2804
   1004  O4        -2.3810    6.7110    4.8840 O.2    50  DT50       -0.2654
   1005  C5        -0.5460    5.4610    4.0440 C.ar   50  DT50        0.0534
   1006  C6         0.7540    5.5090    3.7420 C.ar   50  DT50        0.0824
   1007  C7        -1.3540    4.2130    3.8490 C.3    50  DT50        0.0377
   1008  P          4.3690    2.7010    6.3560 P.3    51  DA51        0.2141
   1009  OP1        5.1200    1.5500    6.9070 O.3    51  DA51       -0.4373
   1010  OP2        2.9070    2.6040    6.1460 O.2    51  DA51       -0.5172
   1011  O5'        4.5360    3.9730    7.3200 O.3    51  DA51       -0.3114
   1012  C5'        5.8130    4.5250    7.6260 C.3    51  DA51        0.1811
   1013  C4'        5.7140    5.6760    8.6030 C.3    51  DA51        0.1746
   1014  O4'        4.7860    6.6660    8.0900 O.3    51  DA51       -0.3327
   1015  C3'        5.1860    5.3260    9.9880 C.3    51  DA51        0.1558
   1016  O3'        6.2180    4.9120   10.8690 O.3    51  DA51       -0.3138
   1017  C2'        4.4660    6.5920   10.4440 C.3    51  DA51        0.0865
   1018  C1'        3.9590    7.1610    9.1200 C.3    51  DA51        0.2094
   1019  N9         2.5520    6.7590    8.7950 N.ar   51  DA51       -0.2714
   1020  C8         2.0710    5.6990    8.0710 C.ar   51  DA51        0.1815
   1021  N7         0.7630    5.6740    7.9760 N.ar   51  DA51       -0.2193
   1022  C5         0.3570    6.7920    8.6870 C.ar   51  DA51        0.1518
   1023  C6        -0.9130    7.3280    8.9620 C.ar   51  DA51        0.1919
   1024  N6        -2.0540    6.7830    8.5340 N.pl3  51  DA51       -0.1054
   1025  N1        -0.9700    8.4570    9.7010 N.ar   51  DA51       -0.2040
   1026  C2         0.1740    9.0030   10.1290 C.ar   51  DA51        0.2016
   1027  N3         1.4250    8.5930    9.9340 N.ar   51  DA51       -0.2048
   1028  C4         1.4480    7.4700    9.1980 C.ar   51  DA51        0.1691
   1029  P          5.8970    3.8870   12.0630 P.3    52  DC52        0.2141
   1030  OP1        7.0440    3.5090   12.9220 O.3    52  DC52       -0.4373
   1031  OP2        5.0530    2.8560   11.4220 O.2    52  DC52       -0.5172
   1032  O5'        4.8630    4.7700   12.9060 O.3    52  DC52       -0.3114
   1033  C5'        5.3590    5.6980   13.8570 C.3    52  DC52        0.1811
   1034  C4'        4.2400    6.4060   14.5730 C.3    52  DC52        0.1746
   1035  O4'        3.3180    6.9490   13.5900 O.3    52  DC52       -0.3327
   1036  C3'        3.3240    5.5510   15.4410 C.3    52  DC52        0.1558
   1037  O3'        3.8680    5.1260   16.6840 O.3    52  DC52       -0.3138
   1038  C2'        2.1180    6.4730   15.5560 C.3    52  DC52        0.0866
   1039  C1'        1.9970    6.8990   14.0950 C.3    52  DC52        0.2106
   1040  N1         1.0680    5.8600   13.4600 N.ar   52  DC52       -0.2556
   1041  C2        -0.2930    5.6970   13.7450 C.ar   52  DC52        0.3531
   1042  O2        -0.7480    6.1930   14.7910 O.2    52  DC52       -0.2443
   1043  N3        -1.0710    5.0070   12.8780 N.ar   52  DC52       -0.1739
   1044  C4        -0.5390    4.4910   11.7690 C.ar   52  DC52        0.1759
   1045  N4        -1.3440    3.8190   10.9440 N.pl3  52  DC52       -0.1070
   1046  C5         0.8370    4.6450   11.4620 C.ar   52  DC52        0.0566
   1047  C6         1.6020    5.3270   12.3210 C.ar   52  DC52        0.0849
   1048  P          3.9690    3.4830   16.9190 P.3    53  DG53        0.2141
   1049  OP1        5.2660    3.3930   17.6330 O.3    53  DG53       -0.4373
   1050  OP2        3.7600    2.7580   15.6380 O.2    53  DG53       -0.5172
   1051  O5'        2.8000    3.0840   17.9060 O.3    53  DG53       -0.3114
   1052  C5'        1.4690    3.3420   17.5320 C.3    53  DG53        0.1811
   1053  C4'        0.6840    2.0770   17.5900 C.3    53  DG53        0.1746
   1054  O4'       -0.3120    2.1260   16.5340 O.3    53  DG53       -0.3327
   1055  C3'        1.5020    0.8450   17.2700 C.3    53  DG53        0.1558
   1056  O3'        2.1520    0.3820   18.4460 O.3    53  DG53       -0.3138
   1057  C2'        0.4310   -0.1000   16.7460 C.3    53  DG53        0.0865
   1058  C1'       -0.4010    0.8650   15.8990 C.3    53  DG53        0.2094
   1059  N9         0.0730    1.1140   14.4060 N.ar   53  DG53       -0.2713
   1060  C8         1.0380    1.9040   13.8310 C.ar   53  DG53        0.1816
   1061  N7         1.3590    1.5270   12.6230 N.ar   53  DG53       -0.2174
   1062  C5         0.5600    0.4250   12.3830 C.ar   53  DG53        0.1731
   1063  C6         0.4610   -0.4130   11.2430 C.ar   53  DG53        0.2852
   1064  O6         1.0880   -0.3360   10.1790 O.2    53  DG53       -0.2651
   1065  N1        -0.4800   -1.4230   11.4190 N.ar   53  DG53       -0.2441
   1066  C2        -1.2330   -1.6040   12.5550 C.ar   53  DG53        0.2426
   1067  N2        -2.0900   -2.6340   12.5380 N.4    53  DG53       -0.1542
   1068  N3        -1.1510   -0.8350   13.6220 N.ar   53  DG53       -0.1919
   1069  C4        -0.2430    0.1530   13.4740 C.ar   53  DG53        0.1723
   1070  P          3.2040   -0.6760   18.2810 P.3    54  DT54        0.2141
   1071  OP1        3.8390   -0.9620   19.5920 O.3    54  DT54       -0.4373
   1072  OP2        4.0280   -0.1020   17.1860 O.2    54  DT54       -0.5172
   1073  O5'        2.5110   -2.0140   17.7730 O.3    54  DT54       -0.3114
   1074  C5'        1.3190   -2.4880   18.4020 C.3    54  DT54        0.1811
   1075  C4'        0.8330   -3.7260   17.7080 C.3    54  DT54        0.1746
   1076  O4'        0.2880   -3.3720   16.4270 O.3    54  DT54       -0.3327
   1077  C3'        1.9200   -4.7410   17.4130 C.3    54  DT54        0.1558
   1078  O3'        2.0520   -5.6260   18.5110 O.3    54  DT54       -0.3138
   1079  C2'        1.3800   -5.4800   16.2020 C.3    54  DT54        0.0866
   1080  C1'        0.5710   -4.3930   15.5020 C.3    54  DT54        0.2106
   1081  N1         1.5850   -3.8960   14.3340 N.ar   54  DT54       -0.2568
   1082  C2         1.4000   -4.4300   13.0730 C.ar   54  DT54        0.3410
   1083  O2         0.6020   -5.3210   12.8390 O.3    54  DT54       -0.2946
   1084  N3         2.1880   -3.8840   12.0890 N.ar   54  DT54       -0.1543
   1085  C4         3.1210   -2.8790   12.2370 C.ar   54  DT54        0.2804
   1086  O4         3.7530   -2.4910   11.2570 O.2    54  DT54       -0.2654
   1087  C5         3.2550   -2.3770   13.5750 C.ar   54  DT54        0.0534
   1088  C6         2.5020   -2.8910   14.5510 C.ar   54  DT54        0.0824
   1089  C7         4.2460   -1.2820   13.8380 C.3    54  DT54        0.0377
   1090  P          3.7880   -6.5800   18.7260 P.3    55  DC55        0.2141
   1091  OP1        5.2070   -6.2190   18.5090 O.3    55  DC55       -0.4373
   1092  OP2        3.0040   -7.2480   17.6640 O.2    55  DC55       -0.5172
   1093  O5'        3.6860   -7.5850   19.9660 O.3    55  DC55       -0.3114
   1094  C5'        3.7350   -7.0550   21.2780 C.3    55  DC55        0.1811
   1095  C4'        2.8360   -7.8200   22.2160 C.3    55  DC55        0.1746
   1096  O4'        1.5390   -8.0470   21.6000 O.3    55  DC55       -0.3327
   1097  C3'        3.2830   -9.2270   22.5670 C.3    55  DC55        0.1558
   1098  O3'        4.3630   -9.2810   23.4800 O.3    55  DC55       -0.3138
   1099  C2'        1.9870   -9.8270   23.0950 C.3    55  DC55        0.0866
   1100  C1'        0.9950   -9.2640   22.0760 C.3    55  DC55        0.2106
   1101  N1         0.8140  -10.1720   20.9230 N.ar   55  DC55       -0.2556
   1102  C2        -0.1210  -11.2120   20.9670 C.ar   55  DC55        0.3533
   1103  O2        -0.7510  -11.4050   22.0210 O.2    55  DC55       -0.2443
   1104  N3        -0.3110  -11.9760   19.8650 N.ar   55  DC55       -0.1698
   1105  C4         0.3880  -11.7330   18.7560 C.ar   55  DC55        0.2068
   1106  N4         0.1670  -12.5120   17.6950 N.4    55  DC55       -0.0537
   1107  C5         1.3400  -10.6840   18.6910 C.ar   55  DC55        0.0610
   1108  C6         1.5250   -9.9320   19.7810 C.ar   55  DC55        0.0852
   1109  P          5.1510  -10.4760   23.5610 P.3    56  DT56        0.2141
   1110  OP1        5.9660  -10.1180   24.7510 O.3    56  DT56       -0.4373
   1111  OP2        5.8160  -11.0650   22.3670 O.2    56  DT56       -0.5172
   1112  O5'        4.0070  -11.4970   24.0110 O.3    56  DT56       -0.3114
   1113  C5'        3.7820  -11.8200   25.3930 C.3    56  DT56        0.1811
   1114  C4'        2.8230  -12.9880   25.5050 C.3    56  DT56        0.1746
   1115  O4'        1.8510  -12.8540   24.4370 O.3    56  DT56       -0.3327
   1116  C3'        3.4190  -14.3800   25.3140 C.3    56  DT56        0.1558
   1117  O3'        3.8190  -14.9350   26.5630 O.3    56  DT56       -0.3138
   1118  C2'        2.2540  -15.1800   24.7400 C.3    56  DT56        0.0866
   1119  C1'        1.5260  -14.1270   23.9080 C.3    56  DT56        0.2106
   1120  N1         1.9730  -14.0670   22.4610 N.ar   56  DT56       -0.2559
   1121  C2         1.3910  -14.9510   21.5730 C.ar   56  DT56        0.3545
   1122  O2         0.5420  -15.7610   21.9010 O.2    56  DT56       -0.2443
   1123  N3         1.8420  -14.8550   20.2780 N.ar   56  DT56       -0.1533
   1124  C4         2.7950  -13.9830   19.7950 C.ar   56  DT56        0.2805
   1125  O4         3.0960  -14.0150   18.6040 O.3    56  DT56       -0.2639
   1126  C5         3.3520  -13.0980   20.7780 C.ar   56  DT56        0.0534
   1127  C6         2.9320  -13.1700   22.0440 C.ar   56  DT56        0.0824
   1128  C7         4.3980  -12.1110   20.3500 C.3    56  DT56        0.0377
   1129  P          5.0680  -16.0190   26.6790 P.3    57  DG57        0.2141
   1130  OP1        5.1440  -16.4220   28.0950 O.3    57  DG57       -0.4373
   1131  OP2        6.3010  -15.7840   25.9010 O.2    57  DG57       -0.5172
   1132  O5'        4.2110  -17.0900   25.8830 O.3    57  DG57       -0.3114
   1133  C5'        3.5360  -18.0730   26.6090 C.3    57  DG57        0.1811
   1134  C4'        3.1530  -19.1930   25.6820 C.3    57  DG57        0.1746
   1135  O4'        2.5730  -18.6200   24.4890 O.3    57  DG57       -0.3327
   1136  C3'        4.3260  -19.9850   25.1440 C.3    57  DG57        0.1558
   1137  O3'        4.8070  -20.9010   26.1200 O.3    57  DG57       -0.3138
   1138  C2'        3.6240  -20.6720   23.9840 C.3    57  DG57        0.0865
   1139  C1'        2.8180  -19.5100   23.4170 C.3    57  DG57        0.2094
   1140  N9         3.4740  -18.7660   22.3540 N.ar   57  DG57       -0.2713
   1141  C8         4.2490  -17.6390   22.4790 C.ar   57  DG57        0.1816
   1142  N7         4.8050  -17.2690   21.3580 N.ar   57  DG57       -0.2173
   1143  C5         4.3720  -18.2040   20.4360 C.ar   57  DG57        0.1748
   1144  C6         4.6450  -18.3280   19.0490 C.ar   57  DG57        0.3023
   1145  O6         5.3530  -17.6010   18.3400 O.2    57  DG57       -0.2633
   1146  N1         4.0020  -19.4270   18.4880 N.ar   57  DG57       -0.1709
   1147  C2         3.1950  -20.3000   19.1780 C.ar   57  DG57        0.2606
   1148  N2         2.6610  -21.3010   18.4640 N.pl3  57  DG57       -0.0859
   1149  N3         2.9330  -20.1990   20.4660 N.ar   57  DG57       -0.1918
   1150  C4         3.5480  -19.1380   21.0320 C.ar   57  DG57        0.1722
   1151  P          6.1360  -21.8520   25.7310 P.3    58  DC58        0.2141
   1152  OP1        6.4000  -22.5650   27.0170 O.3    58  DC58       -0.4373
   1153  OP2        6.8600  -20.5980   25.4320 O.2    58  DC58       -0.5172
   1154  O5'        6.4110  -22.8560   24.5210 O.3    58  DC58       -0.3114
   1155  C5'        5.9100  -24.1770   24.5690 C.3    58  DC58        0.1811
   1156  C4'        5.6380  -24.6970   23.1810 C.3    58  DC58        0.1746
   1157  O4'        5.0390  -23.6590   22.3680 O.3    58  DC58       -0.3327
   1158  C3'        6.8290  -25.1240   22.3500 C.3    58  DC58        0.1558
   1159  O3'        7.2730  -26.4050   22.6900 O.3    58  DC58       -0.3138
   1160  C2'        6.2640  -25.1110   20.9390 C.3    58  DC58        0.0866
   1161  C1'        5.3620  -23.8850   20.9940 C.3    58  DC58        0.2106
   1162  N1         6.1240  -22.8320   20.4770 N.ar   58  DC58       -0.2556
   1163  C2         6.4390  -22.6880   19.1200 C.ar   58  DC58        0.3531
   1164  O2         6.1130  -23.5910   18.3310 O.2    58  DC58       -0.2443
   1165  N3         7.0890  -21.5720   18.7090 N.ar   58  DC58       -0.1739
   1166  C4         7.4200  -20.6300   19.5920 C.ar   58  DC58        0.1759
   1167  N4         8.0590  -19.5480   19.1410 N.pl3  58  DC58       -0.1070
   1168  C5         7.1100  -20.7570   20.9710 C.ar   58  DC58        0.0566
   1169  C6         6.4680  -21.8600   21.3720 C.ar   58  DC58        0.0849
   1170  P          8.7710  -26.3030   23.1850 P.3    59  DA59        0.2141
   1171  OP1        8.2970  -27.1660   24.2920 O.3    59  DA59       -0.4373
   1172  OP2       10.0630  -25.5930   23.3150 O.2    59  DA59       -0.5172
   1173  O5'        8.7940  -27.1730   21.8550 O.3    59  DA59       -0.3114
   1174  C5'        7.7210  -28.0770   21.5540 C.3    59  DA59        0.1811
   1175  C4'        7.5650  -28.2390   20.0650 C.3    59  DA59        0.1746
   1176  O4'        7.0680  -27.0090   19.4760 O.3    59  DA59       -0.3327
   1177  C3'        8.8230  -28.5260   19.2650 C.3    59  DA59        0.1558
   1178  O3'        9.2100  -29.8850   19.3450 O.3    59  DA59       -0.3138
   1179  C2'        8.3640  -28.1540   17.8650 C.3    59  DA59        0.0865
   1180  C1'        7.5630  -26.8870   18.1520 C.3    59  DA59        0.2094
   1181  N9         8.4890  -25.7390   18.0950 N.ar   59  DA59       -0.2714
   1182  C8         8.9890  -25.0120   19.1440 C.ar   59  DA59        0.1815
   1183  N7         9.7390  -24.0000   18.7760 N.ar   59  DA59       -0.2193
   1184  C5         9.7330  -24.0680   17.3920 C.ar   59  DA59        0.1518
   1185  C6        10.3420  -23.2750   16.4030 C.ar   59  DA59        0.1919
   1186  N6        11.1060  -22.2150   16.6730 N.pl3  59  DA59       -0.1054
   1187  N1        10.1360  -23.6150   15.1130 N.ar   59  DA59       -0.2040
   1188  C2         9.3680  -24.6780   14.8430 C.ar   59  DA59        0.2016
   1189  N3         8.7430  -25.4980   15.6840 N.ar   59  DA59       -0.2048
   1190  C4         8.9680  -25.1340   16.9580 C.ar   59  DA59        0.1691
   1191  P         10.8440  -30.2970   19.2360 P.3    60  DC60        0.2141
   1192  OP1       10.8670  -31.6680   19.8110 O.2    60  DC60       -0.5172
   1193  OP2       11.3690  -29.1560   20.0260 O.3    60  DC60       -0.4373
   1194  O5'       11.6530  -30.3000   17.8700 O.3    60  DC60       -0.3114
   1195  C5'       11.3170  -31.2160   16.8200 C.3    60  DC60        0.1811
   1196  C4'       11.8880  -30.7230   15.5250 C.3    60  DC60        0.1746
   1197  O4'       11.3200  -29.4240   15.2240 O.3    60  DC60       -0.3327
   1198  C3'       13.3830  -30.4690   15.5360 C.3    60  DC60        0.1558
   1199  O3'       14.1090  -31.6570   15.2880 O.3    60  DC60       -0.3138
   1200  C2'       13.5510  -29.4520   14.4220 C.3    60  DC60        0.0866
   1201  C1'       12.2830  -28.6140   14.5770 C.3    60  DC60        0.2106
   1202  N1        12.5070  -27.4450   15.3840 N.ar   60  DC60       -0.2556
   1203  C2        13.0070  -26.2750   14.8010 C.ar   60  DC60        0.3531
   1204  O2        13.2610  -26.2740   13.5840 O.2    60  DC60       -0.2443
   1205  N3        13.2000  -25.1820   15.5770 N.ar   60  DC60       -0.1726
   1206  C4        12.9160  -25.2300   16.8790 C.ar   60  DC60        0.1895
   1207  N4        13.1220  -24.1280   17.6050 N.pl3  60  DC60       -0.0582
   1208  C5        12.4080  -26.4060   17.4890 C.ar   60  DC60        0.0579
   1209  C6        12.2190  -27.4830   16.7190 C.ar   60  DC60        0.0850
   1210  P         15.6330  -31.8440   15.8660 P.3    61  DA61        0.2141
   1211  OP1       16.3560  -33.1340   15.8130 O.2    61  DA61       -0.5172
   1212  OP2       15.4660  -31.1420   17.1650 O.3    61  DA61       -0.4373
   1213  O5'       16.3290  -30.8760   14.8040 O.3    61  DA61       -0.3114
   1214  C5'       16.5730  -31.3590   13.5030 C.3    61  DA61        0.1811
   1215  C4'       17.0790  -30.2190   12.6580 C.3    61  DA61        0.1746
   1216  O4'       16.1220  -29.1420   12.7560 O.3    61  DA61       -0.3327
   1217  C3'       18.3390  -29.5610   13.1790 C.3    61  DA61        0.1558
   1218  O3'       19.4900  -30.2930   12.8360 O.3    61  DA61       -0.3138
   1219  C2'       18.2760  -28.2310   12.4490 C.3    61  DA61        0.0865
   1220  C1'       16.8070  -27.9030   12.6690 C.3    61  DA61        0.2094
   1221  N9        16.5740  -27.1460   13.9020 N.ar   61  DA61       -0.2714
   1222  C8        15.9620  -27.6030   15.0400 C.ar   61  DA61        0.1815
   1223  N7        15.8660  -26.7000   15.9870 N.ar   61  DA61       -0.2193
   1224  C5        16.4570  -25.5750   15.4350 C.ar   61  DA61        0.1518
   1225  C6        16.6720  -24.2780   15.9330 C.ar   61  DA61        0.1919
   1226  N6        16.2990  -23.8840   17.1530 N.pl3  61  DA61       -0.1054
   1227  N1        17.2910  -23.3910   15.1250 N.ar   61  DA61       -0.2040
   1228  C2        17.6630  -23.7870   13.9030 C.ar   61  DA61        0.2016
   1229  N3        17.5150  -24.9760   13.3230 N.ar   61  DA61       -0.2048
   1230  C4        16.8980  -25.8340   14.1510 C.ar   61  DA61        0.1691
   1231  P         20.5870  -30.3560   13.9200 P.3    62  DT62        0.2141
   1232  OP1       21.6220  -31.2080   13.2530 O.2    62  DT62       -0.5172
   1233  OP2       20.2750  -30.5800   15.3620 O.3    62  DT62       -0.4373
   1234  O5'       21.1000  -28.8850   13.7820 O.3    62  DT62       -0.3114
   1235  C5'       21.5550  -28.4140   12.5450 C.3    62  DT62        0.1811
   1236  C4'       21.7790  -26.9520   12.6520 C.3    62  DT62        0.1746
   1237  O4'       20.5210  -26.3220   12.9970 O.3    62  DT62       -0.3327
   1238  C3'       22.6470  -26.5690   13.8300 C.3    62  DT62        0.1558
   1239  O3'       24.0280  -26.7760   13.5640 O.3    62  DT62       -0.3138
   1240  C2'       22.2700  -25.1030   13.9960 C.3    62  DT62        0.0866
   1241  C1'       20.7620  -25.1700   13.7910 C.3    62  DT62        0.2106
   1242  N1        20.0790  -25.2530   15.0460 N.ar   62  DT62       -0.2559
   1243  C2        19.9310  -24.1170   15.8190 C.ar   62  DT62        0.3545
   1244  O2        20.4010  -23.0360   15.5090 O.2    62  DT62       -0.2443
   1245  N3        19.2090  -24.2910   16.9760 N.ar   62  DT62       -0.1533
   1246  C4        18.6340  -25.4600   17.4270 C.ar   62  DT62        0.2804
   1247  O4        18.0140  -25.4600   18.4870 O.2    62  DT62       -0.2654
   1248  C5        18.8330  -26.5950   16.5690 C.ar   62  DT62        0.0534
   1249  C6        19.5300  -26.4540   15.4390 C.ar   62  DT62        0.0824
   1250  C7        18.2460  -27.9150   16.9730 C.3    62  DT62        0.0377
   1251  P         24.8970  -27.5630   14.7990 P.3    63  DA63        0.2141
   1252  OP1       25.2190  -28.3190   13.5700 O.2    63  DA63       -0.5172
   1253  OP2       24.6360  -28.2810   16.0860 O.3    63  DA63       -0.4373
   1254  O5'       26.1660  -26.5680   14.9690 O.3    63  DA63       -0.3114
   1255  C5'       26.3110  -25.6540   16.0860 C.3    63  DA63        0.1811
   1256  C4'       26.9910  -24.3380   15.6870 C.3    63  DA63        0.1746
   1257  O4'       28.0630  -24.7070   14.7850 O.3    63  DA63       -0.3327
   1258  C3'       26.0650  -23.4490   14.8700 C.3    63  DA63        0.1558
   1259  O3'       25.3900  -22.5080   15.7120 O.3    63  DA63       -0.3138
   1260  C2'       27.0700  -22.6960   14.0400 C.3    63  DA63        0.0865
   1261  C1'       28.1470  -23.7240   13.7470 C.3    63  DA63        0.2094
   1262  N9        27.9480  -24.5430   12.3410 N.ar   63  DA63       -0.2714
   1263  C8        27.7610  -25.8750   12.0760 C.ar   63  DA63        0.1815
   1264  N7        27.7560  -26.1640   10.7960 N.ar   63  DA63       -0.2193
   1265  C5        27.9520  -24.9390   10.1790 C.ar   63  DA63        0.1518
   1266  C6        28.0460  -24.5660    8.8260 C.ar   63  DA63        0.1919
   1267  N6        27.9510  -25.4300    7.8130 N.pl3  63  DA63       -0.1054
   1268  N1        28.2430  -23.2590    8.5490 N.ar   63  DA63       -0.2040
   1269  C2        28.3390  -22.3950    9.5650 C.ar   63  DA63        0.2016
   1270  N3        28.2680  -22.6250   10.8750 N.ar   63  DA63       -0.2048
   1271  C4        28.0710  -23.9310   11.1170 C.ar   63  DA63        0.1691
   1272  P         23.8430  -21.8540   15.5520 P.3    64  DC64        0.2141
   1273  OP1       23.0760  -21.0020   16.4900 O.3    64  DC64       -0.4373
   1274  OP2       23.5070  -23.2980   15.4270 O.2    64  DC64       -0.5172
   1275  O5'       23.7770  -21.2060   14.0970 O.3    64  DC64       -0.3114
   1276  C5'       24.2720  -19.8780   13.8590 C.3    64  DC64        0.1811
   1277  C4'       24.2370  -19.5590   12.3840 C.3    64  DC64        0.1746
   1278  O4'       25.1330  -20.4500   11.6710 O.3    64  DC64       -0.3327
   1279  C3'       22.9000  -19.7400   11.6810 C.3    64  DC64        0.1558
   1280  O3'       22.0510  -18.6090   11.8820 O.3    64  DC64       -0.3138
   1281  C2'       23.3280  -19.8780   10.2240 C.3    64  DC64        0.0866
   1282  C1'       24.6260  -20.6810   10.3640 C.3    64  DC64        0.2106
   1283  N1        24.5040  -22.1470   10.1620 N.ar   64  DC64       -0.2556
   1284  C2        24.4820  -22.6390    8.8520 C.ar   64  DC64        0.3531
   1285  O2        24.6230  -21.8400    7.9110 O.2    64  DC64       -0.2443
   1286  N3        24.3070  -23.9670    8.6480 N.ar   64  DC64       -0.1739
   1287  C4        24.1580  -24.7870    9.6890 C.ar   64  DC64        0.1759
   1288  N4        23.9880  -26.0880    9.4400 N.pl3  64  DC64       -0.1070
   1289  C5        24.1770  -24.3080   11.0240 C.ar   64  DC64        0.0566
   1290  C6        24.3510  -22.9970   11.2210 C.ar   64  DC64        0.0849
   1291  P         20.3030  -18.6100   11.3520 P.3    65  DC65        0.2141
   1292  OP1       19.8420  -17.2910   11.8450 O.2    65  DC65       -0.5172
   1293  OP2       19.8440  -19.8670   11.9900 O.3    65  DC65       -0.4373
   1294  O5'       19.8690  -18.7590    9.8190 O.3    65  DC65       -0.3114
   1295  C5'       20.4230  -17.8630    8.8690 C.3    65  DC65        0.1811
   1296  C4'       20.4560  -18.4660    7.4880 C.3    65  DC65        0.1746
   1297  O4'       21.3180  -19.6360    7.4620 O.3    65  DC65       -0.3327
   1298  C3'       19.1280  -18.9790    6.9610 C.3    65  DC65        0.1558
   1299  O3'       18.3100  -17.9420    6.4550 O.3    65  DC65       -0.3138
   1300  C2'       19.5640  -19.9620    5.8880 C.3    65  DC65        0.0866
   1301  C1'       20.8400  -20.5530    6.5000 C.3    65  DC65        0.2106
   1302  N1        20.5880  -21.9370    7.0960 N.ar   65  DC65       -0.2556
   1303  C2        20.2620  -22.9390    6.1740 C.ar   65  DC65        0.3531
   1304  O2        20.1760  -22.6390    4.9710 O.2    65  DC65       -0.2443
   1305  N3        20.0500  -24.2000    6.6190 N.ar   65  DC65       -0.1739
   1306  C4        20.1520  -24.4760    7.9200 C.ar   65  DC65        0.1759
   1307  N4        19.9340  -25.7340    8.3110 N.pl3  65  DC65       -0.1070
   1308  C5        20.4810  -23.4750    8.8700 C.ar   65  DC65        0.0566
   1309  C6        20.6900  -22.2310    8.4270 C.ar   65  DC65        0.0849
   1310  P         16.4930  -18.1980    6.2810 P.3    66  DA66        0.2141
   1311  OP1       16.2140  -16.8370    5.7730 O.2    66  DA66       -0.5172
   1312  OP2       16.3860  -18.4790    7.7290 O.3    66  DA66       -0.4373
   1313  O5'       15.5500  -19.2350    5.5070 O.3    66  DA66       -0.3114
   1314  C5'       15.2290  -19.0410    4.1340 C.3    66  DA66        0.1811
   1315  C4'       15.0950  -20.3740    3.4200 C.3    66  DA66        0.1746
   1316  O4'       16.2600  -21.1780    3.7350 O.3    66  DA66       -0.3327
   1317  C3'       13.8930  -21.2230    3.8200 C.3    66  DA66        0.1558
   1318  O3'       12.7880  -20.9450    2.9580 O.3    66  DA66       -0.3138
   1319  C2'       14.4080  -22.6430    3.5970 C.3    66  DA66        0.0865
   1320  C1'       15.8940  -22.5310    3.9260 C.3    66  DA66        0.2094
   1321  N9        16.1680  -22.9080    5.2890 N.ar   66  DA66       -0.2714
   1322  C8        16.7070  -22.1020    6.2580 C.ar   66  DA66        0.1815
   1323  N7        16.8690  -22.7020    7.4140 N.ar   66  DA66       -0.2193
   1324  C5        16.4030  -23.9870    7.1900 C.ar   66  DA66        0.1518
   1325  C6        16.3040  -25.1160    8.0220 C.ar   66  DA66        0.1919
   1326  N6        16.6860  -25.1280    9.3010 N.pl3  66  DA66       -0.1054
   1327  N1        15.7920  -26.2460    7.4870 N.ar   66  DA66       -0.2040
   1328  C2        15.4100  -26.2330    6.2050 C.ar   66  DA66        0.2016
   1329  N3        15.4550  -25.2360    5.3240 N.ar   66  DA66       -0.2048
   1330  C4        15.9670  -24.1290    5.8860 C.ar   66  DA66        0.1691
   1331  P         11.2700  -21.2460    3.3580 P.3    67  DG67        0.2141
   1332  OP1       10.5410  -21.3010    2.0660 O.2    67  DG67       -0.5172
   1333  OP2       10.6650  -20.5340    4.5150 O.3    67  DG67       -0.4373
   1334  O5'       11.6290  -22.7210    3.8400 O.3    67  DG67       -0.3114
   1335  C5'       11.9040  -23.7710    2.8940 C.3    67  DG67        0.1811
   1336  C4'       11.7500  -25.1170    3.5590 C.3    67  DG67        0.1746
   1337  O4'       12.8180  -25.3130    4.5270 O.3    67  DG67       -0.3327
   1338  C3'       10.4880  -25.2520    4.3910 C.3    67  DG67        0.1558
   1339  O3'        9.3440  -25.5450    3.6110 O.3    67  DG67       -0.3138
   1340  C2'       10.8560  -26.3580    5.3600 C.3    67  DG67        0.0865
   1341  C1'       12.3040  -25.9840    5.6730 C.3    67  DG67        0.2093
   1342  N9        12.4080  -25.0960    6.8620 N.ar   67  DG67       -0.2733
   1343  C8        12.4830  -23.7260    6.9440 C.ar   67  DG67        0.1815
   1344  N7        12.4800  -23.2830    8.1710 N.ar   67  DG67       -0.2164
   1345  C5        12.4010  -24.4230    8.9480 C.ar   67  DG67        0.1848
   1346  C6        12.3590  -24.5790   10.3570 C.2    67  DG67        0.3511
   1347  O6        12.3870  -23.6990   11.2270 O.2    67  DG67       -0.2478
   1348  N1        12.2760  -25.9180   10.7310 N.2    67  DG67       -0.3286
   1349  C2        12.2390  -26.9760    9.8540 C.cat  67  DG67        0.3028
   1350  N2        12.1600  -28.1960   10.4030 N.pl3  67  DG67       -0.0763
   1351  N3        12.2760  -26.8470    8.5430 N.pl3  67  DG67       -0.1487
   1352  C4        12.3550  -25.5550    8.1570 C.ar   67  DG67        0.1634
   1353  P          7.7960  -24.9230    4.0870 P.3    68  DC68        0.2141
   1354  OP1        6.8400  -25.1060    2.9660 O.2    68  DC68       -0.5172
   1355  OP2        7.7490  -23.6780    4.9030 O.3    68  DC68       -0.4373
   1356  O5'        7.6650  -26.1930    5.0400 O.3    68  DC68       -0.3114
   1357  C5'        7.6160  -27.5120    4.4720 C.3    68  DC68        0.1811
   1358  C4'        7.7620  -28.5720    5.5390 C.3    68  DC68        0.1746
   1359  O4'        9.0100  -28.3860    6.2580 O.3    68  DC68       -0.3327
   1360  C3'        6.7070  -28.6370    6.6320 C.3    68  DC68        0.1558
   1361  O3'        5.5510  -29.3450    6.2100 O.3    68  DC68       -0.3138
   1362  C2'        7.4410  -29.3880    7.7390 C.3    68  DC68        0.0866
   1363  C1'        8.8660  -28.8600    7.5860 C.3    68  DC68        0.2106
   1364  N1         9.1270  -27.7120    8.5410 N.ar   68  DC68       -0.2556
   1365  C2         9.6570  -27.9960    9.8050 C.ar   68  DC68        0.3531
   1366  O2         9.9390  -29.1730   10.0850 O.2    68  DC68       -0.2443
   1367  N3         9.8460  -26.9820   10.6830 N.ar   68  DC68       -0.1739
   1368  C4         9.5270  -25.7340   10.3400 C.ar   68  DC68        0.1759
   1369  N4         9.7310  -24.7670   11.2380 N.pl3  68  DC68       -0.1070
   1370  C5         8.9890  -25.4260    9.0640 C.ar   68  DC68        0.0566
   1371  C6         8.8040  -26.4300    8.2000 C.ar   68  DC68        0.0849
   1372  P          4.2130  -29.3230    7.1150 P.3    69  DT69        0.2141
   1373  OP1        2.8290  -29.7930    6.8820 O.2    69  DT69       -0.5172
   1374  OP2        4.5280  -27.8750    7.1360 O.3    69  DT69       -0.4373
   1375  O5'        4.7190  -29.8690    8.5350 O.3    69  DT69       -0.3114
   1376  C5'        5.4070  -31.1130    8.6510 C.3    69  DT69        0.1811
   1377  C4'        5.5350  -31.5590   10.0860 C.3    69  DT69        0.1746
   1378  O4'        6.7270  -30.9700   10.6820 O.3    69  DT69       -0.3327
   1379  C3'        4.3490  -31.1680   10.9610 C.3    69  DT69        0.1558
   1380  O3'        3.7670  -32.2960   11.6120 O.3    69  DT69       -0.3138
   1381  C2'        4.9090  -30.1870   11.9900 C.3    69  DT69        0.0866
   1382  C1'        6.4280  -30.3390   11.9130 C.3    69  DT69        0.2106
   1383  N1         6.9650  -29.0070   11.9090 N.ar   69  DT69       -0.2559
   1384  C2         7.4580  -28.5470   13.1150 C.ar   69  DT69        0.3545
   1385  O2         7.8720  -29.2880   13.9890 O.2    69  DT69       -0.2443
   1386  N3         7.4490  -27.1810   13.2640 N.ar   69  DT69       -0.1533
   1387  C4         7.0050  -26.2500   12.3480 C.ar   69  DT69        0.2804
   1388  O4         7.0610  -25.0550   12.6260 O.2    69  DT69       -0.2654
   1389  C5         6.5070  -26.8060   11.1220 C.ar   69  DT69        0.0534
   1390  C6         6.5050  -28.1300   10.9500 C.ar   69  DT69        0.0824
   1391  C7         6.0000  -25.8740   10.0620 C.3    69  DT69        0.0377
   1392  P          1.8780  -32.3180   11.6370 P.3    70  DT70        0.2141
   1393  OP1        0.8840  -33.4080   11.4390 O.3    70  DT70       -0.4373
   1394  OP2        1.5950  -30.9190   11.1500 O.2    70  DT70       -0.5172
   1395  O5'        2.2650  -32.2270   13.1890 O.3    70  DT70       -0.3114
   1396  C5'        2.6050  -33.4240   13.8940 C.3    70  DT70        0.1811
   1397  C4'        3.3740  -33.0550   15.1430 C.3    70  DT70        0.1746
   1398  O4'        4.3840  -32.0960   14.7720 O.3    70  DT70       -0.3327
   1399  C3'        2.5980  -32.2030   16.1210 C.3    70  DT70        0.1558
   1400  O3'        1.5950  -32.9650   16.8010 O.3    70  DT70       -0.3138
   1401  C2'        3.7290  -31.6390   16.9880 C.3    70  DT70        0.0866
   1402  C1'        4.7190  -31.2950   15.8850 C.3    70  DT70        0.2106
   1403  N1         4.7130  -29.7670   15.5010 N.ar   70  DT70       -0.2559
   1404  C2         5.6600  -28.9780   16.1250 C.ar   70  DT70        0.3545
   1405  O2         6.2350  -29.3120   17.1460 O.2    70  DT70       -0.2443
   1406  N3         5.9130  -27.7760   15.5090 N.ar   70  DT70       -0.1533
   1407  C4         5.3260  -27.2950   14.3580 C.ar   70  DT70        0.2804
   1408  O4         5.6580  -26.1940   13.9240 O.2    70  DT70       -0.2654
   1409  C5         4.3520  -28.1710   13.7700 C.ar   70  DT70        0.0534
   1410  C6         4.0880  -29.3460   14.3480 C.ar   70  DT70        0.0824
   1411  C7         3.6560  -27.7360   12.5140 C.3    70  DT70        0.0377
   1412  P          0.2760  -32.2870   16.9420 P.3    71  DA71        0.2141
   1413  OP1        0.0260  -33.7550   16.9930 O.3    71  DA71       -0.4373
   1414  OP2       -0.2000  -31.5020   15.7660 O.2    71  DA71       -0.5172
   1415  O5'       -0.3520  -31.6320   18.2530 O.3    71  DA71       -0.3114
   1416  C5'       -0.0140  -32.1270   19.5600 C.3    71  DA71        0.1811
   1417  C4'        0.1300  -30.9810   20.5340 C.3    71  DA71        0.1746
   1418  O4'        1.1480  -30.0650   20.0530 O.3    71  DA71       -0.3327
   1419  C3'       -1.0820  -30.0840   20.7140 C.3    71  DA71        0.1558
   1420  O3'       -2.0350  -30.6440   21.6030 O.3    71  DA71       -0.3138
   1421  C2'       -0.4540  -28.8250   21.2940 C.3    71  DA71        0.0865
   1422  C1'        0.8470  -28.7510   20.4950 C.3    71  DA71        0.2094
   1423  N9         0.6710  -27.8420   19.4230 N.ar   71  DA71       -0.2714
   1424  C8         0.7430  -28.1850   18.0980 C.ar   71  DA71        0.1815
   1425  N7         0.6450  -27.1630   17.2810 N.ar   71  DA71       -0.2190
   1426  C5         0.4970  -26.0750   18.1260 C.ar   71  DA71        0.1560
   1427  C6         0.3430  -24.6990   17.8790 C.ar   71  DA71        0.2227
   1428  N6         0.3140  -24.1670   16.6550 N.2    71  DA71       -0.0596
   1429  N1         0.2200  -23.8820   18.9460 N.ar   71  DA71       -0.2005
   1430  C2         0.2510  -24.4160   20.1720 C.ar   71  DA71        0.2018
   1431  N3         0.3900  -25.6910   20.5300 N.ar   71  DA71       -0.2048
   1432  C4         0.5090  -26.4770   19.4480 C.ar   71  DA71        0.1694
   1433  P         -3.6900  -30.1500   21.6330 P.3    72  DT72        0.2141
   1434  OP1       -4.2930  -30.8570   22.7940 O.3    72  DT72       -0.4373
   1435  OP2       -4.1580  -30.4680   20.2580 O.2    72  DT72       -0.5172
   1436  O5'       -3.7140  -28.5600   21.8230 O.3    72  DT72       -0.3114
   1437  C5'       -3.4750  -27.9540   23.1020 C.3    72  DT72        0.1811
   1438  C4'       -4.0030  -26.5320   23.1220 C.3    72  DT72        0.1746
   1439  O4'       -3.0950  -25.6760   22.3760 O.3    72  DT72       -0.3327
   1440  C3'       -5.3760  -26.3000   22.4900 C.3    72  DT72        0.1558
   1441  O3'       -6.4890  -26.5930   23.3510 O.3    72  DT72       -0.3138
   1442  C2'       -5.3010  -24.8350   22.0630 C.3    72  DT72        0.0866
   1443  C1'       -3.8340  -24.7050   21.6500 C.3    72  DT72        0.2106
   1444  N1        -3.6080  -24.9370   20.2220 N.ar   72  DT72       -0.2559
   1445  C2        -3.6280  -23.8310   19.3930 C.ar   72  DT72        0.3545
   1446  O2        -3.6940  -22.6890   19.8110 O.2    72  DT72       -0.2443
   1447  N3        -3.5690  -24.1110   18.0490 N.ar   72  DT72       -0.1533
   1448  C4        -3.4930  -25.3580   17.4640 C.ar   72  DT72        0.2804
   1449  O4        -3.4450  -25.4500   16.2400 O.2    72  DT72       -0.2654
   1450  C5        -3.4780  -26.4550   18.3910 C.ar   72  DT72        0.0534
   1451  C6        -3.5350  -26.2110   19.7030 C.ar   72  DT72        0.0824
   1452  C7        -3.3980  -27.8530   17.8520 C.3    72  DT72        0.0377
   1453  P         -7.9500  -26.8050   22.7320 P.3    73  DT73        0.2141
   1454  OP1       -9.0490  -27.2200   23.6310 O.3    73  DT73       -0.4373
   1455  OP2       -7.7000  -27.5740   21.4960 O.2    73  DT73       -0.5172
   1456  O5'       -8.1160  -25.2760   22.2920 O.3    73  DT73       -0.3114
   1457  C5'       -8.4980  -24.2820   23.2370 C.3    73  DT73        0.1811
   1458  C4'       -8.8890  -23.0040   22.5230 C.3    73  DT73        0.1746
   1459  O4'       -7.7560  -22.4810   21.7730 O.3    73  DT73       -0.3361
   1460  C3'       -9.9740  -23.1740   21.4700 C.3    73  DT73        0.1575
   1461  O3'      -11.2730  -23.2530   22.0380 O.3    73  DT73       -0.3138
   1462  C2'       -9.7550  -21.9250   20.6250 C.3    73  DT73        0.1035
   1463  C1'       -8.2270  -21.8570   20.5890 C.3    73  DT73        0.1832
   1464  N1        -7.6920  -22.6050   19.3080 N.ar   73  DT73       -0.2589
   1465  C2        -7.2590  -21.7980   18.2730 C.ar   73  DT73        0.3544
   1466  O2        -7.3040  -20.5810   18.3150 O.2    73  DT73       -0.2443
   1467  N3        -6.7700  -22.4690   17.1780 N.ar   73  DT73       -0.1533
   1468  C4        -6.6710  -23.8350   17.0190 C.ar   73  DT73        0.2804
   1469  O4        -6.2080  -24.2910   15.9760 O.2    73  DT73       -0.2654
   1470  C5        -7.1420  -24.6050   18.1370 C.ar   73  DT73        0.0534
   1471  C6        -7.6230  -23.9770   19.2130 C.ar   73  DT73        0.0823
   1472  C7        -7.0780  -26.1020   18.0600 C.3    73  DT73        0.0377
   1473  P        -12.4600  -24.1700   21.1570 P.3    74  DC74        0.2141
   1474  OP1      -13.8550  -24.0580   21.6560 O.3    74  DC74       -0.4373
   1475  OP2      -12.0110  -25.4150   20.4690 O.2    74  DC74       -0.5172
   1476  O5'      -12.2100  -22.9460   20.1680 O.3    74  DC74       -0.3114
   1477  C5'      -12.8610  -22.8970   18.8770 C.3    74  DC74        0.1811
   1478  C4'      -11.9380  -22.2740   17.8560 C.3    74  DC74        0.1744
   1479  O4'      -11.7390  -20.8730   18.1940 O.3    74  DC74       -0.3348
   1480  C3'      -10.5390  -22.8800   17.7990 C.3    74  DC74        0.1555
   1481  O3'      -10.0140  -22.6540   16.5020 O.3    74  DC74       -0.3139
   1482  C2'       -9.7860  -22.0120   18.7980 C.3    74  DC74        0.0836
   1483  C1'      -10.3760  -20.6450   18.4790 C.3    74  DC74        0.1995
   1484  N1        -9.8080  -20.1530   19.3340 N.am   74  DC74       -0.2189
   1485  C2        -8.6910  -19.3090   19.3460 C.2    74  DC74        0.4391
   1486  O2        -8.4140  -18.6700   18.3160 O.2    74  DC74       -0.2193
   1487  N3        -7.9480  -19.2150   20.4740 N.am   74  DC74        0.0488
   1488  C4        -8.2830  -19.9200   21.5550 C.2    74  DC74        0.3917
   1489  N4        -7.5200  -19.7950   22.6440 N.pl3  74  DC74        0.2090
   1490  C5        -9.4110  -20.7810   21.5630 C.3    74  DC74        0.1678
   1491  C6       -10.1420  -20.8710   20.4470 C.3    74  DC74        0.1036
   1492  P         -9.4550  -23.7730   15.7070 P.3    75  DA75        0.2141
   1493  OP1       -9.2240  -25.2210   15.4630 O.2    75  DA75       -0.5172
   1494  OP2       -8.3380  -22.9130   16.1900 O.3    75  DA75       -0.4373
   1495  O5'      -10.0720  -23.1640   14.3690 O.3    75  DA75       -0.3114
   1496  C5'      -11.0720  -23.8860   13.6710 C.3    75  DA75        0.1811
   1497  C4'      -11.6350  -23.0590   12.5490 C.3    75  DA75        0.1746
   1498  O4'      -12.2170  -21.8510   13.1080 O.3    75  DA75       -0.3327
   1499  C3'      -10.6370  -22.5550   11.5180 C.3    75  DA75        0.1558
   1500  O3'      -10.3050  -23.5560   10.5470 O.3    75  DA75       -0.3138
   1501  C2'      -11.3790  -21.3460   10.9480 C.3    75  DA75        0.0865
   1502  C1'      -11.9830  -20.7570   12.2300 C.3    75  DA75        0.2094
   1503  N9       -10.9530  -19.9010   12.8350 N.ar   75  DA75       -0.2714
   1504  C8       -10.7280  -20.2010   14.1530 C.ar   75  DA75        0.1815
   1505  N7       -10.0010  -19.3090   14.7830 N.ar   75  DA75       -0.2193
   1506  C5        -9.7280  -18.3580   13.8120 C.ar   75  DA75        0.1518
   1507  C6        -8.9990  -17.1560   13.8430 C.ar   75  DA75        0.1919
   1508  N6        -8.3880  -16.6910   14.9340 N.pl3  75  DA75       -0.1054
   1509  N1        -8.9200  -16.4420   12.7000 N.ar   75  DA75       -0.2040
   1510  C2        -9.5340  -16.9090   11.6070 C.ar   75  DA75        0.2016
   1511  N3       -10.2480  -18.0220   11.4540 N.ar   75  DA75       -0.2048
   1512  C4       -10.3070  -18.7100   12.6070 C.ar   75  DA75        0.1691
   1513  P         -8.8580  -23.8610   10.3780 P.3    76  DA76        0.2141
   1514  OP1       -8.8940  -24.8390    9.2680 O.2    76  DA76       -0.5172
   1515  OP2       -8.2330  -24.2380   11.6650 O.3    76  DA76       -0.4373
   1516  O5'       -8.1520  -22.5200    9.8560 O.3    76  DA76       -0.3114
   1517  C5'       -8.5500  -21.9200    8.6250 C.3    76  DA76        0.1811
   1518  C4'       -8.0880  -20.4740    8.5440 C.3    76  DA76        0.1765
   1519  O4'       -8.2470  -19.8260    9.8350 O.3    76  DA76       -0.3349
   1520  C3'       -6.6090  -20.2920    8.2520 C.3    76  DA76        0.0000
   1521  O3'       -6.3340  -20.4110    6.8660 O.3    76  DA76       -0.1066
   1522  C2'       -6.3810  -18.8760    8.7610 C.3    76  DA76        0.0553
   1523  C1'       -7.2580  -18.8220   10.0130 C.3    76  DA76        0.1950
   1524  N9        -6.5970  -19.1410   11.2980 N.pl3  76  DA76       -0.2458
   1525  C8        -6.9300  -20.0990   12.2210 C.2    76  DA76        0.1669
   1526  N7        -6.1670  -20.0930   13.2880 N.2    76  DA76       -0.2210
   1527  C5        -5.2710  -19.0620   13.0500 C.2    76  DA76        0.1864
   1528  C6        -4.2030  -18.5450   13.8040 C.2    76  DA76        0.3873
   1529  N6        -3.8450  -19.0170   15.0000 N.pl3  76  DA76        0.2116
   1530  N1        -3.5080  -17.5130   13.2790 N.pl3  76  DA76       -0.1431
   1531  C2        -3.8680  -17.0400   12.0800 C.2    76  DA76        0.2795
   1532  N3        -4.8520  -17.4420   11.2790 N.2    76  DA76       -0.2058
   1533  C4        -5.5230  -18.4680   11.8280 C.3    76  DA76        0.2329
   1534  P         -5.8930  -20.8030    7.0920 P.3    77  DT77        0.4736
   1535  OP1       -6.0760  -20.7610    5.6110 O.3    77  DT77       -0.0263
   1536  OP2       -5.9110  -22.1140    7.8020 O.2    77  DT77       -0.2429
   1537  O5'       -4.4830  -20.1330    7.4080 O.3    77  DT77       -0.2822
   1538  C5'       -3.9950  -19.0530    6.6230 C.3    77  DT77        0.1839
   1539  C4'       -2.6220  -18.6890    7.0850 C.3    77  DT77        0.1747
   1540  O4'       -2.6790  -18.4850    8.5110 O.3    77  DT77       -0.3327
   1541  C3'       -1.5790  -19.7730    6.8840 C.3    77  DT77        0.1558
   1542  O3'       -1.0240  -19.5140    5.6050 O.3    77  DT77       -0.3138
   1543  C2'       -0.5740  -19.5000    8.0080 C.3    77  DT77        0.0866
   1544  C1'       -1.4520  -18.8820    9.0910 C.3    77  DT77        0.2106
   1545  N1        -1.8310  -19.2960   10.3400 N.ar   77  DT77       -0.2559
   1546  C2        -1.2570  -18.8430   11.5130 C.ar   77  DT77        0.3545
   1547  O2        -0.5270  -17.8690   11.5620 O.2    77  DT77       -0.2443
   1548  N3        -1.5680  -19.5750   12.6330 N.ar   77  DT77       -0.1542
   1549  C4        -2.3780  -20.6900   12.6970 C.ar   77  DT77        0.2678
   1550  O4        -2.5640  -21.2410   13.7790 O.3    77  DT77       -0.3048
   1551  C5        -2.9350  -21.0990   11.4380 C.ar   77  DT77        0.0523
   1552  C6        -2.6490  -20.4040   10.3330 C.ar   77  DT77        0.0824
   1553  C7        -3.8290  -22.3030   11.4030 C.3    77  DT77        0.0376
   1554  P         -0.2780  -20.6490    4.7520 P.3    78  DT78        0.2141
   1555  OP1       -0.2590  -21.9720    4.0970 O.2    78  DT78       -0.5172
   1556  OP2        1.0020  -20.0600    5.2550 O.3    78  DT78       -0.4373
   1557  O5'       -0.9380  -19.6410    3.6980 O.3    78  DT78       -0.3114
   1558  C5'       -0.5910  -19.7460    2.3160 C.3    78  DT78        0.1811
   1559  C4'       -0.2030  -18.3970    1.7020 C.3    78  DT78        0.1746
   1560  O4'       -1.3610  -17.5560    1.4200 O.3    78  DT78       -0.3327
   1561  C3'        0.8000  -17.4640    2.3780 C.3    78  DT78        0.1558
   1562  O3'        2.1400  -17.9040    2.1770 O.3    78  DT78       -0.3138
   1563  C2'        0.5540  -16.1600    1.6310 C.3    78  DT78        0.0866
   1564  C1'       -0.9590  -16.1930    1.3930 C.3    78  DT78        0.2106
   1565  N1        -1.7260  -15.4600    2.4210 N.ar   78  DT78       -0.2559
   1566  C2        -1.7450  -14.0790    2.3830 C.ar   78  DT78        0.3545
   1567  O2        -1.1770  -13.4300    1.5220 O.2    78  DT78       -0.2443
   1568  N3        -2.4550  -13.4800    3.3950 N.ar   78  DT78       -0.1533
   1569  C4        -3.1330  -14.1090    4.4180 C.ar   78  DT78        0.2804
   1570  O4        -3.7270  -13.4340    5.2550 O.2    78  DT78       -0.2654
   1571  C5        -3.0650  -15.5430    4.3890 C.ar   78  DT78        0.0534
   1572  C6        -2.3820  -16.1510    3.4160 C.ar   78  DT78        0.0824
   1573  C7        -3.7700  -16.3200    5.4610 C.3    78  DT78        0.0377
   1574  P          3.4010  -17.0260    2.8830 P.3    79  DA79        0.2141
   1575  OP1        4.7700  -17.4740    2.5110 O.2    79  DA79       -0.5172
   1576  OP2        2.7920  -17.4990    4.1610 O.3    79  DA79       -0.4373
   1577  O5'        3.3540  -15.4300    2.9090 O.3    79  DA79       -0.3114
   1578  C5'        3.9570  -14.6390    1.8770 C.3    79  DA79        0.1811
   1579  C4'        3.9990  -13.1840    2.2950 C.3    79  DA79        0.1746
   1580  O4'        2.6420  -12.6740    2.4170 O.3    79  DA79       -0.3327
   1581  C3'        4.5960  -12.9430    3.6690 C.3    79  DA79        0.1558
   1582  O3'        6.0140  -12.9260    3.6370 O.3    79  DA79       -0.3138
   1583  C2'        3.9690  -11.6140    4.0860 C.3    79  DA79        0.0865
   1584  C1'        2.5690  -11.7490    3.4970 C.3    79  DA79        0.2094
   1585  N9         1.5710  -12.3040    4.4970 N.ar   79  DA79       -0.2714
   1586  C8         1.0390  -13.5610    4.6140 C.ar   79  DA79        0.1815
   1587  N7         0.1830  -13.6840    5.6010 N.ar   79  DA79       -0.2193
   1588  C5         0.1510  -12.4210    6.1700 C.ar   79  DA79        0.1518
   1589  C6        -0.5650  -11.8920    7.2590 C.ar   79  DA79        0.1919
   1590  N6        -1.4210  -12.6040    7.9960 N.pl3  79  DA79       -0.1054
   1591  N1        -0.3670  -10.5930    7.5680 N.ar   79  DA79       -0.2040
   1592  C2         0.4910   -9.8810    6.8280 C.ar   79  DA79        0.2016
   1593  N3         1.2200  -10.2650    5.7820 N.ar   79  DA79       -0.2048
   1594  C4         1.0010  -11.5610    5.5020 C.ar   79  DA79        0.1691
   1595  P          6.9690  -13.5210    5.0390 P.3    80  DG80        0.2141
   1596  OP1        8.4360  -13.6230    4.8040 O.2    80  DG80       -0.5172
   1597  OP2        6.2630  -14.6240    5.7420 O.3    80  DG80       -0.4373
   1598  O5'        6.6690  -12.1790    5.8480 O.3    80  DG80       -0.3114
   1599  C5'        7.5090  -11.0330    5.7020 C.3    80  DG80        0.1811
   1600  C4'        7.2260  -10.0170    6.7900 C.3    80  DG80        0.1746
   1601  O4'        5.8740   -9.4960    6.6360 O.3    80  DG80       -0.3327
   1602  C3'        7.2330  -10.5310    8.2200 C.3    80  DG80        0.1558
   1603  O3'        8.5310  -10.7320    8.7560 O.3    80  DG80       -0.3138
   1604  C2'        6.4400   -9.4430    8.9230 C.3    80  DG80        0.0865
   1605  C1'        5.3120   -9.2450    7.9160 C.3    80  DG80        0.2094
   1606  N9         4.2910  -10.2830    8.1750 N.ar   80  DG80       -0.2713
   1607  C8         4.0890  -11.4180    7.4270 C.ar   80  DG80        0.1816
   1608  N7         3.0430  -12.1020    7.8020 N.ar   80  DG80       -0.2173
   1609  C5         2.5200  -11.3800    8.8580 C.ar   80  DG80        0.1748
   1610  C6         1.3860  -11.6260    9.6730 C.ar   80  DG80        0.3023
   1611  O6         0.5900  -12.5710    9.6130 O.2    80  DG80       -0.2633
   1612  N1         1.2120  -10.6360   10.6360 N.ar   80  DG80       -0.1709
   1613  C2         2.0310   -9.5440   10.7950 C.ar   80  DG80        0.2606
   1614  N2         1.7020   -8.6970   11.7800 N.pl3  80  DG80       -0.0859
   1615  N3         3.0890   -9.3020   10.0460 N.ar   80  DG80       -0.1918
   1616  C4         3.2780  -10.2510    9.1050 C.ar   80  DG80        0.1722
   1617  P          8.6860  -11.8830    9.4220 P.3    81  DA81        0.2141
   1618  OP1        9.9730  -12.3760    8.8810 O.2    81  DA81       -0.5172
   1619  OP2        7.5950  -12.8390    9.7370 O.3    81  DA81       -0.4373
   1620  O5'        8.9900  -11.0200   10.7390 O.3    81  DA81       -0.3114
   1621  C5'        8.8340   -9.6050   10.7330 C.3    81  DA81        0.1811
   1622  C4'        7.9050   -9.1510   11.8460 C.3    81  DA81        0.1746
   1623  O4'        6.5220   -9.3430   11.4560 O.3    81  DA81       -0.3327
   1624  C3'        7.9980   -9.9300   13.1470 C.3    81  DA81        0.1558
   1625  O3'        9.1340   -9.5380   13.9050 O.3    81  DA81       -0.3138
   1626  C2'        6.6980   -9.4960   13.8130 C.3    81  DA81        0.0865
   1627  C1'        5.7450   -9.5460   12.6240 C.3    81  DA81        0.2094
   1628  N9         5.0620  -10.7720   12.4410 N.ar   81  DA81       -0.2714
   1629  C8         5.3250  -11.6540   11.4260 C.ar   81  DA81        0.1815
   1630  N7         4.5290  -12.6970   11.4110 N.ar   81  DA81       -0.2193
   1631  C5         3.6850  -12.4850   12.4900 C.ar   81  DA81        0.1518
   1632  C6         2.6150  -13.2310   13.0150 C.ar   81  DA81        0.1919
   1633  N6         2.1960  -14.3880   12.4980 N.pl3  81  DA81       -0.1054
   1634  N1         1.9830  -12.7400   14.1030 N.ar   81  DA81       -0.2040
   1635  C2         2.4030  -11.5800   14.6200 C.ar   81  DA81        0.2016
   1636  N3         3.3940  -10.7890   14.2160 N.ar   81  DA81       -0.2048
   1637  C4         4.0030  -11.3050   13.1350 C.ar   81  DA81        0.1691
   1638  P          9.8610  -10.5790   14.4670 P.3    82  DT82        0.2141
   1639  OP1       11.2320  -10.0920   14.7870 O.3    82  DT82       -0.4373
   1640  OP2        9.6820  -11.8690   13.7540 O.2    82  DT82       -0.5172
   1641  O5'        9.0270  -10.6480   15.8200 O.3    82  DT82       -0.3114
   1642  C5'        8.8340   -9.4790   16.6360 C.3    82  DT82        0.1811
   1643  C4'        7.7700   -9.7460   17.6670 C.3    82  DT82        0.1746
   1644  O4'        6.5220  -10.0380   16.9930 O.3    82  DT82       -0.3327
   1645  C3'        8.0310  -10.9570   18.5440 C.3    82  DT82        0.1558
   1646  O3'        8.8060  -10.5610   19.6660 O.3    82  DT82       -0.3138
   1647  C2'        6.6220  -11.3720   18.9610 C.3    82  DT82        0.0866
   1648  C1'        5.8190  -11.0450   17.7000 C.3    82  DT82        0.2106
   1649  N1         5.5450  -12.1450   16.8300 N.ar   82  DT82       -0.2559
   1650  C2         4.4220  -12.9060   17.0900 C.ar   82  DT82        0.3544
   1651  O2         3.6290  -12.6400   17.9760 O.3    82  DT82       -0.2458
   1652  N3         4.2580  -13.9980   16.2720 N.ar   82  DT82       -0.1533
   1653  C4         5.0870  -14.3950   15.2430 C.ar   82  DT82        0.2804
   1654  O4         4.8070  -15.4010   14.5950 O.2    82  DT82       -0.2654
   1655  C5         6.2320  -13.5540   15.0360 C.ar   82  DT82        0.0534
   1656  C6         6.4150  -12.4860   15.8170 C.ar   82  DT82        0.0824
   1657  C7         7.1950  -13.9030   13.9400 C.3    82  DT82        0.0377
   1658  P         10.1060  -11.3520   19.9560 P.3    83  DA83        0.2141
   1659  OP1        9.8430  -10.2140   20.8770 O.3    83  DA83       -0.4373
   1660  OP2       11.4270  -11.4720   19.2660 O.2    83  DA83       -0.5172
   1661  O5'        9.8590  -12.7090   20.7460 O.3    83  DA83       -0.3114
   1662  C5'        8.7020  -12.8820   21.5350 C.3    83  DA83        0.1811
   1663  C4'        8.3010  -14.3190   21.5070 C.3    83  DA83        0.1746
   1664  O4'        7.8970  -14.6440   20.1580 O.3    83  DA83       -0.3327
   1665  C3'        9.4380  -15.2800   21.7950 C.3    83  DA83        0.1558
   1666  O3'        9.6270  -15.4980   23.1820 O.3    83  DA83       -0.3138
   1667  C2'        8.9900  -16.5390   21.0850 C.3    83  DA83        0.0865
   1668  C1'        8.2790  -15.9690   19.8570 C.3    83  DA83        0.2094
   1669  N9         9.2160  -15.9260   18.8890 N.ar   83  DA83       -0.2716
   1670  C8        10.0170  -14.8410   18.6440 C.ar   83  DA83        0.1812
   1671  N7        10.8600  -15.0180   17.6550 N.ar   83  DA83       -0.2232
   1672  C5        10.5960  -16.3070   17.2210 C.ar   83  DA83        0.1354
   1673  C6        11.1530  -17.0930   16.1960 C.3    83  DA83        0.2423
   1674  N6        12.1320  -16.6730   15.3910 N.3    83  DA83       -0.1847
   1675  N1        10.6630  -18.3390   16.0260 N.4    83  DA83       -0.1215
   1676  C2         9.6810  -18.7590   16.8330 C.2    83  DA83        0.3394
   1677  N3         9.0770  -18.1140   17.8280 N.2    83  DA83       -0.1743
   1678  C4         9.5870  -16.8790   17.9720 C.ar   83  DA83        0.1684
   1679  P         11.0330  -16.1060   23.7710 P.3    84  DG84        0.2141
   1680  OP1       11.2760  -15.5020   25.1010 O.3    84  DG84       -0.4373
   1681  OP2       11.9690  -15.8910   22.6420 O.2    84  DG84       -0.5172
   1682  O5'       10.9390  -17.7000   23.9170 O.3    84  DG84       -0.3114
   1683  C5'        9.8730  -18.2890   24.6440 C.3    84  DG84        0.1811
   1684  C4'        9.8080  -19.7880   24.4590 C.3    84  DG84        0.1744
   1685  O4'        9.3880  -20.1290   23.1140 O.3    84  DG84       -0.3348
   1686  C3'       11.1000  -20.5640   24.6740 C.3    84  DG84        0.1555
   1687  O3'       11.3070  -20.8350   26.0450 O.3    84  DG84       -0.3139
   1688  C2'       10.8550  -21.8400   23.8810 C.3    84  DG84        0.0836
   1689  C1'        9.9920  -21.3430   22.7200 C.3    84  DG84        0.1985
   1690  N9        11.0510  -21.3210   21.7290 N.pl3  84  DG84       -0.2313
   1691  C8        11.6810  -20.1910   21.2680 C.2    84  DG84        0.1680
   1692  N7        12.4630  -20.4170   20.2480 N.2    84  DG84       -0.2207
   1693  C5        12.3420  -21.7750   20.0180 C.2    84  DG84        0.1892
   1694  C6        12.9530  -22.6040   19.0420 C.2    84  DG84        0.3296
   1695  O6        13.7530  -22.2800   18.1540 O.2    84  DG84       -0.3176
   1696  N1        12.5540  -23.9320   19.1630 N.pl3  84  DG84       -0.0341
   1697  C2        11.6750  -24.4030   20.1070 C.cat  84  DG84        0.4718
   1698  N2        11.4110  -25.7170   20.0660 N.pl3  84  DG84        0.1461
   1699  N3        11.1000  -23.6460   21.0210 N.2    84  DG84       -0.0693
   1700  C4        11.4730  -22.3530   20.9230 C.3    84  DG84        0.3068
   1701  P         12.8020  -20.8300   27.0220 P.3    85  DT85        0.2141
   1702  OP1       13.0480  -22.2480   27.3700 O.2    85  DT85       -0.5172
   1703  OP2       12.6580  -19.8230   28.0990 O.3    85  DT85       -0.4373
   1704  O5'       13.9910  -20.2730   26.1070 O.3    85  DT85       -0.3114
   1705  C5'       15.3250  -20.1540   26.5830 C.3    85  DT85        0.1811
   1706  C4'       16.3300  -20.5970   25.5450 C.3    85  DT85        0.1746
   1707  O4'       16.0880  -21.9850   25.1910 O.3    85  DT85       -0.3327
   1708  C3'       16.3130  -19.8630   24.2090 C.3    85  DT85        0.1558
   1709  O3'       17.0100  -18.6250   24.2340 O.3    85  DT85       -0.3138
   1710  C2'       16.9330  -20.8840   23.2590 C.3    85  DT85        0.0866
   1711  C1'       16.4210  -22.2060   23.8360 C.3    85  DT85        0.2106
   1712  N1        15.3940  -22.6870   22.7750 N.ar   85  DT85       -0.2559
   1713  C2        15.6290  -22.8420   21.4220 C.ar   85  DT85        0.3545
   1714  O2        16.2730  -22.0440   20.7640 O.2    85  DT85       -0.2443
   1715  N3        15.0790  -23.9690   20.8620 N.ar   85  DT85       -0.1533
   1716  C4        14.3340  -24.9360   21.5050 C.ar   85  DT85        0.2804
   1717  O4        13.9070  -25.8950   20.8660 O.2    85  DT85       -0.2654
   1718  C5        14.1330  -24.7040   22.9080 C.ar   85  DT85        0.0534
   1719  C6        14.6570  -23.6150   23.4780 C.ar   85  DT85        0.0824
   1720  C7        13.3350  -25.7000   23.6960 C.3    85  DT85        0.0377
   1721  P         16.0260  -17.0880   24.4190 P.3    86  DA86        0.2141
   1722  OP1       15.7500  -15.8160   25.1310 O.3    86  DA86       -0.4373
   1723  OP2       14.8970  -17.8850   23.8760 O.2    86  DA86       -0.5172
   1724  O5'       17.0700  -16.7870   23.2370 O.3    86  DA86       -0.3114
   1725  C5'       18.2380  -15.9930   23.4500 C.3    86  DA86        0.1811
   1726  C4'       19.0340  -15.8600   22.1610 C.3    86  DA86        0.1746
   1727  O4'       19.7180  -17.1170   21.8870 O.3    86  DA86       -0.3327
   1728  C3'       18.2100  -15.5810   20.9040 C.3    86  DA86        0.1558
   1729  O3'       17.9790  -14.1940   20.6880 O.3    86  DA86       -0.3138
   1730  C2'       19.1260  -16.1590   19.8340 C.3    86  DA86        0.0865
   1731  C1'       19.5590  -17.4520   20.5170 C.3    86  DA86        0.2094
   1732  N9        18.6180  -18.5970   20.2990 N.ar   86  DA86       -0.2714
   1733  C8        17.3160  -18.6930   20.7160 C.ar   86  DA86        0.1815
   1734  N7        16.6700  -19.7130   20.2040 N.ar   86  DA86       -0.2191
   1735  C5        17.6110  -20.3290   19.3940 C.ar   86  DA86        0.1545
   1736  C6        17.5520  -21.4690   18.5740 C.ar   86  DA86        0.2072
   1737  N6        16.4590  -22.2210   18.4300 N.2    86  DA86       -0.1116
   1738  N1        18.6700  -21.8130   17.8980 N.ar   86  DA86       -0.2016
   1739  C2        19.7660  -21.0590   18.0440 C.ar   86  DA86        0.2017
   1740  N3        19.9430  -19.9680   18.7850 N.ar   86  DA86       -0.2048
   1741  C4        18.8150  -19.6520   19.4420 C.ar   86  DA86        0.1693
   1742  P         16.5450  -13.7330   20.2290 P.3    87  DA87        0.2141
   1743  OP1       16.8410  -12.2910   20.3950 O.3    87  DA87       -0.4373
   1744  OP2       15.0730  -14.0670   20.1630 O.2    87  DA87       -0.5172
   1745  O5'       17.2110  -14.4620   19.0100 O.3    87  DA87       -0.3114
   1746  C5'       18.2900  -13.7550   18.3520 C.3    87  DA87        0.1811
   1747  C4'       18.6650  -14.5950   17.1700 C.3    87  DA87        0.1746
   1748  O4'       18.9990  -15.9040   17.5690 O.3    87  DA87       -0.3327
   1749  C3'       17.6070  -14.7950   16.0980 C.3    87  DA87        0.1558
   1750  O3'       17.4010  -13.6700   15.2690 O.3    87  DA87       -0.3138
   1751  C2'       18.2240  -15.9750   15.3520 C.3    87  DA87        0.0865
   1752  C1'       18.7220  -16.8220   16.4970 C.3    87  DA87        0.2094
   1753  N9        17.7980  -17.7790   16.9280 N.ar   87  DA87       -0.2714
   1754  C8        16.9110  -17.6300   17.9620 C.ar   87  DA87        0.1815
   1755  N7        16.1340  -18.6710   18.1480 N.ar   87  DA87       -0.2190
   1756  C5        16.5380  -19.5640   17.1680 C.ar   87  DA87        0.1559
   1757  C6        16.1040  -20.8590   16.8320 C.ar   87  DA87        0.2220
   1758  N6        15.1290  -21.5020   17.4770 N.4    87  DA87       -0.0650
   1759  N1        16.7160  -21.4760   15.7990 N.ar   87  DA87       -0.2005
   1760  C2        17.6950  -20.8310   15.1540 C.ar   87  DA87        0.2018
   1761  N3        18.1900  -19.6150   15.3770 N.ar   87  DA87       -0.2048
   1762  C4        17.5600  -19.0280   16.4080 C.ar   87  DA87        0.1694
   1763  P         16.1010  -13.5830   14.2350 P.3    88  DG88        0.2141
   1764  OP1       15.9450  -12.2480   13.5860 O.2    88  DG88       -0.5172
   1765  OP2       15.2090  -13.9550   15.3710 O.3    88  DG88       -0.4373
   1766  O5'       16.0240  -14.7360   13.1240 O.3    88  DG88       -0.3114
   1767  C5'       16.9030  -14.7500   11.9870 C.3    88  DG88        0.1811
   1768  C4'       16.7430  -16.0380   11.1940 C.3    88  DG88        0.1746
   1769  O4'       17.2520  -17.1740   11.9460 O.3    88  DG88       -0.3327
   1770  C3'       15.3100  -16.4340   10.8880 C.3    88  DG88        0.1558
   1771  O3'       14.7620  -15.7810    9.7710 O.3    88  DG88       -0.3138
   1772  C2'       15.4000  -17.9330   10.6590 C.3    88  DG88        0.0865
   1773  C1'       16.4600  -18.3310   11.6800 C.3    88  DG88        0.2094
   1774  N9        15.8490  -18.8120   12.8810 N.ar   88  DG88       -0.2713
   1775  C8        15.5730  -18.1050   14.0260 C.ar   88  DG88        0.1816
   1776  N7        14.8960  -18.7920   14.9050 N.ar   88  DG88       -0.2173
   1777  C5        14.7140  -20.0260   14.3100 C.ar   88  DG88        0.1748
   1778  C6        14.0510  -21.1890   14.7800 C.ar   88  DG88        0.3023
   1779  O6        13.4720  -21.3570   15.8610 O.2    88  DG88       -0.2633
   1780  N1        14.1000  -22.2260   13.8530 N.ar   88  DG88       -0.1709
   1781  C2        14.7120  -22.1530   12.6250 C.ar   88  DG88        0.2606
   1782  N2        14.6560  -23.2580   11.8690 N.pl3  88  DG88       -0.0859
   1783  N3        15.3320  -21.0800   12.1750 N.ar   88  DG88       -0.1918
   1784  C4        15.2970  -20.0590   13.0580 C.ar   88  DG88        0.1722
   1785  P         13.2260  -15.8190    9.5760 P.3    89  DT89        0.2141
   1786  OP1       12.8810  -15.2420    8.2550 O.2    89  DT89       -0.5172
   1787  OP2       12.6780  -15.2130   10.8200 O.3    89  DT89       -0.4373
   1788  O5'       12.8210  -17.3600    9.5500 O.3    89  DT89       -0.3114
   1789  C5'       13.3340  -18.2300    8.5570 C.3    89  DT89        0.1811
   1790  C4'       12.7910  -19.6110    8.7640 C.3    89  DT89        0.1744
   1791  O4'       13.4060  -20.2170    9.9310 O.3    89  DT89       -0.3345
   1792  C3'       11.2940  -19.6880    9.0160 C.3    89  DT89        0.1555
   1793  O3'       10.6100  -19.6350    7.7580 O.3    89  DT89       -0.3139
   1794  C2'       11.1750  -21.0270    9.7430 C.3    89  DT89        0.0839
   1795  C1'       12.4730  -21.0700   10.5670 C.3    89  DT89        0.2027
   1796  N1        12.3490  -20.7330   11.8310 N.pl3  89  DT89       -0.2050
   1797  C2        11.9080  -21.6670   12.7490 C.2    89  DT89        0.3977
   1798  O2        11.7860  -22.8510   12.4850 O.2    89  DT89       -0.2334
   1799  N3        11.6120  -21.1660   13.9930 N.2    89  DT89       -0.3137
   1800  C4        11.7110  -19.8520   14.4030 C.2    89  DT89        0.3075
   1801  O4        11.4090  -19.5540   15.5560 O.2    89  DT89       -0.3377
   1802  C5        12.1750  -18.9430   13.3930 C.2    89  DT89        0.0788
   1803  C6        12.4700  -19.4040   12.1750 C.2    89  DT89        0.0754
   1804  C7        12.3160  -17.4910   13.7410 C.3    89  DT89        0.1246
   1805  P          8.9490  -18.9110    7.5970 P.3    90  DG90        0.2141
   1806  OP1        8.4220  -18.8900    6.2230 O.2    90  DG90       -0.5172
   1807  OP2        8.6470  -17.8170    8.5510 O.3    90  DG90       -0.4373
   1808  O5'        8.3900  -20.2660    8.2480 O.3    90  DG90       -0.3114
   1809  C5'        8.5220  -21.4870    7.5850 C.3    90  DG90        0.1811
   1810  C4'        8.0570  -22.5690    8.5410 C.3    90  DG90        0.1746
   1811  O4'        8.9750  -22.6280    9.6770 O.3    90  DG90       -0.3327
   1812  C3'        6.6900  -22.3050    9.1690 C.3    90  DG90        0.1558
   1813  O3'        5.5550  -22.6460    8.3080 O.3    90  DG90       -0.3138
   1814  C2'        6.7930  -23.2250   10.3880 C.3    90  DG90        0.0865
   1815  C1'        8.2500  -23.0100   10.8310 C.3    90  DG90        0.2093
   1816  N9         8.3800  -22.0040   11.8340 N.ar   90  DG90       -0.2733
   1817  C8         8.8910  -20.7440   11.6330 C.ar   90  DG90        0.1815
   1818  N7         8.9720  -20.0410   12.7300 N.ar   90  DG90       -0.2165
   1819  C5         8.4880  -20.8820   13.7140 C.ar   90  DG90        0.1809
   1820  C6         8.3280  -20.6760   15.1080 C.2    90  DG90        0.3078
   1821  O6         8.5970  -19.6650   15.7690 O.2    90  DG90       -0.3921
   1822  N1         7.7970  -21.7960   15.7430 N.2    90  DG90       -0.3316
   1823  C2         7.4620  -22.9700   15.1110 C.cat  90  DG90        0.3027
   1824  N2         6.9640  -23.9390   15.8910 N.pl3  90  DG90       -0.0763
   1825  N3         7.6040  -23.1760   13.8170 N.pl3  90  DG90       -0.1487
   1826  C4         8.1170  -22.1010   13.1800 C.ar   90  DG90        0.1632
   1827  P          4.1680  -21.8490    8.3080 P.3    91  DC91        0.2141
   1828  OP1        3.5040  -22.8210    7.4090 O.2    91  DC91       -0.5172
   1829  OP2        3.9140  -20.4040    8.0850 O.3    91  DC91       -0.4373
   1830  O5'        3.7970  -22.2610    9.8120 O.3    91  DC91       -0.3114
   1831  C5'        3.5420  -23.6620    9.9500 C.3    91  DC91        0.1811
   1832  C4'        3.4530  -24.1180   11.3670 C.3    91  DC91        0.1746
   1833  O4'        4.5800  -23.5960   12.0750 O.3    91  DC91       -0.3327
   1834  C3'        2.2690  -23.5710   12.1260 C.3    91  DC91        0.1558
   1835  O3'        0.9750  -24.1450   11.8110 O.3    91  DC91       -0.3138
   1836  C2'        2.7300  -23.6300   13.5600 C.3    91  DC91        0.0866
   1837  C1'        4.1700  -23.2850   13.4160 C.3    91  DC91        0.2106
   1838  N1         4.3670  -21.8980   13.7340 N.ar   91  DC91       -0.2556
   1839  C2         4.3450  -21.5010   15.0760 C.ar   91  DC91        0.3531
   1840  O2         4.1800  -22.3670   15.9530 O.2    91  DC91       -0.2443
   1841  N3         4.5020  -20.1900   15.3790 N.ar   91  DC91       -0.1739
   1842  C4         4.6750  -19.2970   14.4050 C.ar   91  DC91        0.1759
   1843  N4         4.8250  -18.0160   14.7510 N.pl3  91  DC91       -0.1070
   1844  C5         4.7010  -19.6790   13.0390 C.ar   91  DC91        0.0566
   1845  C6         4.5450  -20.9740   12.7440 C.ar   91  DC91        0.0849
   1846  P         -0.4780  -23.1840   11.6420 P.3    92  DA92        0.2140
   1847  OP1       -1.4820  -23.9730   10.8630 O.2    92  DA92       -0.5172
   1848  OP2       -0.1210  -21.8150   11.1760 O.3    92  DA92       -0.4373
   1849  O5'       -1.0320  -23.0740   13.1420 O.3    92  DA92       -0.3140
   1850  C5'       -1.3550  -24.2040   13.9310 C.3    92  DA92        0.1517
   1851  C4'       -1.6560  -23.8190   15.3700 C.3    92  DA92        0.0628
   1852  O4'       -0.4280  -23.6090   16.1080 O.2    92  DA92       -0.3558
   1853  C3'       -2.4900  -22.5660   15.6580 C.3    92  DA92        0.1345
   1854  O3'       -3.8860  -22.8030   15.5850 O.3    92  DA92       -0.2735
   1855  C2'       -2.1070  -22.2660   17.0970 C.3    92  DA92        0.1015
   1856  C1'       -0.6060  -22.5360   17.0330 C.3    92  DA92        0.2903
   1857  N9         0.1070  -21.3940   16.6150 N.ar   92  DA92       -0.2588
   1858  C8         0.5580  -21.0630   15.3640 C.ar   92  DA92        0.1824
   1859  N7         1.1060  -19.8730   15.2960 N.ar   92  DA92       -0.2193
   1860  C5         1.0090  -19.3890   16.5910 C.ar   92  DA92        0.1501
   1861  C6         1.4090  -18.1760   17.1800 C.ar   92  DA92        0.1728
   1862  N6         2.0130  -17.1930   16.5100 N.pl3  92  DA92       -0.1803
   1863  N1         1.1630  -18.0090   18.4970 N.ar   92  DA92       -0.2058
   1864  C2         0.5580  -18.9960   19.1680 C.ar   92  DA92        0.2015
   1865  N3         0.1370  -20.1780   18.7260 N.ar   92  DA92       -0.2048
   1866  C4         0.3950  -20.3130   17.4140 C.ar   92  DA92        0.1699
   1867  P         -4.8980  -21.6330   15.1010 P.3    93  DA93        0.5145
   1868  OP1       -6.3680  -21.8240   15.1210 O.2    93  DA93       -0.2240
   1869  OP2       -4.1730  -21.2870   13.8550 O.3    93  DA93       -0.0720
   1870  O5'       -4.4960  -20.4830   16.1360 O.3    93  DA93       -0.2685
   1871  C5'       -5.0570  -20.5600   17.4330 C.3    93  DA93        0.1856
   1872  C4'       -4.3890  -19.6300   18.4110 C.3    93  DA93        0.1748
   1873  O4'       -2.9550  -19.8430   18.4130 O.3    93  DA93       -0.3327
   1874  C3'       -4.5010  -18.1420   18.1290 C.3    93  DA93        0.1558
   1875  O3'       -5.7840  -17.6000   18.3910 O.3    93  DA93       -0.3138
   1876  C2'       -3.3890  -17.6100   19.0260 C.3    93  DA93        0.0865
   1877  C1'       -2.3030  -18.6170   18.6720 C.3    93  DA93        0.2094
   1878  N9        -1.6230  -18.1750   17.4630 N.ar   93  DA93       -0.2717
   1879  C8        -1.7120  -18.8250   16.2600 C.ar   93  DA93        0.1813
   1880  N7        -0.8340  -18.4190   15.3730 N.ar   93  DA93       -0.2218
   1881  C5        -0.1210  -17.4340   16.0390 C.ar   93  DA93        0.1488
   1882  C6         0.9510  -16.6130   15.6460 C.3    93  DA93        0.2710
   1883  N6         1.5120  -16.6590   14.4360 N.3    93  DA93       -0.0843
   1884  N1         1.4300  -15.7340   16.5510 N.pl3  93  DA93       -0.1794
   1885  C2         0.8680  -15.6890   17.7640 C.2    93  DA93        0.1853
   1886  N3        -0.1410  -16.4090   18.2500 N.2    93  DA93       -0.2076
   1887  C4        -0.5960  -17.2720   17.3260 C.ar   93  DA93        0.1666
   1888  P         -6.4530  -16.8570   17.3580 P.3    94  DT94        0.2141
   1889  OP1       -7.8210  -16.5920   17.8690 O.3    94  DT94       -0.4373
   1890  OP2       -6.2590  -17.2760   15.9430 O.2    94  DT94       -0.5172
   1891  O5'       -5.5330  -15.5820   17.6500 O.3    94  DT94       -0.3114
   1892  C5'       -5.5290  -14.9540   18.9330 C.3    94  DT94        0.1811
   1893  C4'       -4.4880  -13.8520   18.9920 C.3    94  DT94        0.1746
   1894  O4'       -3.1460  -14.4070   18.8880 O.3    94  DT94       -0.3327
   1895  C3'       -4.5210  -12.8080   17.8860 C.3    94  DT94        0.1558
   1896  O3'       -5.5470  -11.8400   18.1060 O.3    94  DT94       -0.3138
   1897  C2'       -3.1210  -12.2130   17.9870 C.3    94  DT94        0.0866
   1898  C1'       -2.2920  -13.4700   18.2390 C.3    94  DT94        0.2106
   1899  N1        -1.8140  -14.0430   16.9730 N.ar   94  DT94       -0.2572
   1900  C2        -0.7640  -13.4020   16.3430 C.ar   94  DT94        0.3335
   1901  O2        -0.2580  -12.3800   16.7700 O.3    94  DT94       -0.3134
   1902  N3        -0.3260  -14.0030   15.1880 N.ar   94  DT94       -0.1548
   1903  C4        -0.8210  -15.1550   14.6120 C.ar   94  DT94        0.2843
   1904  O4        -0.3210  -15.5740   13.5710 O.2    94  DT94       -0.2652
   1905  C5        -1.9100  -15.7610   15.3250 C.ar   94  DT94        0.1000
   1906  C6        -2.3560  -15.1970   16.4510 C.ar   94  DT94        0.0864
   1907  C7        -2.5180  -17.0190   14.7780 C.3    94  DT94        0.2423
   1908  P         -6.1690  -10.9610   16.8170 P.3    95  DC95        0.2141
   1909  OP1       -7.3790  -10.1590   17.1250 O.3    95  DC95       -0.4373
   1910  OP2       -6.2120  -11.9090   15.6840 O.2    95  DC95       -0.5172
   1911  O5'       -4.9340   -9.9770   16.6050 O.3    95  DC95       -0.3114
   1912  C5'       -4.5400   -9.0450   17.6010 C.3    95  DC95        0.1812
   1913  C4'       -3.5090   -8.1190   16.9980 C.3    95  DC95        0.1775
   1914  O4'       -2.2440   -8.8150   16.9090 O.3    95  DC95       -0.3326
   1915  C3'       -3.8150   -7.6790   15.5700 C.3    95  DC95        0.1864
   1916  O3'       -4.6640   -6.5160   15.5600 O.3    95  DC95       -0.2133
   1917  C2'       -2.4120   -7.3670   15.0600 C.3    95  DC95        0.0895
   1918  C1'       -1.6290   -8.5240   15.6640 C.3    95  DC95        0.2107
   1919  N1        -1.5730   -9.7460   14.7800 N.ar   95  DC95       -0.2556
   1920  C2        -0.5630   -9.7680   13.8110 C.ar   95  DC95        0.3531
   1921  O2         0.2410   -8.8220   13.7630 O.2    95  DC95       -0.2443
   1922  N3        -0.4940  -10.8160   12.9550 N.ar   95  DC95       -0.1739
   1923  C4        -1.3790  -11.8090   13.0420 C.ar   95  DC95        0.1759
   1924  N4        -1.2710  -12.8200   12.1770 N.pl3  95  DC95       -0.1070
   1925  C5        -2.4090  -11.8050   14.0170 C.ar   95  DC95        0.0566
   1926  C6        -2.4750  -10.7690   14.8600 C.ar   95  DC95        0.0849
   1927  P         -5.9970   -6.3190   13.8470 P.3    96  DT96        0.3938
   1928  OP1       -5.3770   -7.3380   14.7340 O.3    96  DT96       -0.1496
   1929  OP2       -6.8530   -5.2530   14.4350 O.3    96  DT96       -0.1425
   1930  O5'       -4.8630   -5.6060   12.9830 O.3    96  DT96       -0.2952
   1931  C5'       -3.7600   -4.9880   13.6270 C.3    96  DT96        0.1535
   1932  C4'       -2.6240   -4.7660   12.6580 C.3    96  DT96        0.0667
   1933  O4'       -2.8880   -3.5790   11.8560 O.3    96  DT96       -0.0798
   1934  C3'       -1.3200   -4.4550   13.3720 C.3    96  DT96        0.1710
   1935  O3'       -0.6500   -5.6460   13.7580 O.3    96  DT96       -0.1720
   1936  C2'       -0.5670   -3.6030   12.3600 C.3    96  DT96        0.0829
   1937  C1'       -1.7110   -2.7900   11.7520 C.3    96  DT96        0.2096
   1938  N1        -1.9770   -7.6590   10.9830 N.2    96  DT96       -0.1608
   1939  C2        -1.3170   -8.2800    9.9390 C.1    96  DT96        0.2395
   1940  O2        -0.3530   -7.7900    9.3780 O.2    96  DT96       -0.2041
   1941  N3        -1.8290   -9.5010    9.5720 N.am   96  DT96       -0.0881
   1942  C4        -2.9110  -10.1490   10.1310 C.2    96  DT96        0.2768
   1943  O4        -3.2520  -11.2450    9.6930 O.2    96  DT96       -0.2676
   1944  C5        -3.5430   -9.4400   11.2080 C.2    96  DT96        0.0541
   1945  C6        -3.0650   -8.2510   11.5860 C.2    96  DT96        0.1126
   1946  C7        -4.7300  -10.0620   11.8810 C.3    96  DT96        0.0376
@<TRIPOS>BOND
     1   546   545    2
     2   567   566    2
     3   545   548    1
     4   545   533    1
     5   545   547    1
     6   549   548    1
     7   549   550    1
     8   526   525    2
     9   568   566    1
    10   566   553    1
    11   566   569    1
    12   533   532    1
    13   553   552    1
    14   550   552    1
    15   550   551    1
    16   552   554    1
    17   525   527    1
    18   525   528    1
    19   525   513    1
    20   529   528    1
    21   529   530    1
    22   532   530    1
    23   532   534    1
    24   569   570    1
    25   551   555    1
    26   513   512    1
    27   530   531    1
    28   570   571    1
    29   554   555    1
    30   534   535    1
    31   555   556    1
    32   557   556   ar
    33   557   558   ar
    34   506   505    2
    35   586   585    2
    36   583   584   ar
    37   583   581   ar
    38   512   510    1
    39   512   514    1
    40   531   535    1
    41   587   585    1
    42   556   565   ar
    43   584   577   ar
    44   509   508    1
    45   509   510    1
    46   558   559   ar
    47   508   505    1
    48   571   573    1
    49   571   572    1
    50   510   511    1
    51   582   581    1
    52   535   536    1
    53   507   505    1
    54   505   492    1
    55   585   574    1
    56   585   588    1
    57   514   515    1
    58   581   580   ar
    59   573   574    1
    60   573   575    1
    61   543   536   ar
    62   543   542   ar
    63   572   576    1
    64   544   542    1
    65   565   559   ar
    66   565   564   ar
    67   536   537   ar
    68   577   576    1
    69   577   578   ar
    70   559   560   ar
    71   492   491    1
    72   542   540   ar
    73   511   515    1
    74   576   575    1
    75   588   589    1
    76   589   590    1
    77   580   578   ar
    78   515   516    1
    79   564   563   ar
    80   578   579    2
    81   523   516   ar
    82   523   522   ar
    83   524   522    1
    84   602   603   ar
    85   602   600   ar
    86   516   517   ar
    87   560   561    1
    88   560   562   ar
    89   537   538    2
    90   537   539   ar
    91   485   484    2
    92   491   493    1
    93   491   489    1
    94   603   596   ar
    95   522   520   ar
    96   540   539   ar
    97   540   541    1
    98   591   590    1
    99   591   595    1
   100   590   592    1
   101   563   562   ar
   102   488   489    1
   103   488   487    1
   104   601   600    1
   105   493   494    1
   106   517   518    2
   107   517   519   ar
   108   489   490    1
   109   600   599   ar
   110   541   521    1
   111   487   484    1
   112   484   486    1
   113   484   473    1
   114   520   519   ar
   115   520   521    1
   116   596   595    1
   117   596   597   ar
   118   606   604    2
   119   595   594    1
   120   592   593    1
   121   592   594    1
   122   623   621    1
   123   593   604    1
   124   599   597   ar
   125   494   490    1
   126   494   495    1
   127   597   598    2
   128   604   605    1
   129   604   607    1
   130   473   472    1
   131   496   495   ar
   132   496   497   ar
   133   495   504   ar
   134   497   498   ar
   135   504   503   ar
   136   504   498   ar
   137   620   619    2
   138   621   619   ar
   139   621   622   ar
   140   503   502   ar
   141   498   499   ar
   142   640   639    2
   143   662   661   ar
   144   662   663   ar
   145   661   659   ar
   146   619   618   ar
   147   502   501   ar
   148   472   474    1
   149   472   470    1
   150   499   501   ar
   151   499   500    1
   152   607   608    1
   153   638   639   ar
   154   638   636   ar
   155   622   615   ar
   156   639   641   ar
   157   474   475    1
   158   637   636    2
   159   663   664   ar
   160   636   635   ar
   161   659   660    1
   162   659   658   ar
   163   678   677    2
   164   470   469    1
   165   470   471    1
   166   618   616   ar
   167   608   609    1
   168   466   465    2
   169   641   643    1
   170   641   642   ar
   171   615   616   ar
   172   615   614    1
   173   469   468    1
   174   664   658   ar
   175   664   655   ar
   176   658   657   ar
   177   635   642   ar
   178   635   634    1
   179   610   609    1
   180   610   614    1
   181   704   703   ar
   182   704   705   ar
   183   703   702   ar
   184   677   679   ar
   185   677   676   ar
   186   468   465    1
   187   616   617    2
   188   475   471    1
   189   475   476    1
   190   478   477    2
   191   467   465    1
   192   679   680   ar
   193   465   451    1
   194   675   676    1
   195   675   674    1
   196   675   671    1
   197   634   630    1
   198   634   633    1
   199   695   691    1
   200   695   696    1
   201   695   694    1
   202   691   690    1
   203   609   611    1
   204   655   654    1
   205   655   656   ar
   206   614   613    1
   207   654   653    1
   208   654   650    1
   209   477   476   ar
   210   477   479   ar
   211   476   483   ar
   212   702   700   ar
   213   657   656   ar
   214   705   696   ar
   215   705   699   ar
   216   676   683   ar
   217   674   672    1
   218   671   670    1
   219   479   480   ar
   220   611   613    1
   221   611   612    1
   222   696   697   ar
   223   690   689    1
   224   690   692    1
   225   694   692    1
   226   483   482   ar
   227   630   629    1
   228   653   651    1
   229   680   681    2
   230   680   682   ar
   231   712   716    1
   232   712   711    1
   233   633   631    1
   234   650   649    1
   235   480   482   ar
   236   480   481    1
   237   700   699   ar
   238   700   701    1
   239   716   715    1
   240   716   717    1
   241   699   698   ar
   242   683   682   ar
   243   689   688    1
   244   451   450    1
   245   670   672    1
   246   670   669    1
   247   682   684    1
   248   711   710    1
   249   711   713    1
   250   612   624    1
   251   692   693    1
   252   697   698   ar
   253   672   673    1
   254   693   706    1
   255   710   709    1
   256   719   718    2
   257   673   685    1
   258   715   713    1
   259   629   631    1
   260   629   628    1
   261   649   651    1
   262   649   648    1
   263   717   718   ar
   264   717   724   ar
   265   651   652    1
   266   631   632    1
   267   626   624    2
   268   688   685    1
   269   718   720   ar
   270   450   452    1
   271   450   448    1
   272   724   723   ar
   273   713   714    1
   274   669   668    1
   275   709   706    1
   276   452   453    1
   277   627   624    1
   278   627   628    1
   279   624   625    1
   280   652   665    1
   281   720   721   ar
   282   668   665    1
   283   685   686    2
   284   685   687    1
   285   723   721   ar
   286   445   443    2
   287   714   725    1
   288   462   738    1
   289   462   461    2
   290   731   735    1
   291   731   730    1
   292   721   722    1
   293   706   707    2
   294   706   708    1
   295   632   644    1
   296   648   647    1
   297   735   736    1
   298   735   734    1
   299   738   737    1
   300   647   644    1
   301   461   463    1
   302   461   460    2
   303   463   464    1
   304   460   458    1
   305   448   447    1
   306   448   449    1
   307   646   644    2
   308   665   667    2
   309   665   666    1
   310   737   736    1
   311   737   739    2
   312   730   729    1
   313   730   732    1
   314   736   743    1
   315   644   645    1
   316   446   447    1
   317   446   443    1
   318   464   454   ar
   319   464   457   ar
   320   453   454    1
   321   453   449    1
   322   458   457    1
   323   458   459    2
   324   443   444    1
   325   443   432    1
   326   734   732    1
   327   739   740    1
   328   454   455   ar
   329   729   728    1
   330   457   456   ar
   331   743   742    1
   332   725   728    1
   333   725   726    2
   334   725   727    1
   335   455   456   ar
   336   740   742    2
   337   740   741    1
   338   732   733    1
   339   733   744    1
   340   750   749    1
   341   750   754    1
   342   760   759    1
   343   432   431    1
   344   759   761   ar
   345   759   758   ar
   346   748   749    1
   347   748   747    1
   348   749   751    1
   349   754   755    1
   350   754   753    1
   351   757   758   ar
   352   757   756   ar
   353   761   762   ar
   354   758   764   ar
   355   756   755   ar
   356   431   433    1
   357   431   429    1
   358   762   763   ar
   359   764   755   ar
   360   764   763   ar
   361   744   747    1
   362   744   745    2
   363   744   746    1
   364   433   434    1
   365   440   439    1
   366   438   439   ar
   367   438   436   ar
   368   437   436    2
   369   753   751    1
   370   439   441   ar
   371   436   435   ar
   372   751   752    1
   373   425   424    2
   374   441   442   ar
   375   435   442   ar
   376   435   434    1
   377   427   428    1
   378   427   424    1
   379   429   428    1
   380   429   430    1
   381   426   424    1
   382   434   430    1
   383   752   765    1
   384   424   412    1
   385   771   775    1
   386   771   770    1
   387   777   776   ar
   388   777   778   ar
   389   776   775    1
   390   776   786   ar
   391   778   779   ar
   392   775   774    1
   393   420   419    2
   394   786   779   ar
   395   786   785   ar
   396   779   780   ar
   397   785   783   ar
   398   769   770    1
   399   769   768    1
   400   780   781    2
   401   780   782   ar
   402   783   782   ar
   403   783   784    1
   404   770   772    1
   405   765   767    2
   406   765   766    1
   407   765   768    1
   408   406   404    2
   409   419   418   ar
   410   419   421   ar
   411   423   421    1
   412   405   404    1
   413   412   411    1
   414   418   416   ar
   415   421   422   ar
   416   411   413    1
   417   411   409    1
   418   404   407    1
   419   404   391    1
   420   774   772    1
   421   772   773    1
   422   422   415   ar
   423   413   414    1
   424   416   417    2
   425   416   415   ar
   426   407   408    1
   427   415   414    1
   428   391   390    1
   429   408   409    1
   430   773   787    1
   431   409   410    1
   432   343   342    2
   433   414   410    1
   434   323   322    2
   435   384   383    2
   436   385   383    1
   437   344   342    1
   438   390   392    1
   439   390   388    1
   440   386   383    1
   441   386   387    1
   442   383   370    1
   443   342   345    1
   444   342   330    1
   445   793   797    1
   446   793   792    1
   447   387   388    1
   448   804   805   ar
   449   804   802   ar
   450   787   789    2
   451   787   790    1
   452   787   788    1
   453   805   798   ar
   454   803   802    1
   455   802   801   ar
   456   322   324    1
   457   322   325    1
   458   322   309    1
   459   364   362    2
   460   798   799   ar
   461   798   797    1
   462   392   393    1
   463   801   799   ar
   464   799   800    2
   465   790   791    1
   466   388   389    1
   467   791   792    1
   468   797   796    1
   469   325   326    1
   470   345   346    1
   471   395   396   ar
   472   395   394   ar
   473   396   397   ar
   474   302   301    2
   475   792   794    1
   476   326   327    1
   477   330   329    1
   478   361   359    1
   479   303   301    1
   480   363   362    1
   481   362   365    1
   482   362   350    1
   483   394   393    1
   484   394   403   ar
   485   370   369    1
   486   397   398   ar
   487   397   403   ar
   488   399   398    1
   489   309   308    1
   490   393   389    1
   491   346   347    1
   492   369   371    1
   493   369   367    1
   494   365   366    1
   495   329   327    1
   496   329   331    1
   497   398   400   ar
   498   403   402   ar
   499   301   304    1
   500   301   288    1
   501   371   372    1
   502   327   328    1
   503   796   794    1
   504   794   795    1
   505   400   401   ar
   506   359   360   ar
   507   359   357   ar
   508   402   401   ar
   509   341   339    1
   510   350   349    1
   511   822   821    2
   512   305   304    1
   513   305   306    1
   514   308   306    1
   515   308   310    1
   516   375   374   ar
   517   375   376   ar
   518   360   353   ar
   519   349   347    1
   520   349   351    1
   521   366   367    1
   522   358   357    2
   523   374   373   ar
   524   347   348    1
   525   367   368    1
   526   288   287    1
   527   281   280    2
   528   331   332    1
   529   821   820   ar
   530   821   823   ar
   531   357   356   ar
   532   328   332    1
   533   378   377    1
   534   340   339   ar
   535   340   333   ar
   536   825   823    1
   537   306   307    1
   538   339   337   ar
   539   372   373    1
   540   372   368    1
   541   795   806    1
   542   820   818   ar
   543   823   824   ar
   544   376   377   ar
   545   376   382   ar
   546   348   352    1
   547   377   379   ar
   548   373   382   ar
   549   310   311    1
   550   332   333    1
   551   333   334   ar
   552   353   352    1
   553   353   354   ar
   554   808   806    2
   555   337   338    2
   556   337   336   ar
   557   818   819    2
   558   818   817   ar
   559   351   352    1
   560   824   817   ar
   561   287   285    1
   562   287   289    1
   563   382   381   ar
   564   356   354   ar
   565   806   809    1
   566   806   807    1
   567   817   816    1
   568   280   283    1
   569   280   282    1
   570   280   269    1
   571   284   283    1
   572   284   285    1
   573   812   816    1
   574   812   811    1
   575   307   311    1
   576   334   336   ar
   577   334   335    2
   578   379   380   ar
   579   354   355    2
   580   816   815    1
   581   285   286    1
   582   313   314   ar
   583   313   312   ar
   584   311   312    1
   585   809   810    1
   586   381   380   ar
   587   842   841    2
   588   289   290    1
   589   314   315   ar
   590   312   321   ar
   591   810   811    1
   592   811   813    1
   593   269   268    1
   594   841   840   ar
   595   841   843   ar
   596   840   838   ar
   597   315   321   ar
   598   315   316   ar
   599   321   320   ar
   600   286   290    1
   601   815   813    1
   602   845   843    1
   603   862   861    1
   604   863   861   ar
   605   863   864   ar
   606   843   844   ar
   607   290   291    1
   608   320   319   ar
   609   838   839    2
   610   838   837   ar
   611   292   291   ar
   612   292   293   ar
   613   316   317    1
   614   316   318   ar
   615   813   814    1
   616   861   860   ar
   617   864   865   ar
   618   291   300   ar
   619   268   266    1
   620   268   270    1
   621   262   261    2
   622   844   837   ar
   623   293   294   ar
   624   319   318   ar
   625   837   836    1
   626   265   266    1
   627   265   264    1
   628   300   294   ar
   629   300   299   ar
   630   865   866   ar
   631   860   866   ar
   632   860   859   ar
   633   294   295   ar
   634   266   267    1
   635   270   271    1
   636   814   826    1
   637   866   857   ar
   638   299   298   ar
   639   836   832    1
   640   836   835    1
   641   828   826    2
   642   859   858   ar
   643   832   831    1
   644   261   264    1
   645   261   263    1
   646   261   249    1
   647   295   296    1
   648   295   297   ar
   649   880   879    2
   650   298   297   ar
   651   881   879   ar
   652   881   882   ar
   653   857   858   ar
   654   857   856    1
   655   883   882    2
   656   826   829    1
   657   826   827    1
   658   879   878   ar
   659   267   271    1
   660   271   272    1
   661   835   833    1
   662   829   830    1
   663   882   884   ar
   664   856   852    1
   665   856   855    1
   666   272   279   ar
   667   272   273   ar
   668   274   273    2
   669   249   248    1
   670   831   830    1
   671   831   833    1
   672   900   899    2
   673   279   278   ar
   674   273   275   ar
   675   878   877    1
   676   878   885   ar
   677   852   851    1
   678   877   873    1
   679   877   876    1
   680   278   276   ar
   681   833   834    1
   682   884   885   ar
   683   884   886    1
   684   275   276   ar
   685   901   899   ar
   686   901   902   ar
   687   899   898   ar
   688   276   277    1
   689   855   853    1
   690   873   872    1
   691   903   902    2
   692   248   250    1
   693   248   246    1
   694   902   904   ar
   695   876   874    1
   696   920   919    2
   697   898   897    1
   698   898   905   ar
   699   851   853    1
   700   851   850    1
   701   250   251    1
   702   897   893    1
   703   897   896    1
   704   834   846    1
   705   853   854    1
   706   872   874    1
   707   872   871    1
   708   917   913    1
   709   917   918    1
   710   917   916    1
   711   913   912    1
   712   849   850    1
   713   849   846    1
   714   919   918   ar
   715   919   921   ar
   716   848   846    2
   717   904   905   ar
   718   904   906    1
   719   246   245    1
   720   246   247    1
   721   893   892    1
   722   245   244    1
   723   896   894    1
   724   918   925   ar
   725   921   922   ar
   726   846   847    1
   727   874   875    1
   728   870   871    1
   729   870   867    1
   730   916   914    1
   731   242   241    2
   732   912   911    1
   733   912   914    1
   734   854   867    1
   735   922   923    1
   736   922   924   ar
   737   244   241    1
   738   251   247    1
   739   251   252    1
   740   925   924   ar
   741   254   253    2
   742   892   894    1
   743   892   891    1
   744   936   932    1
   745   936   935    1
   746   936   937    1
   747   875   887    1
   748   932   931    1
   749   252   253   ar
   750   252   259   ar
   751   945   944   ar
   752   945   946   ar
   753   253   255   ar
   754   944   943   ar
   755   894   895    1
   756   911   910    1
   757   241   243    1
   758   241   229    1
   759   914   915    1
   760   890   887    1
   761   890   891    1
   762   259   258   ar
   763   867   869    2
   764   867   868    1
   765   935   933    1
   766   946   937   ar
   767   946   940   ar
   768   255   256   ar
   769   937   938   ar
   770   889   887    2
   771   943   941   ar
   772   931   933    1
   773   931   930    1
   774   895   907    1
   775   887   888    1
   776   910   907    1
   777   258   256   ar
   778   258   260    1
   779   915   926    1
   780   256   257    2
   781   940   941   ar
   782   940   939   ar
   783   941   942    1
   784   938   939   ar
   785   953   957    1
   786   953   952    1
   787   229   228    1
   788   933   934    1
   789   930   929    1
   790   929   926    1
   791   957   958    1
   792   957   956    1
   793   907   909    2
   794   907   908    1
   795   952   951    1
   796   952   954    1
   797   934   947    1
   798   951   950    1
   799   926   928    2
   800   926   927    1
   801   966   967   ar
   802   966   965   ar
   803   958   967   ar
   804   958   959   ar
   805   228   230    1
   806   228   226    1
   807   956   954    1
   808   967   961   ar
   809   230   231    1
   810   965   964   ar
   811   959   960   ar
   812   954   955    1
   813   950   947    1
   814   955   968    1
   815   947   948    2
   816   947   949    1
   817   961   960   ar
   818   961   962   ar
   819   964   962   ar
   820   234   233    2
   821    40    39    2
   822   974   973    1
   823   974   978    1
   824   226   225    1
   825   226   227    1
   826   969   968    2
   827   962   963    1
   828    20    19    2
   829   973   972    1
   830   973   975    1
   831   233   232   ar
   832   233   235   ar
   833   225   224    1
   834   968   971    1
   835   968   970    1
   836   231   232    1
   837   231   227    1
   838   978   977    1
   839   978   979    1
   840   972   971    1
   841   222   221    2
   842   232   239   ar
   843   235   236   ar
   844   224   221    1
   845    23    22    1
   846    23    24    1
   847   239   238   ar
   848    39    27    1
   849    39    41    1
   850    39    42    1
   851    27    26    1
   852   236   238   ar
   853   236   237    2
   854   977   975    1
   855   221   223    1
   856   221   208    1
   857    22    19    1
   858   981   980    2
   859   979   980   ar
   860   979   986   ar
   861   238   240    1
   862   975   976    1
   863    19    21    1
   864    19     6    1
   865   976   988    1
   866   980   982   ar
   867   986   985   ar
   868    24    26    1
   869    24    25    1
   870     1     2    1
   871    43    42    1
   872    43    44    1
   873  1564  1560    1
   874  1564  1563    1
   875  1564  1565    1
   876  1560  1559    1
   877  1567  1566    2
   878  1563  1561    1
   879    26    28    1
   880  1559  1558    1
   881  1559  1561    1
   882    61    60    2
   883   982   983   ar
   884  1578  1579    1
   885  1578  1577    1
   886   985   983   ar
   887   985   987    1
   888  1332  1331    2
   889   992   991    1
   890   992   993    1
   891     6     5    1
   892  1562  1561    1
   893  1562  1574    1
   894   989   988    2
   895   988   991    1
   896   988   990    1
   897     2     3    1
   898   983   984    2
   899   208   207    1
   900  1579  1580    1
   901  1579  1581    1
   902  1558  1557    1
   903    62    60    1
   904  1566  1565   ar
   905  1566  1568   ar
   906  1580  1584    1
   907  1565  1572   ar
   908    60    47    1
   909    60    63    1
   910    25    29    1
   911  1575  1574    2
   912   994   993    1
   913   994   998    1
   914    47    46    1
   915     5     3    1
   916     5     7    1
   917    44    46    1
   918    44    45    1
   919   209   207    1
   920   209   210    1
   921    28    29    1
   922  1574  1577    1
   923  1574  1576    1
   924  1335  1336    1
   925  1335  1334    1
   926   993   995    1
   927    11    10   ar
   928    11    12   ar
   929  1318  1331    1
   930  1318  1317    1
   931  1354  1353    2
   932   207   205    1
   933   217   218   ar
   934   217   215   ar
   935   216   215    1
   936    10     9   ar
   937   218   219   ar
   938     3     4    1
   939    46    48    1
   940   215   214   ar
   941  1331  1334    1
   942  1331  1333    1
   943  1568  1569   ar
   944  1572  1571   ar
   945  1315  1316    1
   946  1315  1317    1
   947  1315  1314    1
   948    29    30    1
   949  1584  1583    1
   950  1584  1585    1
   951    14    13    1
   952  1336  1338    1
   953  1336  1337    1
   954   219   220   ar
   955  1319  1317    1
   956  1319  1320    1
   957  1339  1353    1
   958  1339  1338    1
   959  1582  1581    1
   960  1582  1595    1
   961   998   999    1
   962   998   997    1
   963  1581  1583    1
   964    45    49    1
   965  1557  1554    1
   966   214   220   ar
   967   214   213   ar
   968  1316  1320    1
   969  1006   999   ar
   970  1006  1005   ar
   971     7     8    1
   972    12    13   ar
   973    12    18   ar
   974   220   211   ar
   975  1007  1005    1
   976   999  1000   ar
   977  1320  1321    1
   978    63    64    1
   979     9     8    1
   980     9    18   ar
   981   213   212   ar
   982  1005  1003   ar
   983     4     8    1
   984  1353  1355    1
   985  1353  1356    1
   986  1555  1554    2
   987   210   211    1
   988   210   206    1
   989    13    15   ar
   990  1314  1313    1
   991   211   212   ar
   992  1571  1569   ar
   993  1571  1573    1
   994  1338  1340    1
   995   995   997    1
   996   995   996    1
   997  1000  1001    2
   998  1000  1002   ar
   999  1569  1570    2
  1000    64    65    1
  1001  1357  1356    1
  1002  1357  1358    1
  1003    18    17   ar
  1004    37    30   ar
  1005    37    36   ar
  1006  1585  1586   ar
  1007  1585  1594   ar
  1008   205   206    1
  1009   205   204    1
  1010  1337  1341    1
  1011  1003  1002   ar
  1012  1003  1004    2
  1013    30    31   ar
  1014  1586  1587   ar
  1015    48    49    1
  1016    51    50   ar
  1017    51    52   ar
  1018  1554  1556    1
  1019  1554  1542    1
  1020  1596  1595    2
  1021    49    50    1
  1022  1304  1303    2
  1023    15    16   ar
  1024  1595  1597    1
  1025  1595  1598    1
  1026   996  1008    1
  1027   204   203    1
  1028  1321  1330   ar
  1029  1321  1322   ar
  1030  1329  1330   ar
  1031  1329  1328   ar
  1032  1340  1341    1
  1033    17    16   ar
  1034    38    36    1
  1035    50    59   ar
  1036    52    53   ar
  1037  1594  1593   ar
  1038  1594  1588   ar
  1039  1313  1310    1
  1040    81    79    2
  1041    36    34   ar
  1042  1358  1359    1
  1043  1358  1360    1
  1044  1587  1588   ar
  1045  1542  1541    1
  1046  1535  1521    1
  1047   203   200    1
  1048  1341  1342    1
  1049  1599  1598    1
  1050  1599  1600    1
  1051    31    32    2
  1052    31    33   ar
  1053  1311  1310    2
  1054  1593  1592   ar
  1055  1330  1324   ar
  1056  1300  1301    1
  1057  1300  1298    1
  1058    65    66    1
  1059    65    67    1
  1060    80    79    1
  1061   196   195    2
  1062   202   200    2
  1063  1010  1008    2
  1064  1588  1589   ar
  1065  1303  1305   ar
  1066  1303  1302   ar
  1067  1328  1327   ar
  1068  1361  1360    1
  1069  1361  1372    1
  1070  1806  1805    2
  1071   194   195   ar
  1072   194   192   ar
  1073  1359  1363    1
  1074  1322  1323   ar
  1075    79    68    1
  1076    79    82    1
  1077  1310  1299    1
  1078  1310  1312    1
  1079  1008  1009    1
  1080  1008  1011    1
  1081    68    67    1
  1082  1299  1298    1
  1083   193   192    2
  1084  1301  1302    1
  1085  1301  1297    1
  1086    66    70    1
  1087   195   197   ar
  1088    67    69    1
  1089   200   201    1
  1090   200   188    1
  1091  1305  1306   ar
  1092  1538  1539    1
  1093  1538  1537    1
  1094  1360  1362    1
  1095  1601  1600    1
  1096  1601  1605    1
  1097    78    77   ar
  1098    78    71   ar
  1099    77    75   ar
  1100    53    59   ar
  1101    53    54   ar
  1102    59    58   ar
  1103  1600  1602    1
  1104    34    33   ar
  1105    34    35    2
  1106   192   191   ar
  1107  1592  1591   ar
  1108  1342  1343   ar
  1109  1342  1352   ar
  1110  1521  1534    1
  1111  1373  1372    2
  1112  1541  1539    1
  1113  1541  1543    1
  1114  1343  1344   ar
  1115  1298  1296    1
  1116  1539  1540    1
  1117  1534  1537    1
  1118  1534  1536    2
  1119  1302  1309   ar
  1120  1372  1374    1
  1121  1372  1375    1
  1122  1324  1323   ar
  1123  1324  1325   ar
  1124  1589  1591   ar
  1125  1589  1590    1
  1126  1011  1012    1
  1127  1828  1827    2
  1128  1607  1608   ar
  1129  1607  1606   ar
  1130  1297  1296    1
  1131   197   199    1
  1132   197   198   ar
  1133  1327  1325   ar
  1134  1296  1295    1
  1135  1809  1808    1
  1136  1809  1810    1
  1137  1363  1362    1
  1138  1363  1364    1
  1139  1805  1793    1
  1140  1805  1808    1
  1141  1805  1807    1
  1142  1012  1013    1
  1143   188   187    1
  1144   189   187    1
  1145   189   190    1
  1146   191   198   ar
  1147   191   190    1
  1148  1793  1792    1
  1149    70    71    1
  1150    70    69    1
  1151    82    83    1
  1152  1608  1609   ar
  1153  1267  1266    1
  1154    58    57   ar
  1155    71    72   ar
  1156  1285  1284    2
  1157  1605  1606    1
  1158  1605  1604    1
  1159  1306  1307    1
  1160  1306  1308   ar
  1161  1021  1020   ar
  1162  1021  1022   ar
  1163  1543  1544    1
  1164    75    76    1
  1165    75    74   ar
  1166    54    55    1
  1167    54    56   ar
  1168  1325  1326    1
  1169   187   185    1
  1170  1020  1019   ar
  1171    96    94   ar
  1172    96    97   ar
  1173  1829  1827    1
  1174  1014  1013    1
  1175  1014  1018    1
  1176    95    94    1
  1177  1352  1351    1
  1178  1352  1345   ar
  1179  1344  1345   ar
  1180  1606  1616   ar
  1181  1371  1364   ar
  1182  1371  1370   ar
  1183  1602  1603    1
  1184  1602  1604    1
  1185  1786  1785    2
  1186  1827  1813    1
  1187  1827  1830    1
  1188  1813  1812    1
  1189  1309  1308   ar
  1190  1540  1544    1
  1191  1024  1023    1
  1192  1375  1376    1
  1193  1810  1812    1
  1194  1810  1811    1
  1195  1364  1365   ar
  1196  1351  1349    1
  1197  1518  1517    1
  1198  1518  1519    1
  1199  1268  1266   ar
  1200  1268  1269   ar
  1201   190   186    1
  1202  1789  1790    1
  1203  1789  1788    1
  1204  1013  1015    1
  1205  1517  1516    1
  1206   176   175    2
  1207  1286  1284   ar
  1208  1286  1287   ar
  1209  1376  1377    1
  1210  1022  1023   ar
  1211  1022  1028   ar
  1212  1603  1617    1
  1213  1522  1523    1
  1214  1790  1792    1
  1215  1790  1791    1
  1216    94    93   ar
  1217  1019  1018    1
  1218  1019  1028   ar
  1219    97    90   ar
  1220  1266  1265   ar
  1221    83    84    1
  1222  1284  1283   ar
  1223  1609  1616   ar
  1224  1609  1610   ar
  1225  1295  1294    1
  1226  1618  1617    2
  1227  1345  1346    1
  1228  1023  1025   ar
  1229    57    56   ar
  1230  1792  1794    1
  1231  1370  1368   ar
  1232  1544  1545    1
  1233    72    74   ar
  1234    72    73    2
  1235  1616  1615   ar
  1236  1018  1017    1
  1237  1812  1814    1
  1238  1028  1027   ar
  1239  1514  1513    2
  1240  1940  1939    2
  1241  1617  1619    1
  1242  1617  1620    1
  1243    99    98    2
  1244  1288  1287    1
  1245   100    98    1
  1246   175   174   ar
  1247   175   177   ar
  1248  1788  1785    1
  1249   185   186    1
  1250   185   184    1
  1251  1269  1270   ar
  1252  1941  1939   am
  1253  1941  1942   am
  1254  1785  1771    1
  1255  1785  1787    1
  1256  1611  1610    2
  1257  1610  1612   ar
  1258  1811  1815    1
  1259  1287  1289   ar
  1260  1943  1942    2
  1261  1025  1026   ar
  1262   179   177    1
  1263  1794  1795    1
  1264  1771  1770    1
  1265   183   184    1
  1266   183   180    1
  1267  1365  1366    2
  1268  1365  1367   ar
  1269  1830  1831    1
  1270  1294  1291    1
  1271  1519  1523    1
  1272  1349  1350    1
  1273  1349  1348    2
  1274  1516  1513    1
  1275  1791  1795    1
  1276  1027  1026   ar
  1277  1939  1938    2
  1278  1831  1832    1
  1279  1015  1017    1
  1280  1015  1016    1
  1281  1523  1524    1
  1282   174   172   ar
  1283  1615  1613   ar
  1284  1391  1389    1
  1285   182   180    2
  1286  1377  1378    1
  1287  1377  1379    1
  1288    93    91   ar
  1289  1942  1944    1
  1290    84    85    1
  1291    84    86    1
  1292   157   156    1
  1293    90    91   ar
  1294    90    89    1
  1295  1283  1282    1
  1296  1283  1290   ar
  1297    98    87    1
  1298    98   101    1
  1299   177   178   ar
  1300    85    89    1
  1301  1265  1264   ar
  1302  1265  1271   ar
  1303  1064  1063    2
  1304  1281  1282    1
  1305  1281  1279    1
  1306  1552  1545   ar
  1307  1552  1551   ar
  1308  1368  1367   ar
  1309  1368  1369    1
  1310  1545  1546   ar
  1311  1346  1348    2
  1312  1346  1347    1
  1313  1282  1278    1
  1314  1513  1500    1
  1315  1513  1515    1
  1316  1814  1815    1
  1317    86    87    1
  1318    86    88    1
  1319  1500  1499    1
  1320  1795  1796    1
  1321  1612  1613   ar
  1322  1772  1770    1
  1323  1772  1773    1
  1324  1378  1382    1
  1325   180   181    1
  1326   180   168    1
  1327  1621  1620    1
  1328  1621  1622    1
  1329  1613  1614    1
  1330  1264  1263   ar
  1331    91    92    2
  1332  1815  1816    1
  1333  1847  1846    2
  1334  1016  1029    1
  1335  1270  1271   ar
  1336  1770  1768    1
  1337  1045  1044    1
  1338  1501  1499    1
  1339  1501  1502    1
  1340  1390  1389   ar
  1341  1390  1383   ar
  1342  1379  1380    1
  1343  1379  1381    1
  1344    89    88    1
  1345  1938  1945    1
  1346   172   173    2
  1347   172   171   ar
  1348  1289  1290   ar
  1349  1271  1262   ar
  1350  1389  1387   ar
  1351   178   171   ar
  1352  1394  1392    2
  1353  1848  1846    1
  1354  1768  1769    1
  1355  1768  1767    1
  1356  1944  1945    2
  1357  1944  1946    1
  1358  1347  1798    1
  1359  1063  1065   ar
  1360  1063  1062   ar
  1361  1086  1085    2
  1362  1532  1533    1
  1363  1532  1531    2
  1364  1524  1533    1
  1365  1524  1525    1
  1366   156   158   ar
  1367   156   155   ar
  1368  1291  1292    2
  1369  1291  1280    1
  1370  1291  1293    1
  1371  1832  1833    1
  1372  1832  1834    1
  1373  1553  1551    1
  1374  1630  1629   ar
  1375  1630  1631   ar
  1376  1065  1937    1
  1377  1065  1066   ar
  1378  1031  1029    2
  1379  1629  1628   ar
  1380  1551  1549   ar
  1381  1393  1392    1
  1382  1511  1510   ar
  1383  1511  1512   ar
  1384  1623  1622    1
  1385  1623  1627    1
  1386  1046  1044   ar
  1387  1046  1047   ar
  1388   101   102    1
  1389  1546  1547    2
  1390  1546  1548   ar
  1391  1499  1497    1
  1392   171   170    1
  1393  1510  1509   ar
  1394  1380  1392    1
  1395  1817  1816   ar
  1396  1817  1818   ar
  1397  1392  1395    1
  1398  1846  1835    1
  1399  1846  1849    1
  1400   158   159   ar
  1401  1278  1277    1
  1402  1773  1769    1
  1403  1773  1774    1
  1404  1279  1280    1
  1405  1279  1277    1
  1406  1937  1936    1
  1407  1937  1067    1
  1408  1044  1043   ar
  1409   162   160    2
  1410  1835  1834    1
  1411  1533  1527    1
  1412  1796  1803    1
  1413  1796  1797    1
  1414  1816  1826   ar
  1415  1622  1624    1
  1416  1933  1067    1
  1417  1782  1781    1
  1418   169   167    1
  1419   169   170    1
  1420  1383  1382    1
  1421  1383  1384   ar
  1422  1382  1381    1
  1423  1767  1766    1
  1424   120   119    2
  1425  1029  1032    1
  1426  1029  1030    1
  1427  1833  1837    1
  1428  1263  1262   ar
  1429  1531  1530    1
  1430  1084  1085   ar
  1431  1084  1082   ar
  1432   168   167    1
  1433   167   165    1
  1434  1834  1836    1
  1435   155   153   ar
  1436   143   141    2
  1437  1783  1781   ar
  1438  1783  1784   ar
  1439  1803  1802    2
  1440  1924  1923    1
  1441  1525  1526    2
  1442  1502  1503    1
  1443  1502  1498    1
  1444  1085  1087   ar
  1445   135   134    2
  1446  1047  1040   ar
  1447  1262  1261    1
  1448  1387  1388    2
  1449  1387  1386   ar
  1450  1936  1934    1
  1451   102   103    1
  1452  1062  1061   ar
  1453  1062  1069   ar
  1454  1277  1276    1
  1455  1628  1627    1
  1456  1628  1637   ar
  1457  1219  1220    1
  1458  1219  1217    1
  1459   121   119    1
  1460  1798  1797    1
  1461  1631  1632   ar
  1462  1631  1637   ar
  1463  1633  1632    1
  1464  1411  1409    1
  1465  1067  1066    1
  1466  1235  1236    1
  1467  1235  1234    1
  1468  1497  1498    1
  1469  1497  1496    1
  1470  1066  1068   ar
  1471   170   166    1
  1472  1512  1503   ar
  1473  1512  1506   ar
  1474  1061  1060   ar
  1475  1627  1626    1
  1476  1781  1780   ar
  1477  1548  1549   ar
  1478  1236  1237    1
  1479  1236  1238    1
  1480  1932  1934    1
  1481  1932  1931    1
  1482  1215  1216    1
  1483  1215  1217    1
  1484  1215  1214    1
  1485  1220  1216    1
  1486  1220  1221    1
  1487  1549  1550    1
  1488  1509  1507   ar
  1489  1818  1819   ar
  1490   163   160    1
  1491   163   164    1
  1492  1845  1844   ar
  1493  1845  1838   ar
  1494  1797  1799    2
  1495  1503  1504   ar
  1496  1218  1217    1
  1497  1218  1231    1
  1498  1083  1082    1
  1499  1083  1935    1
  1500   159   152   ar
  1501  1043  1041   ar
  1502  1774  1784   ar
  1503  1774  1775   ar
  1504  1032  1033    1
  1505   119   106    1
  1506   119   122    1
  1507  1922  1923   ar
  1508  1922  1920   ar
  1509  1930  1931    1
  1510  1930  1927    1
  1511   160   161    1
  1512   160   149    1
  1513  1237  1241    1
  1514  1632  1634   ar
  1515  1844  1842   ar
  1516  1923  1925   ar
  1517  1527  1526    1
  1518  1527  1528    2
  1519  1784  1777   ar
  1520  1082  1081   ar
  1521  1384  1386   ar
  1522  1384  1385    2
  1523  1766  1763    1
  1524  1637  1636   ar
  1525  1849  1850    1
  1526  1624  1626    1
  1527  1624  1625    1
  1528   132   133   ar
  1529   132   131   ar
  1530  1826  1819   ar
  1531  1826  1825    1
  1532  1395  1396    1
  1533   134   133   ar
  1534   134   136   ar
  1535   142   141    1
  1536  1232  1231    2
  1537  1530  1528    1
  1538  1530  1907    1
  1539  1229  1228   ar
  1540  1229  1230   ar
  1541   153   152   ar
  1542   153   154    2
  1543   141   144    1
  1544   141   127    1
  1545  1934  1935    1
  1546  1802  1804    1
  1547  1802  1800    1
  1548  1837  1836    1
  1549  1837  1838    1
  1550  1040  1041   ar
  1551  1040  1039    1
  1552   166   165    1
  1553  1069  1068   ar
  1554  1069  1059   ar
  1555   165   164    1
  1556  1214  1213    1
  1557  1239  1238    1
  1558  1239  1251    1
  1559  1252  1251    2
  1560  1904  1903    2
  1561  1087  1089    1
  1562  1087  1088   ar
  1563  1204  1203    2
  1564  1764  1763    2
  1565  1035  1039    1
  1566  1035  1034    1
  1567   133   140   ar
  1568  1496  1495    1
  1569   152   151    1
  1570  1819  1820    1
  1571  1838  1839   ar
  1572  1804  1674    1
  1573  1041  1042    2
  1574  1261  1260    1
  1575  1261  1257    1
  1576   103   105    1
  1577   103   104    1
  1578  1640  1638    2
  1579  1921  1920    2
  1580  1409  1410   ar
  1581  1409  1407   ar
  1582  1550  1869    1
  1583  1234  1231    1
  1584  1241  1240    1
  1585  1241  1242    1
  1586  1528  1529    1
  1587  1920  1919   ar
  1588  1506  1507   ar
  1589  1506  1505   ar
  1590  1825  1823    1
  1591  1238  1240    1
  1592  1060  1059   ar
  1593  1507  1508    1
  1594  1927  1929    1
  1595  1927  1928    1
  1596  1780  1778   ar
  1597  1869  1867    1
  1598  1033  1034    1
  1599  1276  1275    1
  1600   106   105    1
  1601   144   145    1
  1602  1396  1397    1
  1603  1221  1230   ar
  1604  1221  1222   ar
  1605  1228  1227   ar
  1606  1625  1638    1
  1607  1231  1233    1
  1608   131   130   ar
  1609  1408  1407    2
  1610  1850  1851    1
  1611  1657  1655    1
  1612   136   137   ar
  1613  1799  1800    2
  1614  1925  1926   ar
  1615  1775  1776   ar
  1616  1260  1258    1
  1617   105   107    1
  1618  1039  1038    1
  1619  1275  1272    1
  1620  1634  1635   ar
  1621  1230  1224   ar
  1622  1504  1505   ar
  1623   148   150    1
  1624   148   149    1
  1625   148   146    1
  1626  1636  1635   ar
  1627  1763  1750    1
  1628  1763  1765    1
  1629   150   151    1
  1630  1777  1778   ar
  1631  1777  1776   ar
  1632   110   111   ar
  1633   110   109   ar
  1634  1081  1088   ar
  1635  1081  1080    1
  1636   122   123    1
  1637  1410  1403   ar
  1638  1407  1406   ar
  1639  1495  1492    1
  1640  1800  1801    1
  1641  1842  1843    1
  1642  1842  1841   ar
  1643  1059  1058    1
  1644  1200  1201    1
  1645  1200  1198    1
  1646  1883  1882    1
  1647   111   112   ar
  1648  1638  1639    1
  1649  1638  1641    1
  1650   123   124    1
  1651  1034  1036    1
  1652  1201  1197    1
  1653  1201  1202    1
  1654  1654  1653    2
  1655  1903  1902   ar
  1656  1903  1905   ar
  1657   140   130   ar
  1658   140   139   ar
  1659   104   108    1
  1660  1928  1916    1
  1661  1398  1397    1
  1662  1398  1402    1
  1663  1907  1905    1
  1664  1778  1779    2
  1665  1919  1926   ar
  1666  1919  1918    1
  1667  1257  1256    1
  1668   151   147    1
  1669  1251  1254    1
  1670  1251  1253    1
  1671  1203  1202   ar
  1672  1203  1205   ar
  1673  1213  1210    1
  1674  1188  1187   ar
  1675  1188  1189   ar
  1676   130   129    1
  1677  1258  1256    1
  1678  1258  1259    1
  1679   127   126    1
  1680  1254  1255    1
  1681   137   139   ar
  1682   137   138    1
  1683   126   124    1
  1684   126   128    1
  1685  1655  1653   ar
  1686  1655  1656   ar
  1687  1222  1223   ar
  1688  1242  1249   ar
  1689  1242  1243   ar
  1690   145   146    1
  1691  1917  1915    1
  1692  1917  1918    1
  1693  1839  1841   ar
  1694  1839  1840    2
  1695  1867  1868    2
  1696  1867  1854    1
  1697  1867  1870    1
  1698  1820  1822    2
  1699  1820  1821    1
  1700  1823  1822    2
  1701  1823  1824    1
  1702  1187  1185   ar
  1703  1227  1225   ar
  1704  1397  1399    1
  1705  1760  1761   ar
  1706  1760  1759   ar
  1707  1902  1900   ar
  1708  1197  1196    1
  1709  1653  1652   ar
  1710  1750  1749    1
  1711  1199  1198    1
  1712  1199  1210    1
  1713   146   147    1
  1714  1859  1858   ar
  1715  1859  1860   ar
  1716   109   108    1
  1717   109   118   ar
  1718  1905  1906   ar
  1719  1751  1749    1
  1720  1751  1752    1
  1721  1858  1857   ar
  1722  1851  1853    1
  1723  1880  1881   ar
  1724  1880  1879   ar
  1725  1761  1762   ar
  1726  1202  1209   ar
  1727  1674  1673    1
  1728  1274  1272    2
  1729  1224  1225   ar
  1730  1224  1223   ar
  1731  1249  1248   ar
  1732  1036  1038    1
  1733  1036  1037    1
  1734  1493  1492    2
  1735   124   125    1
  1736  1403  1402    1
  1737  1403  1404   ar
  1738  1080  1079    1
  1739  1080  1076    1
  1740  1406  1404   ar
  1741  1244  1243    2
  1742  1196  1198    1
  1743  1196  1195    1
  1744   107   108    1
  1745  1272  1259    1
  1746  1272  1273    1
  1747  1801  1675    1
  1748  1916  1915    1
  1749  1915  1913    1
  1750  1205  1206   ar
  1751  1854  1853    1
  1752   112   118   ar
  1753   112   113   ar
  1754  1050  1048    2
  1755  1882  1881    1
  1756  1882  1862    1
  1757  1882  1884    1
  1758  1853  1855    1
  1759  1918  1914    1
  1760   125   129    1
  1761  1910  1908    2
  1762  1189  1190   ar
  1763  1256  1255    1
  1764  1492  1494    1
  1765  1492  1481    1
  1766  1414  1412    2
  1767  1821  1676    1
  1768  1759  1757   ar
  1769  1211  1210    2
  1770  1656  1649   ar
  1771  1243  1245   ar
  1772  1641  1642    1
  1773  1210  1212    1
  1774   114   113    1
  1775  1402  1401    1
  1776  1058  1054    1
  1777  1058  1057    1
  1778  1225  1226    1
  1779  1890  1888    2
  1780  1469  1468    2
  1781   129   128    1
  1782  1675  1673    1
  1783  1675  1676    1
  1784  1881  1887   ar
  1785  1749  1747    1
  1786  1852  1428    1
  1787  1852  1856    1
  1788   118   117   ar
  1789  1399  1400    1
  1790  1399  1401    1
  1791  1404  1405    2
  1792  1870  1871    1
  1793  1673  1672    1
  1794  1079  1077    1
  1795  1449  1448    2
  1796  1879  1878   ar
  1797   113   115   ar
  1798  1652  1650   ar
  1799  1900  1901    1
  1800  1900  1899   ar
  1801  1185  1186    1
  1802  1185  1184   ar
  1803  1762  1753   ar
  1804  1762  1756   ar
  1805  1076  1075    1
  1806  1906  1899   ar
  1807  1752  1753    1
  1808  1752  1748    1
  1809  1481  1480    1
  1810  1862  1884    1
  1811  1862  1861    1
  1812  1054  1053    1
  1813  1884  1885    1
  1814  1248  1250    1
  1815  1248  1246   ar
  1816  1860  1861   ar
  1817  1860  1866   ar
  1818  1911  1908    1
  1819  1911  1912    1
  1820  1857  1856    1
  1821  1857  1866   ar
  1822  1642  1643    1
  1823  1428  1427    2
  1824  1037  1048    1
  1825  1209  1208   ar
  1826  1057  1055    1
  1827  1901  1106    1
  1828  1400  1412    1
  1829  1908  1909    1
  1830  1908  1896    1
  1831  1195  1194    1
  1832  1649  1650   ar
  1833  1649  1648    1
  1834  1757  1756   ar
  1835  1757  1758    1
  1836  1676  1677    2
  1837  1206  1208   ar
  1838  1206  1207    1
  1839  1914  1913    1
  1840  1048  1049    1
  1841  1048  1051    1
  1842  1753  1754   ar
  1843  1412  1413    1
  1844  1412  1415    1
  1845  1190  1184   ar
  1846  1190  1181   ar
  1847  1899  1898    1
  1848  1245  1246   ar
  1849  1644  1643    1
  1850  1644  1648    1
  1851  1913  1912    1
  1852  1468  1467   ar
  1853  1468  1470   ar
  1854  1856  1855    1
  1855  1650  1651    1
  1856  1756  1755   ar
  1857  1747  1748    1
  1858  1747  1746    1
  1859  1467  1465   ar
  1860  1861  1863   ar
  1861  1072  1070    2
  1862   117   116   ar
  1863  1672  1671   ar
  1864  1672  1678   ar
  1865  1055  1053    1
  1866  1055  1056    1
  1867  1425  1424   ar
  1868  1425  1426   ar
  1869  1887  1878   ar
  1870  1887  1886    1
  1871  1888  1891    1
  1872  1888  1889    1
  1873  1888  1875    1
  1874   115   116   ar
  1875  1184  1183   ar
  1876  1077  1075    1
  1877  1077  1078    1
  1878  1866  1865   ar
  1879  1246  1247    2
  1880  1871  1872    1
  1881  1878  1877    1
  1882  1448  1447   ar
  1883  1448  1450   ar
  1884  1758  1695    1
  1885  1758  1737    1
  1886  1052  1053    1
  1887  1052  1051    1
  1888  1207  1696    1
  1889  1891  1892    1
  1890  1671  1670   ar
  1891  1092  1090    2
  1892  1643  1645    1
  1893  1106  1105    1
  1894  1648  1647    1
  1895  1075  1074    1
  1896  1885  1886    2
  1897  1073  1070    1
  1898  1073  1074    1
  1899  1480  1478    1
  1900  1480  1482    1
  1901  1677  1678    1
  1902  1452  1450    1
  1903  1478  1479    1
  1904  1478  1477    1
  1905  1179  1180    1
  1906  1179  1177    1
  1907  1194  1191    1
  1908  1427  1426   ar
  1909  1427  1429   ar
  1910  1895  1897    1
  1911  1895  1896    1
  1912  1895  1893    1
  1913  1738  1739   ar
  1914  1738  1736   ar
  1915  1754  1755   ar
  1916  1678  1669   ar
  1917  1651  1125    1
  1918  1897  1898    1
  1919  1739  1740   ar
  1920  1447  1445   ar
  1921  1472  1470    1
  1922  1181  1180    1
  1923  1181  1182   ar
  1924  1424  1423   ar
  1925  1426  1432   ar
  1926  1874  1875    1
  1927  1874  1872    1
  1928  1874  1876    1
  1929  1470  1471   ar
  1930  1180  1176    1
  1931  1695  1694    1
  1932  1479  1483    1
  1933  1898  1894    1
  1934  1415  1416    1
  1935  1465  1466    2
  1936  1465  1464   ar
  1937  1070  1056    1
  1938  1070  1071    1
  1939  1486  1485    2
  1940  1164  1163    2
  1941  1145  1144    2
  1942  1746  1745    1
  1943  1450  1451   ar
  1944  1872  1873    1
  1945  1873  1877    1
  1946  1737  1736    2
  1947  1148  1147    1
  1948  1483  1482    1
  1949  1483  1484    1
  1950  1146  1144   ar
  1951  1146  1147   ar
  1952  1863  1864   ar
  1953  1091  1090    1
  1954  1078  1090    1
  1955  1645  1647    1
  1956  1645  1646    1
  1957  1736  1735   ar
  1958  1125  1124    1
  1959  1670  1669   ar
  1960  1877  1876    1
  1961  1107  1105   ar
  1962  1107  1108   ar
  1963  1165  1163   ar
  1964  1165  1166   ar
  1965  1090  1093    1
  1966  1865  1864   ar
  1967  1105  1104   ar
  1968  1183  1182   ar
  1969  1740  1741   ar
  1970  1477  1476    1
  1971  1894  1893    1
  1972  1669  1668    1
  1973  1892  1893    1
  1974  1429  1430   ar
  1975  1745  1742    1
  1976  1694  1696    1
  1977  1694  1693    2
  1978  1144  1143   ar
  1979  1163  1162   ar
  1980  1167  1166    1
  1981  1696  1697    1
  1982  1147  1149   ar
  1983  1471  1464   ar
  1984  1191  1178    1
  1985  1191  1192    2
  1986  1191  1193    1
  1987  1177  1178    1
  1988  1177  1175    1
  1989  1660  1658    2
  1990  1464  1463    1
  1991  1484  1485   am
  1992  1484  1491    1
  1993  1485  1487    1
  1994  1445  1446    2
  1995  1445  1444   ar
  1996  1735  1741   ar
  1997  1735  1734   ar
  1998  1423  1432   ar
  1999  1423  1422    1
  2000  1741  1732   ar
  2001  1432  1431   ar
  2002  1176  1175    1
  2003  1416  1417    1
  2004  1166  1168   ar
  2005  1646  1658    1
  2006  1451  1444   ar
  2007  1108  1101   ar
  2008  1124  1123   ar
  2009  1124  1126   ar
  2010  1730  1731    1
  2011  1730  1728    1
  2012  1668  1664    1
  2013  1668  1667    1
  2014  1104  1102   ar
  2015  1658  1661    1
  2016  1658  1659    1
  2017  1093  1094    1
  2018  1693  1692    1
  2019  1693  1700    1
  2020  1418  1422    1
  2021  1418  1417    1
  2022  1175  1174    1
  2023  1698  1697    1
  2024  1697  1699    2
  2025  1664  1663    1
  2026  1744  1742    2
  2027  1476  1473    1
  2028  1430  1431   ar
  2029  1734  1733   ar
  2030  1444  1443    1
  2031  1742  1743    1
  2032  1742  1729    1
  2033  1692  1691    2
  2034  1435  1433    2
  2035  1123  1121   ar
  2036  1732  1731    1
  2037  1732  1733   ar
  2038  1128  1126    1
  2039  1143  1150   ar
  2040  1143  1142   ar
  2041  1491  1462    1
  2042  1491  1490    1
  2043  1149  1150   ar
  2044  1475  1473    2
  2045  1487  1488    2
  2046  1162  1161    1
  2047  1162  1169   ar
  2048  1422  1421    1
  2049  1731  1727    1
  2050  1417  1419    1
  2051  1463  1462    1
  2052  1463  1490    1
  2053  1463  1459    1
  2054  1462  1460    1
  2055  1462  1490    1
  2056  1729  1728    1
  2057  1419  1421    1
  2058  1419  1420    1
  2059  1661  1662    1
  2060  1714  1713    2
  2061  1126  1127   ar
  2062  1715  1713   ar
  2063  1715  1716   ar
  2064  1717  1716    2
  2065  1728  1726    1
  2066  1700  1699    1
  2067  1700  1690    1
  2068  1101  1102   ar
  2069  1101  1100    1
  2070  1160  1161    1
  2071  1160  1158    1
  2072  1102  1103    2
  2073  1168  1169   ar
  2074  1161  1157    1
  2075  1150  1140   ar
  2076  1667  1665    1
  2077  1473  1474    1
  2078  1473  1461    1
  2079  1691  1690    1
  2080  1094  1095    1
  2081  1142  1141   ar
  2082  1713  1712   ar
  2083  1460  1461    1
  2084  1460  1458    1
  2085  1455  1453    2
  2086  1716  1718   ar
  2087  1663  1662    1
  2088  1663  1665    1
  2089  1174  1173    1
  2090  1488  1490    1
  2091  1488  1489    1
  2092  1121  1122    2
  2093  1121  1120   ar
  2094  1096  1100    1
  2095  1096  1095    1
  2096  1420  1433    1
  2097  1433  1436    1
  2098  1433  1434    1
  2099  1443  1442    1
  2100  1443  1439    1
  2101  1690  1689    1
  2102  1459  1458    1
  2103  1665  1666    1
  2104  1436  1437    1
  2105  1173  1170    1
  2106  1727  1726    1
  2107  1127  1120   ar
  2108  1442  1440    1
  2109  1100  1099    1
  2110  1726  1725    1
  2111  1095  1097    1
  2112  1456  1453    1
  2113  1456  1457    1
  2114  1158  1159    1
  2115  1158  1156    1
  2116  1140  1141   ar
  2117  1140  1139    1
  2118  1111  1109    2
  2119  1157  1156    1
  2120  1439  1438    1
  2121  1120  1119    1
  2122  1440  1438    1
  2123  1440  1441    1
  2124  1458  1457    1
  2125  1097  1099    1
  2126  1097  1098    1
  2127  1681  1679    2
  2128  1159  1170    1
  2129  1689  1685    1
  2130  1689  1688    1
  2131  1453  1441    1
  2132  1453  1454    1
  2133  1712  1719   ar
  2134  1712  1711    1
  2135  1718  1719   ar
  2136  1718  1720    1
  2137  1437  1438    1
  2138  1685  1684    1
  2139  1156  1155    1
  2140  1666  1679    1
  2141  1170  1172    2
  2142  1170  1171    1
  2143  1724  1725    1
  2144  1724  1721    1
  2145  1710  1711    1
  2146  1710  1708    1
  2147  1139  1138    1
  2148  1139  1135    1
  2149  1098  1109    1
  2150  1109  1112    1
  2151  1109  1110    1
  2152  1679  1682    1
  2153  1679  1680    1
  2154  1711  1707    1
  2155  1723  1721    2
  2156  1688  1686    1
  2157  1119  1115    1
  2158  1119  1118    1
  2159  1682  1683    1
  2160  1138  1136    1
  2161  1112  1113    1
  2162  1708  1709    1
  2163  1708  1706    1
  2164  1709  1721    1
  2165  1721  1722    1
  2166  1115  1114    1
  2167  1684  1683    1
  2168  1684  1686    1
  2169  1135  1134    1
  2170  1154  1155    1
  2171  1154  1151    1
  2172  1686  1687    1
  2173  1118  1116    1
  2174  1136  1134    1
  2175  1136  1137    1
  2176  1707  1706    1
  2177  1116  1114    1
  2178  1116  1117    1
  2179  1113  1114    1
  2180  1153  1151    2
  2181  1706  1705    1
  2182  1134  1133    1
  2183  1151  1137    1
  2184  1151  1152    1
  2185  1132  1133    1
  2186  1132  1129    1
  2187  1131  1129    2
  2188  1687  1701    1
  2189  1704  1705    1
  2190  1704  1701    1
  2191  1117  1129    1
  2192  1129  1130    1
  2193  1701  1702    2
  2194  1701  1703    1
