@<TRIPOS>MOLECULE
dna.pdb
 1642 1844 0 0 0
SMALL
GASTEIGER

@<TRIPOS>ATOM
      1  O5'       15.5800    5.0050   13.0590 O.3     1  DA1        -0.2176
      2  C5'       15.1000    6.2430   12.5560 C.3     1  DA1         0.2140
      3  C4'       16.0510    6.8690   11.5610 C.3     1  DA1         0.1776
      4  O4'       17.4000    6.3920   11.7820 O.3     1  DA1        -0.3326
      5  C3'       15.8040    6.6100   10.0800 C.3     1  DA1         0.1559
      6  O3'       14.7900    7.4610    9.5690 O.3     1  DA1        -0.3138
      7  C2'       17.1720    6.8830    9.4670 C.3     1  DA1         0.0865
      8  C1'       18.1200    6.4170   10.5700 C.3     1  DA1         0.2094
      9  N9        18.8330    5.0780   10.4990 N.ar    1  DA1        -0.2714
     10  C8        18.9300    4.1270   11.4810 C.ar    1  DA1         0.1815
     11  N7        19.6600    3.0900   11.1440 N.ar    1  DA1        -0.2193
     12  C5        20.0690    3.3790    9.8510 C.ar    1  DA1         0.1518
     13  C6        20.8690    2.6770    8.9330 C.ar    1  DA1         0.1919
     14  N6        21.4210    1.4890    9.1910 N.pl3   1  DA1        -0.1054
     15  N1        21.0830    3.2440    7.7270 N.ar    1  DA1        -0.2040
     16  C2        20.5300    4.4350    7.4690 C.ar    1  DA1         0.2016
     17  N3        19.7620    5.1910    8.2500 N.ar    1  DA1        -0.2048
     18  C4        19.5670    4.6000    9.4410 C.ar    1  DA1         0.1691
     19  P         13.9460    7.2330    8.2720 P.3     2  DG2         0.2141
     20  OP1       14.5670    6.1270    7.5010 O.2     2  DG2        -0.5172
     21  OP2       13.0340    8.1870    7.5930 O.3     2  DG2        -0.4373
     22  O5'       13.2050    6.5180    9.5140 O.3     2  DG2        -0.3114
     23  C5'       11.8210    6.6950    9.7810 C.3     2  DG2         0.1811
     24  C4'       11.6110    7.1260   11.2190 C.3     2  DG2         0.1746
     25  O4'       12.4960    8.2140   11.6060 O.3     2  DG2        -0.3327
     26  C3'       10.2500    7.7360   11.5090 C.3     2  DG2         0.1558
     27  O3'        9.1960    6.7810   11.4620 O.3     2  DG2        -0.3138
     28  C2'       10.5220    8.3160   12.8910 C.3     2  DG2         0.0865
     29  C1'       11.8360    9.0380   12.5640 C.3     2  DG2         0.2094
     30  N9        11.7540   10.4080   11.8080 N.ar    2  DG2        -0.2713
     31  C8        12.3000   10.6570   10.5720 C.ar    2  DG2         0.1816
     32  N7        12.3420   11.9270   10.2740 N.ar    2  DG2        -0.2173
     33  C5        11.7950   12.5570   11.3770 C.ar    2  DG2         0.1748
     34  C6        11.5740   13.9330   11.6390 C.ar    2  DG2         0.3023
     35  O6        11.8310   14.9020   10.9130 O.2     2  DG2        -0.2633
     36  N1        10.9910   14.1390   12.8860 N.ar    2  DG2        -0.1709
     37  C2        10.6630   13.1410   13.7720 C.ar    2  DG2         0.2606
     38  N2        10.1090   13.5350   14.9270 N.pl3   2  DG2        -0.0859
     39  N3        10.8620   11.8580   13.5430 N.ar    2  DG2        -0.1918
     40  C4        11.4260   11.6340   12.3370 C.ar    2  DG2         0.1722
     41  P          7.9580    7.1260   10.6150 P.3     3  DC3         0.2141
     42  OP1        7.0140    5.9960   10.4980 O.3     3  DC3        -0.4373
     43  OP2        8.5670    7.7480    9.4130 O.2     3  DC3        -0.5172
     44  O5'        7.2350    8.1940   11.5480 O.3     3  DC3        -0.3114
     45  C5'        6.5170    7.7130   12.6720 C.3     3  DC3         0.1811
     46  C4'        5.9280    8.8640   13.4530 C.3     3  DC3         0.1746
     47  O4'        6.9620    9.8450   13.6690 O.3     3  DC3        -0.3327
     48  C3'        4.8780    9.6420   12.7040 C.3     3  DC3         0.1558
     49  O3'        3.6280    9.0390   12.8280 O.3     3  DC3        -0.3138
     50  C2'        4.9250   10.9520   13.4520 C.3     3  DC3         0.0866
     51  C1'        6.4200   11.1470   13.6130 C.3     3  DC3         0.2106
     52  N1         7.0310   11.8950   12.5200 N.ar    3  DC3        -0.2556
     53  C2         6.9900   13.2940   12.5070 C.ar    3  DC3         0.3531
     54  O2         6.2800   13.8790   13.3440 O.2     3  DC3        -0.2443
     55  N3         7.7200   13.9670   11.5860 N.ar    3  DC3        -0.1739
     56  C4         8.4670   13.2980   10.7080 C.ar    3  DC3         0.1759
     57  N4         9.1690   14.0030    9.8190 N.pl3   3  DC3        -0.1070
     58  C5         8.5220   11.8800   10.7040 C.ar    3  DC3         0.0566
     59  C6         7.8000   11.2190   11.6150 C.ar    3  DC3         0.0849
     60  P          2.7080    9.1580   11.6410 P.3     4  DA4         0.2141
     61  OP1        1.9050    8.2550   12.4890 O.3     4  DA4        -0.4373
     62  OP2        3.3100    8.6270   10.3990 O.2     4  DA4        -0.5172
     63  O5'        1.8120   10.4170   11.2150 O.3     4  DA4        -0.3114
     64  C5'        0.9830   11.1210   12.1660 C.3     4  DA4         0.1811
     65  C4'        0.5570   12.4760   11.6180 C.3     4  DA4         0.1746
     66  O4'        1.6800   13.3910   11.7120 O.3     4  DA4        -0.3327
     67  C3'        0.1350   12.5050   10.1520 C.3     4  DA4         0.1558
     68  O3'       -1.2500   12.2030    9.9900 O.3     4  DA4        -0.3138
     69  C2'        0.4720   13.9270    9.7190 C.3     4  DA4         0.0865
     70  C1'        1.7180   14.2250   10.5630 C.3     4  DA4         0.2094
     71  N9         3.0500   14.0380    9.8900 N.ar    4  DA4        -0.2714
     72  C8         3.7780   12.8900    9.7120 C.ar    4  DA4         0.1815
     73  N7         4.9070   13.0740    9.0700 N.ar    4  DA4        -0.2193
     74  C5         4.9220   14.4350    8.8080 C.ar    4  DA4         0.1518
     75  C6         5.8520   15.2620    8.1540 C.ar    4  DA4         0.1919
     76  N6         6.9930   14.8170    7.6240 N.pl3   4  DA4        -0.1054
     77  N1         5.5630   16.5780    8.0620 N.ar    4  DA4        -0.2040
     78  C2         4.4190   17.0240    8.5940 C.ar    4  DA4         0.2016
     79  N3         3.4690   16.3450    9.2330 N.ar    4  DA4        -0.2048
     80  C4         3.7840   15.0410    9.3060 C.ar    4  DA4         0.1691
     81  P         -1.7200   11.2490    8.7510 P.3     5  DG5         0.2141
     82  OP1       -3.1950   11.3420    8.6820 O.3     5  DG5        -0.4373
     83  OP2       -0.9800   10.1220    8.1460 O.2     5  DG5        -0.5172
     84  O5'       -1.0740   12.5350    8.0610 O.3     5  DG5        -0.3114
     85  C5'       -1.8390   13.7100    7.8700 C.3     5  DG5         0.1811
     86  C4'       -1.1870   14.5930    6.8430 C.3     5  DG5         0.1746
     87  O4'        0.1350   14.9610    7.3040 O.3     5  DG5        -0.3327
     88  C3'       -0.9310   13.9730    5.4770 C.3     5  DG5         0.1558
     89  O3'       -2.0630   14.0060    4.6350 O.3     5  DG5        -0.3138
     90  C2'        0.1810   14.8450    4.9360 C.3     5  DG5         0.0865
     91  C1'        1.0030   15.1030    6.1980 C.3     5  DG5         0.2094
     92  N9         2.1350   14.1140    6.3210 N.ar    5  DG5        -0.2713
     93  C8         2.2680   13.0240    7.1460 C.ar    5  DG5         0.1816
     94  N7         3.4070   12.4040    7.0020 N.ar    5  DG5        -0.2173
     95  C5         4.0690   13.1270    6.0260 C.ar    5  DG5         0.1748
     96  C6         5.3490   12.9360    5.4450 C.ar    5  DG5         0.3023
     97  O6         6.1800   12.0530    5.6950 O.2     5  DG5        -0.2633
     98  N1         5.6340   13.9020    4.4840 N.ar    5  DG5        -0.1709
     99  C2         4.7890   14.9260    4.1270 C.ar    5  DG5         0.2606
    100  N2         5.2400   15.7600    3.1800 N.pl3   5  DG5        -0.0859
    101  N3         3.5970   15.1150    4.6570 N.ar    5  DG5        -0.1918
    102  C4         3.2990   14.1880    5.5920 C.ar    5  DG5         0.1722
    103  P         -2.3860   12.7330    3.7810 P.3     6  DC6         0.2141
    104  OP1       -3.8470   12.9800    3.7560 O.2     6  DC6        -0.5172
    105  OP2       -1.8490   11.5240    4.4420 O.3     6  DC6        -0.4373
    106  O5'       -1.8450   12.7970    2.2760 O.3     6  DC6        -0.3114
    107  C5'       -2.1060   13.9470    1.4880 C.3     6  DC6         0.1811
    108  C4'       -0.8710   14.3540    0.7080 C.3     6  DC6         0.1746
    109  O4'        0.2860   14.4810    1.5810 O.3     6  DC6        -0.3327
    110  C3'       -0.3570   13.3360   -0.2900 C.3     6  DC6         0.1558
    111  O3'       -1.2280   13.1860   -1.4060 O.3     6  DC6        -0.3138
    112  C2'        0.9980   13.9740   -0.6040 C.3     6  DC6         0.0866
    113  C1'        1.4640   14.2130    0.8280 C.3     6  DC6         0.2106
    114  N1         2.1190   12.9380    1.4350 N.ar    6  DC6        -0.2556
    115  C2         3.4240   12.5840    1.0750 C.ar    6  DC6         0.3531
    116  O2         3.9620   13.1720    0.1210 O.2     6  DC6        -0.2443
    117  N3         4.0610   11.6140    1.7740 N.ar    6  DC6        -0.1739
    118  C4         3.4440   11.0100    2.7900 C.ar    6  DC6         0.1759
    119  N4         4.1110   10.0600    3.4500 N.pl3   6  DC6        -0.1070
    120  C5         2.1220   11.3540    3.1710 C.ar    6  DC6         0.0566
    121  C6         1.4960   12.3120    2.4780 C.ar    6  DC6         0.0849
    122  P         -1.3470   11.6250   -2.1730 P.3     7  DA7         0.2141
    123  OP1       -2.4350   11.7700   -3.1700 O.2     7  DA7        -0.5172
    124  OP2       -1.4630   10.6070   -1.1110 O.3     7  DA7        -0.4373
    125  O5'        0.0390   11.3790   -2.9220 O.3     7  DA7        -0.3114
    126  C5'        0.3950   12.1570   -4.0760 C.3     7  DA7         0.1811
    127  C4'        1.8040   11.8490   -4.5200 C.3     7  DA7         0.1746
    128  O4'        2.7260   12.1280   -3.4360 O.3     7  DA7        -0.3327
    129  C3'        2.1070   10.4220   -4.9460 C.3     7  DA7         0.1558
    130  O3'        1.7390   10.2260   -6.3070 O.3     7  DA7        -0.3138
    131  C2'        3.6180   10.3180   -4.7280 C.3     7  DA7         0.0865
    132  C1'        3.8320   11.2370   -3.5160 C.3     7  DA7         0.2094
    133  N9         3.9820   10.4600   -2.2670 N.ar    7  DA7        -0.2714
    134  C8         3.1120   10.2220   -1.2350 C.ar    7  DA7         0.1815
    135  N7         3.5660    9.3710   -0.3450 N.ar    7  DA7        -0.2193
    136  C5         4.8190    9.0260   -0.8270 C.ar    7  DA7         0.1518
    137  C6         5.8140    8.1590   -0.3390 C.ar    7  DA7         0.1919
    138  N6         5.6930    7.4560    0.7890 N.pl3   7  DA7        -0.1054
    139  N1         6.9490    8.0390   -1.0610 N.ar    7  DA7        -0.2040
    140  C2         7.0690    8.7450   -2.1910 C.ar    7  DA7         0.2016
    141  N3         6.2060    9.5910   -2.7500 N.ar    7  DA7        -0.2048
    142  C4         5.0890    9.6870   -2.0090 C.ar    7  DA7         0.1691
    143  P          1.5860    8.7220   -6.8800 P.3     8  DC8         0.2141
    144  OP1        1.0090    8.7130   -8.2420 O.2     8  DC8        -0.5172
    145  OP2        0.8480    8.2490   -5.6910 O.3     8  DC8        -0.4373
    146  O5'        2.9350    7.8660   -6.9380 O.3     8  DC8        -0.3114
    147  C5'        3.8240    7.8930   -8.0370 C.3     8  DC8         0.1811
    148  C4'        5.1950    7.3130   -7.6800 C.3     8  DC8         0.1746
    149  O4'        5.6620    7.8660   -6.4190 O.3     8  DC8        -0.3327
    150  C3'        5.3100    5.8070   -7.4500 C.3     8  DC8         0.1558
    151  O3'        5.4090    5.0540   -8.6630 O.3     8  DC8        -0.3138
    152  C2'        6.6170    5.7570   -6.6710 C.3     8  DC8         0.0866
    153  C1'        6.4610    6.9300   -5.7210 C.3     8  DC8         0.2106
    154  N1         5.8980    6.5980   -4.4100 N.ar    8  DC8        -0.2556
    155  C2         6.7200    5.9020   -3.5160 C.ar    8  DC8         0.3531
    156  O2         7.8680    5.5910   -3.8780 O.2     8  DC8        -0.2443
    157  N3         6.2420    5.5870   -2.2890 N.ar    8  DC8        -0.1739
    158  C4         5.0030    5.9400   -1.9440 C.ar    8  DC8         0.1759
    159  N4         4.5760    5.6080   -0.7240 N.pl3   8  DC8        -0.1070
    160  C5         4.1540    6.6460   -2.8350 C.ar    8  DC8         0.0566
    161  C6         4.6300    6.9550   -4.0460 C.ar    8  DC8         0.0849
    162  P          4.7520    3.5060   -8.8460 P.3     9  DA9         0.2141
    163  OP1        5.0480    2.9400  -10.1770 O.2     9  DA9        -0.5172
    164  OP2        3.5050    3.1600   -8.1340 O.3     9  DA9        -0.4373
    165  O5'        5.9820    3.1780   -7.9090 O.3     9  DA9        -0.3114
    166  C5'        7.0740    2.4980   -8.4330 C.3     9  DA9         0.1811
    167  C4'        7.6910    1.7440   -7.2840 C.3     9  DA9         0.1746
    168  O4'        7.6620    2.5120   -6.0590 O.3     9  DA9        -0.3327
    169  C3'        6.9230    0.5170   -6.8940 C.3     9  DA9         0.1558
    170  O3'        7.1750   -0.3880   -7.9100 O.3     9  DA9        -0.3138
    171  C2'        7.7940    0.2560   -5.6920 C.3     9  DA9         0.0865
    172  C1'        7.8060    1.6070   -4.9910 C.3     9  DA9         0.2094
    173  N9         6.7130    1.9140   -4.1250 N.ar    9  DA9        -0.2714
    174  C8         5.5920    2.5730   -4.5600 C.ar    9  DA9         0.1815
    175  N7         4.6830    2.7400   -3.6290 N.ar    9  DA9        -0.2193
    176  C5         5.2430    2.1490   -2.5080 C.ar    9  DA9         0.1518
    177  C6         4.7790    1.9920   -1.1900 C.ar    9  DA9         0.1919
    178  N6         3.5950    2.4380   -0.7650 N.pl3   9  DA9        -0.1054
    179  N1         5.5850    1.3540   -0.3140 N.ar    9  DA9        -0.2040
    180  C2         6.7720    0.9090   -0.7410 C.ar    9  DA9         0.2016
    181  N3         7.3180    0.9970   -1.9520 N.ar    9  DA9        -0.2048
    182  C4         6.4930    1.6350   -2.7980 C.ar    9  DA9         0.1691
    183  P          6.2190   -1.7020   -8.1210 P.3    10  DG10        0.2141
    184  OP1        6.5790   -2.5860   -9.2710 O.2    10  DG10       -0.5172
    185  OP2        4.8000   -1.3180   -7.9070 O.3    10  DG10       -0.4373
    186  O5'        6.7360   -2.3730   -6.7690 O.3    10  DG10       -0.3114
    187  C5'        8.1360   -2.5880   -6.5660 C.3    10  DG10        0.1811
    188  C4'        8.4080   -3.0650   -5.1610 C.3    10  DG10        0.1746
    189  O4'        8.0400   -2.0380   -4.2010 O.3    10  DG10       -0.3327
    190  C3'        7.6450   -4.2790   -4.6690 C.3    10  DG10        0.1558
    191  O3'        8.1680   -5.4990   -5.1800 O.3    10  DG10       -0.3138
    192  C2'        7.8530   -4.1590   -3.1630 C.3    10  DG10        0.0865
    193  C1'        7.7040   -2.6470   -2.9670 C.3    10  DG10        0.2094
    194  N9         6.2810   -2.2860   -2.7460 N.ar   10  DG10       -0.2713
    195  C8         5.4230   -1.6840   -3.6340 C.ar   10  DG10        0.1816
    196  N7         4.2340   -1.4710   -3.1370 N.ar   10  DG10       -0.2173
    197  C5         4.3100   -1.9570   -1.8460 C.ar   10  DG10        0.1748
    198  C6         3.3330   -2.0050   -0.8190 C.ar   10  DG10        0.3023
    199  O6         2.1620   -1.6080   -0.8560 O.2    10  DG10       -0.2633
    200  N1         3.8290   -2.5860    0.3450 N.ar   10  DG10       -0.1709
    201  C2         5.1090   -3.0610    0.5010 C.ar   10  DG10        0.2606
    202  N2         5.4030   -3.5860    1.6980 N.pl3  10  DG10       -0.0859
    203  N3         6.0280   -3.0240   -0.4440 N.ar   10  DG10       -0.1918
    204  C4         5.5680   -2.4650   -1.5840 C.ar   10  DG10        0.1722
    205  P          7.1810   -6.8800   -5.2640 P.3    11  DA11        0.2141
    206  OP1        8.2870   -7.6020   -5.9380 O.2    11  DA11       -0.5172
    207  OP2        5.8120   -6.8690   -5.8370 O.3    11  DA11       -0.4373
    208  O5'        7.0240   -7.3890   -3.7630 O.3    11  DA11       -0.3114
    209  C5'        8.1210   -7.3860   -2.8360 C.3    11  DA11        0.1812
    210  C4'        7.6240   -7.8160   -1.4620 C.3    11  DA11        0.1775
    211  O4'        7.1140   -6.6400   -0.8100 O.3    11  DA11       -0.3326
    212  C3'        6.4690   -8.8290   -1.4560 C.3    11  DA11        0.1859
    213  O3'        6.9280  -10.1910   -1.3260 O.3    11  DA11       -0.2203
    214  C2'        5.6880   -8.4280   -0.2390 C.3    11  DA11        0.0894
    215  C1'        5.8790   -6.9180   -0.2080 C.3    11  DA11        0.2095
    216  N9         4.7960   -6.1950   -0.7720 N.ar   11  DA11       -0.2714
    217  C8         4.6980   -5.7040   -2.0480 C.ar   11  DA11        0.1815
    218  N7         3.5240   -5.1890   -2.3280 N.ar   11  DA11       -0.2193
    219  C5         2.8020   -5.3540   -1.1560 C.ar   11  DA11        0.1518
    220  C6         1.4840   -5.0150   -0.8020 C.ar   11  DA11        0.1919
    221  N6         0.6270   -4.4130   -1.6310 N.pl3  11  DA11       -0.1054
    222  N1         1.0740   -5.3190    0.4480 N.ar   11  DA11       -0.2040
    223  C2         1.9330   -5.9210    1.2770 C.ar   11  DA11        0.2016
    224  N3         3.1940   -6.2880    1.0600 N.ar   11  DA11       -0.2048
    225  C4         3.5710   -5.9730   -0.1900 C.ar   11  DA11        0.1691
    226  P          6.5660  -11.4080   -2.5800 P.3    12  DG12        0.5411
    227  OP1        6.9200  -12.8420   -2.3620 O.2    12  DG12       -0.2272
    228  OP2        6.1490  -10.9480   -3.9290 O.2    12  DG12       -0.2272
    229  O5'        5.3960  -11.0210   -1.5790 O.3    12  DG12       -0.2722
    230  C5'        5.5640  -11.2200   -0.1860 C.3    12  DG12        0.1850
    231  C4'        4.2510  -11.0890    0.5210 C.3    12  DG12        0.1748
    232  O4'        3.8570   -9.7010    0.6550 O.3    12  DG12       -0.3327
    233  C3'        3.0950  -11.7620   -0.1940 C.3    12  DG12        0.1558
    234  O3'        3.0860  -13.1720    0.0070 O.3    12  DG12       -0.3138
    235  C2'        1.8910  -11.0450    0.3890 C.3    12  DG12        0.0865
    236  C1'        2.4420   -9.6310    0.5980 C.3    12  DG12        0.2094
    237  N9         1.9560   -8.7750   -0.4780 N.ar   12  DG12       -0.2713
    238  C8         2.5360   -8.4920   -1.6910 C.ar   12  DG12        0.1816
    239  N7         1.7560   -7.8170   -2.4900 N.ar   12  DG12       -0.2173
    240  C5         0.5930   -7.6390   -1.7650 C.ar   12  DG12        0.1748
    241  C6        -0.6170   -6.9820   -2.1070 C.ar   12  DG12        0.3023
    242  O6        -0.9030   -6.4050   -3.1630 O.2    12  DG12       -0.2633
    243  N1        -1.5490   -7.0370   -1.0740 N.ar   12  DG12       -0.1709
    244  C2        -1.3410   -7.6490    0.1390 C.ar   12  DG12        0.2606
    245  N2        -2.3580   -7.5960    1.0090 N.pl3  12  DG12       -0.0859
    246  N3        -0.2230   -8.2640    0.4700 N.ar   12  DG12       -0.1918
    247  C4         0.6960   -8.2240   -0.5180 C.ar   12  DG12        0.1722
    248  P          2.0770  -14.2300   -0.9940 P.3    13  DG13        0.2141
    249  OP1        2.4040  -15.6250   -0.5680 O.3    13  DG13       -0.4373
    250  OP2        2.2420  -13.6620   -2.3790 O.2    13  DG13       -0.5172
    251  O5'        0.5910  -13.8320   -0.5180 O.3    13  DG13       -0.3114
    252  C5'        0.1340  -14.4540    0.6850 C.3    13  DG13        0.1811
    253  C4'       -1.1740  -13.9040    1.1900 C.3    13  DG13        0.1746
    254  O4'       -1.1080  -12.4720    1.1430 O.3    13  DG13       -0.3327
    255  C3'       -2.3950  -14.1320    0.3470 C.3    13  DG13        0.1558
    256  O3'       -2.9260  -15.3600    0.6380 O.3    13  DG13       -0.3138
    257  C2'       -3.3550  -13.0910    0.8530 C.3    13  DG13        0.0865
    258  C1'       -2.3840  -11.9260    0.8450 C.3    13  DG13        0.2094
    259  N9        -2.3060  -11.2350   -0.5090 N.ar   13  DG13       -0.2713
    260  C8        -1.2810  -11.2220   -1.4240 C.ar   13  DG13        0.1816
    261  N7        -1.5160  -10.4520   -2.4510 N.ar   13  DG13       -0.2173
    262  C5        -2.7690   -9.9220   -2.2030 C.ar   13  DG13        0.1748
    263  C6        -3.5570   -9.0200   -2.9640 C.ar   13  DG13        0.3023
    264  O6        -3.2840   -8.4930   -4.0490 O.2    13  DG13       -0.2633
    265  N1        -4.7730   -8.7430   -2.3460 N.ar   13  DG13       -0.1709
    266  C2        -5.1800   -9.2700   -1.1430 C.ar   13  DG13        0.2606
    267  N2        -6.3860   -8.8840   -0.7070 N.pl3  13  DG13       -0.0859
    268  N3        -4.4600  -10.1100   -0.4260 N.ar   13  DG13       -0.1918
    269  C4        -3.2750  -10.3940   -1.0070 C.ar   13  DG13        0.1722
    270  P         -3.3530  -16.0000   -0.4980 P.3    14  DT14        0.2141
    271  OP1       -3.8050  -17.3300   -0.0510 O.3    14  DT14       -0.4373
    272  OP2       -2.5190  -15.8870   -1.7170 O.2    14  DT14       -0.5172
    273  O5'       -4.6570  -15.1060   -0.6490 O.3    14  DT14       -0.3114
    274  C5'       -5.5590  -14.9550    0.4590 C.3    14  DT14        0.1811
    275  C4'       -6.8560  -14.3310    0.0070 C.3    14  DT14        0.1746
    276  O4'       -6.6380  -12.9510   -0.3660 O.3    14  DT14       -0.3327
    277  C3'       -7.4700  -15.0020   -1.2050 C.3    14  DT14        0.1558
    278  O3'       -8.3550  -16.0140   -0.7720 O.3    14  DT14       -0.3138
    279  C2'       -8.2430  -13.8730   -1.8560 C.3    14  DT14        0.0866
    280  C1'       -7.3610  -12.6600   -1.5420 C.3    14  DT14        0.2106
    281  N1        -6.2400  -12.2310   -2.6650 N.ar   14  DT14       -0.2559
    282  C2        -6.7700  -11.5010   -3.7120 C.ar   14  DT14        0.3545
    283  O2        -7.9240  -11.1100   -3.7310 O.2    14  DT14       -0.2443
    284  N3        -5.8980  -11.2440   -4.7420 N.ar   14  DT14       -0.1533
    285  C4        -4.5780  -11.6350   -4.8290 C.ar   14  DT14        0.2804
    286  O4        -3.9200  -11.3280   -5.8190 O.2    14  DT14       -0.2654
    287  C5        -4.1020  -12.3900   -3.7040 C.ar   14  DT14        0.0534
    288  C6        -4.9290  -12.6540   -2.6890 C.ar   14  DT14        0.0824
    289  C7        -2.6780  -12.8620   -3.7040 C.3    14  DT14        0.0377
    290  P         -8.7610  -17.3490   -1.7920 P.3    15  DC15        0.2141
    291  OP1       -9.8600  -18.2890   -1.4560 O.3    15  DC15       -0.4373
    292  OP2       -7.3780  -17.8670   -1.9990 O.2    15  DC15       -0.5172
    293  O5'       -9.1630  -16.6260   -3.1430 O.3    15  DC15       -0.3114
    294  C5'      -10.5120  -16.3360   -3.4170 C.3    15  DC15        0.1811
    295  C4'      -10.6800  -16.0650   -4.8740 C.3    15  DC15        0.1746
    296  O4'       -9.8870  -14.9060   -5.2190 O.3    15  DC15       -0.3327
    297  C3'      -10.1670  -17.1560   -5.7870 C.3    15  DC15        0.1558
    298  O3'      -11.1250  -18.1710   -5.9610 O.3    15  DC15       -0.3138
    299  C2'       -9.8800  -16.4010   -7.0680 C.3    15  DC15        0.0866
    300  C1'       -9.3560  -15.0730   -6.5270 C.3    15  DC15        0.2106
    301  N1        -7.8000  -15.1690   -6.3940 N.ar   15  DC15       -0.2556
    302  C2        -7.0500  -15.0300   -7.5680 C.ar   15  DC15        0.3531
    303  O2        -7.6500  -14.9270   -8.6510 O.2    15  DC15       -0.2443
    304  N3        -5.6980  -15.0130   -7.4880 N.ar   15  DC15       -0.1739
    305  C4        -5.0980  -15.1280   -6.3030 C.ar   15  DC15        0.1759
    306  N4        -3.7630  -15.1060   -6.2740 N.pl3  15  DC15       -0.1070
    307  C5        -5.8400  -15.2700   -5.1020 C.ar   15  DC15        0.0566
    308  C6        -7.1750  -15.2860   -5.1850 C.ar   15  DC15        0.0849
    309  P        -10.6350  -19.7070   -5.8730 P.3    16  DA16        0.2141
    310  OP1      -11.6230  -20.8550   -5.6360 O.2    16  DA16       -0.5172
    311  OP2       -9.3580  -19.6390   -5.0640 O.3    16  DA16       -0.4373
    312  O5'      -10.1990  -19.7360   -7.4030 O.3    16  DA16       -0.3114
    313  C5'      -11.2490  -19.8860   -8.3730 C.3    16  DA16        0.1811
    314  C4'      -10.5670  -19.8300   -9.7100 C.3    16  DA16        0.1746
    315  O4'       -9.7700  -18.6230   -9.7660 O.3    16  DA16       -0.3327
    316  C3'       -9.5190  -20.9070   -9.8660 C.3    16  DA16        0.1558
    317  O3'      -10.1150  -22.1010  -10.2390 O.3    16  DA16       -0.3138
    318  C2'       -8.6230  -20.3310  -10.9470 C.3    16  DA16        0.0865
    319  C1'       -8.5730  -18.8850  -10.4910 C.3    16  DA16        0.2094
    320  N9        -7.4050  -18.7800   -9.6670 N.ar   16  DA16       -0.2714
    321  C8        -7.4350  -18.5730   -8.3130 C.ar   16  DA16        0.1815
    322  N7        -6.2470  -18.4850   -7.7640 N.ar   16  DA16       -0.2193
    323  C5        -5.3770  -18.6460   -8.8310 C.ar   16  DA16        0.1518
    324  C6        -3.9730  -18.6540   -8.9140 C.ar   16  DA16        0.1919
    325  N6        -3.1690  -18.4880   -7.8610 N.pl3  16  DA16       -0.1054
    326  N1        -3.4180  -18.8400  -10.1300 N.ar   16  DA16       -0.2040
    327  C2        -4.2250  -19.0050  -11.1850 C.ar   16  DA16        0.2016
    328  N3        -5.5550  -19.0160  -11.2330 N.ar   16  DA16       -0.2048
    329  C4        -6.0750  -18.8300  -10.0090 C.ar   16  DA16        0.1691
    330  P         -9.4570  -23.3900   -9.7340 P.3    17  DG17        0.2141
    331  OP1      -10.6670  -24.2290   -9.8780 O.2    17  DG17       -0.5172
    332  OP2       -8.7130  -23.3910   -8.4460 O.3    17  DG17       -0.4373
    333  O5'       -8.4290  -23.7980  -10.8780 O.3    17  DG17       -0.3114
    334  C5'       -8.7770  -23.6760  -12.2630 C.3    17  DG17        0.1811
    335  C4'       -7.5370  -23.7450  -13.1160 C.3    17  DG17        0.1746
    336  O4'       -6.7270  -22.5600  -12.9110 O.3    17  DG17       -0.3327
    337  C3'       -6.5820  -24.8810  -12.8070 C.3    17  DG17        0.1558
    338  O3'       -7.0120  -26.0990  -13.3720 O.3    17  DG17       -0.3138
    339  C2'       -5.2940  -24.3700  -13.4270 C.3    17  DG17        0.0865
    340  C1'       -5.3550  -22.8950  -13.0320 C.3    17  DG17        0.2094
    341  N9        -4.7210  -22.7230  -11.6490 N.ar   17  DG17       -0.2713
    342  C8        -5.3820  -22.4560  -10.4740 C.ar   17  DG17        0.1816
    343  N7        -4.5780  -22.2580   -9.4650 N.ar   17  DG17       -0.2173
    344  C5        -3.3120  -22.3990  -10.0010 C.ar   17  DG17        0.1748
    345  C6        -2.0350  -22.2970   -9.3920 C.ar   17  DG17        0.3023
    346  O6        -1.7670  -22.0510   -8.2100 O.2    17  DG17       -0.2633
    347  N1        -1.0050  -22.5140  -10.3040 N.ar   17  DG17       -0.1709
    348  C2        -1.1840  -22.7940  -11.6370 C.ar   17  DG17        0.2606
    349  N2        -0.0680  -22.9710  -12.3590 N.pl3  17  DG17       -0.0859
    350  N3        -2.3640  -22.8920  -12.2170 N.ar   17  DG17       -0.1918
    351  C4        -3.3790  -22.6860  -11.3510 C.ar   17  DG17        0.1722
    352  P         -6.7570  -26.9440  -12.7040 P.3    18  DA18        0.2141
    353  OP1       -7.3380  -28.1630  -13.2990 O.2    18  DA18       -0.5172
    354  OP2       -7.0390  -26.5850  -11.2920 O.3    18  DA18       -0.4373
    355  O5'       -5.1650  -27.0770  -12.7670 O.3    18  DA18       -0.3114
    356  C5'       -4.5500  -27.3930  -14.0050 C.3    18  DA18        0.1811
    357  C4'       -3.0480  -27.2880  -13.9300 C.3    18  DA18        0.1746
    358  O4'       -2.6660  -25.9980  -13.3920 O.3    18  DA18       -0.3327
    359  C3'       -2.3580  -28.2640  -12.9950 C.3    18  DA18        0.1558
    360  O3'       -2.2310  -29.5540  -13.5410 O.3    18  DA18       -0.3138
    361  C2'       -1.0210  -27.5850  -12.7390 C.3    18  DA18        0.0865
    362  C1'       -1.4650  -26.1320  -12.6590 C.3    18  DA18        0.2094
    363  N9        -1.6770  -25.7890  -11.2600 N.ar   18  DA18       -0.2714
    364  C8        -2.8900  -25.6800  -10.6310 C.ar   18  DA18        0.1815
    365  N7        -2.8010  -25.3420   -9.3660 N.ar   18  DA18       -0.2193
    366  C5        -1.4380  -25.2220   -9.1500 C.ar   18  DA18        0.1518
    367  C6        -0.6870  -24.8860   -8.0100 C.ar   18  DA18        0.1919
    368  N6        -1.2310  -24.5970   -6.8250 N.pl3  18  DA18       -0.1054
    369  N1         0.6570  -24.8570   -8.1310 N.ar   18  DA18       -0.2040
    370  C2         1.2020  -25.1460   -9.3190 C.ar   18  DA18        0.2016
    371  N3         0.6020  -25.4750  -10.4610 N.ar   18  DA18       -0.2048
    372  C4        -0.7330  -25.4960  -10.3070 C.ar   18  DA18        0.1691
    373  P         -2.2630  -30.6350  -12.6080 P.3    19  DT19        0.2141
    374  OP1       -2.2340  -31.8010  -13.5260 O.2    19  DT19       -0.5172
    375  OP2       -3.1400  -30.6610  -11.4060 O.3    19  DT19       -0.4373
    376  O5'       -0.7650  -30.4160  -12.1240 O.3    19  DT19       -0.3114
    377  C5'        0.3090  -30.7040  -12.9890 C.3    19  DT19        0.1811
    378  C4'        1.5760  -30.1480  -12.4210 C.3    19  DT19        0.1746
    379  O4'        1.3600  -28.7810  -11.9800 O.3    19  DT19       -0.3327
    380  C3'        2.0450  -30.8220  -11.1570 C.3    19  DT19        0.1558
    381  O3'        2.6930  -32.0270  -11.4710 O.3    19  DT19       -0.3138
    382  C2'        3.0070  -29.7800  -10.6260 C.3    19  DT19        0.0866
    383  C1'        2.1830  -28.5180  -10.8530 C.3    19  DT19        0.2106
    384  N1         1.3610  -28.2300   -9.7010 N.ar   19  DT19       -0.2559
    385  C2         1.9320  -27.6950   -8.5620 C.ar   19  DT19        0.3545
    386  O2         3.1150  -27.4190   -8.4790 O.2    19  DT19       -0.2443
    387  N3         1.0640  -27.4950   -7.5160 N.ar   19  DT19       -0.1533
    388  C4        -0.2880  -27.7700   -7.4960 C.ar   19  DT19        0.2804
    389  O4        -0.9380  -27.5350   -6.4800 O.2    19  DT19       -0.2654
    390  C5        -0.8050  -28.3240   -8.7150 C.ar   19  DT19        0.0534
    391  C6         0.0170  -28.5280   -9.7480 C.ar   19  DT19        0.0824
    392  C7        -2.2650  -28.6580   -8.7920 C.3    19  DT19        0.0377
    393  P          2.5960  -33.1480  -10.4430 P.3    20  DG20        0.2141
    394  OP1        3.0430  -34.3500  -11.1800 O.2    20  DG20       -0.5172
    395  OP2        1.1960  -33.0400   -9.9770 O.3    20  DG20       -0.4373
    396  O5'        3.4640  -32.9830   -9.1080 O.3    20  DG20       -0.3114
    397  C5'        4.8820  -32.9400   -9.1750 C.3    20  DG20        0.1811
    398  C4'        5.4880  -32.4720   -7.8760 C.3    20  DG20        0.1746
    399  O4'        5.0480  -31.1170   -7.6010 O.3    20  DG20       -0.3327
    400  C3'        5.0970  -33.2620   -6.6350 C.3    20  DG20        0.1558
    401  O3'        5.8740  -34.4370   -6.4640 O.3    20  DG20       -0.3138
    402  C2'        5.2740  -32.2330   -5.5220 C.3    20  DG20        0.0865
    403  C1'        4.8230  -30.9500   -6.2210 C.3    20  DG20        0.2094
    404  N9         3.3890  -30.6670   -6.0970 N.ar   20  DG20       -0.2713
    405  C8         2.4150  -30.8370   -7.0510 C.ar   20  DG20        0.1816
    406  N7         1.2240  -30.5030   -6.6360 N.ar   20  DG20       -0.2173
    407  C5         1.4190  -30.0860   -5.3320 C.ar   20  DG20        0.1748
    408  C6         0.4960  -29.6080   -4.3680 C.ar   20  DG20        0.3023
    409  O6        -0.7260  -29.4550   -4.4870 O.2    20  DG20       -0.2633
    410  N1         1.1170  -29.2940   -3.1620 N.ar   20  DG20       -0.1709
    411  C2         2.4630  -29.4240   -2.9170 C.ar   20  DG20        0.2606
    412  N2         2.8780  -29.0690   -1.6930 N.pl3  20  DG20       -0.0859
    413  N3         3.3330  -29.8670   -3.8030 N.ar   20  DG20       -0.1918
    414  C4         2.7520  -30.1790   -4.9800 C.ar   20  DG20        0.1722
    415  P          5.3190  -35.7620   -5.6570 P.3    21  DC21        0.2141
    416  OP1        6.2270  -36.8860   -5.3380 O.3    21  DC21       -0.4373
    417  OP2        3.9700  -36.0070   -6.2150 O.2    21  DC21       -0.5172
    418  O5'        5.0450  -34.9270   -4.3230 O.3    21  DC21       -0.3114
    419  C5'        6.1260  -34.5860   -3.4680 C.3    21  DC21        0.1811
    420  C4'        5.6280  -34.3730   -2.0650 C.3    21  DC21        0.1746
    421  O4'        4.9680  -33.0830   -1.9800 O.3    21  DC21       -0.3327
    422  C3'        4.5760  -35.3740   -1.6150 C.3    21  DC21        0.1558
    423  O3'        5.1310  -36.5860   -1.1310 O.3    21  DC21       -0.3138
    424  C2'        3.7980  -34.5910   -0.5700 C.3    21  DC21        0.0866
    425  C1'        3.8200  -33.1820   -1.1660 C.3    21  DC21        0.2106
    426  N1         2.5920  -32.9630   -2.1660 N.ar   21  DC21       -0.2556
    427  C2         1.3680  -32.6910   -1.5420 C.ar   21  DC21        0.3531
    428  O2         1.3400  -32.5760   -0.3050 O.2    21  DC21       -0.2443
    429  N3         0.2550  -32.5630   -2.3030 N.ar   21  DC21       -0.1739
    430  C4         0.3320  -32.6960   -3.6270 C.ar   21  DC21        0.1759
    431  N4        -0.7910  -32.5610   -4.3360 N.pl3  21  DC21       -0.1070
    432  C5         1.5620  -32.9720   -4.2780 C.ar   21  DC21        0.0566
    433  C6         2.6600  -33.0970   -3.5240 C.ar   21  DC21        0.0849
    434  P          4.5590  -37.8170   -1.6240 P.3    22  DG22        0.2141
    435  OP1        5.3940  -38.9610   -2.0660 O.3    22  DG22       -0.4373
    436  OP2        3.4210  -37.3750   -2.4710 O.2    22  DG22       -0.5172
    437  O5'        4.0080  -38.1240   -0.1640 O.3    22  DG22       -0.3114
    438  C5'        2.8630  -38.9440    0.0050 C.3    22  DG22        0.1811
    439  C4'        2.0520  -38.4870    1.1880 C.3    22  DG22        0.1746
    440  O4'        1.8800  -37.0440    1.1460 O.3    22  DG22       -0.3327
    441  C3'        0.6360  -39.0290    1.1920 C.3    22  DG22        0.1558
    442  O3'        0.5650  -40.3400    1.7270 O.3    22  DG22       -0.3138
    443  C2'       -0.0930  -37.9940    2.0290 C.3    22  DG22        0.0865
    444  C1'        0.5420  -36.7080    1.4980 C.3    22  DG22        0.2094
    445  N9        -0.2320  -36.3490    0.1540 N.ar   22  DG22       -0.2713
    446  C8         0.3490  -36.2190   -1.0840 C.ar   22  DG22        0.1816
    447  N7        -0.4380  -35.6700   -1.9680 N.ar   22  DG22       -0.2173
    448  C5        -1.6090  -35.4200   -1.2760 C.ar   22  DG22        0.1748
    449  C6        -2.8290  -34.8380   -1.7060 C.ar   22  DG22        0.3023
    450  O6        -3.1200  -34.4110   -2.8300 O.2    22  DG22       -0.2633
    451  N1        -3.7650  -34.7730   -0.6780 N.ar   22  DG22       -0.1709
    452  C2        -3.5530  -35.2150    0.6060 C.ar   22  DG22        0.2606
    453  N2        -4.5750  -35.0660    1.4590 N.pl3  22  DG22       -0.0859
    454  N3        -2.4250  -35.7590    1.0200 N.ar   22  DG22       -0.1918
    455  C4        -1.5020  -35.8330    0.0380 C.ar   22  DG22        0.1722
    456  P          0.1020  -41.2550    0.9920 P.3    23  DA23        0.2141
    457  OP1        0.2590  -42.2590    2.0740 O.3    23  DA23       -0.4373
    458  OP2        0.4070  -41.6440   -0.4100 O.2    23  DA23       -0.5172
    459  O5'       -1.3610  -40.6430    1.0390 O.3    23  DA23       -0.3114
    460  C5'       -1.9740  -40.3160    2.2800 C.3    23  DA23        0.1812
    461  C4'       -3.4070  -39.8850    2.0810 C.3    23  DA23        0.1775
    462  O4'       -3.4620  -38.5470    1.5340 O.3    23  DA23       -0.3326
    463  C3'       -4.2590  -40.7150    1.1370 C.3    23  DA23        0.1859
    464  O3'       -4.7040  -41.9080    1.7640 O.3    23  DA23       -0.2202
    465  C2'       -5.3680  -39.7390    0.7500 C.3    23  DA23        0.0894
    466  C1'       -4.6230  -38.4070    0.7240 C.3    23  DA23        0.2095
    467  N9        -4.1320  -38.0020   -0.6510 N.ar   23  DA23       -0.2714
    468  C8        -2.9700  -38.3150   -1.3070 C.ar   23  DA23        0.1815
    469  N7        -2.9100  -37.8460   -2.5310 N.ar   23  DA23       -0.2193
    470  C5        -4.1160  -37.1800   -2.6900 C.ar   23  DA23        0.1518
    471  C6        -4.6660  -36.4660   -3.7680 C.ar   23  DA23        0.1919
    472  N6        -4.0450  -36.2970   -4.9370 N.pl3  23  DA23       -0.1054
    473  N1        -5.8920  -35.9250   -3.6000 N.ar   23  DA23       -0.2040
    474  C2        -6.5130  -36.0940   -2.4270 C.ar   23  DA23        0.2016
    475  N3        -6.0980  -36.7430   -1.3420 N.ar   23  DA23       -0.2048
    476  C4        -4.8790  -37.2690   -1.5410 C.ar   23  DA23        0.1691
    477  P         -4.4810  -43.3110    1.0040 P.3    24  DT24        0.4149
    478  OP1       -4.0310  -43.5630    2.3990 O.2    24  DT24       -0.2668
    479  OP2       -4.6960  -44.4580    0.0860 O.3    24  DT24       -0.1481
    480  O5'       -5.8720  -42.5420    1.0640 O.3    24  DT24       -0.2177
    481  C5'       -7.0090  -43.1110    0.4350 C.3    24  DT24        0.2140
    482  C4'       -8.1530  -42.1310    0.3990 C.3    24  DT24        0.1776
    483  O4'       -7.6930  -40.8670   -0.1430 O.3    24  DT24       -0.3326
    484  C3'       -9.2400  -42.5470   -0.5710 C.3    24  DT24        0.1559
    485  O3'      -10.1070  -43.5050   -0.0130 O.3    24  DT24       -0.3138
    486  C2'       -9.9130  -41.2320   -0.9130 C.3    24  DT24        0.0866
    487  C1'       -8.7060  -40.3040   -0.9610 C.3    24  DT24        0.2106
    488  N1        -7.8510  -40.2490   -2.4150 N.ar   24  DT24       -0.2559
    489  C2        -8.4720  -39.5570   -3.4380 C.ar   24  DT24        0.3545
    490  O2        -9.5770  -39.0570   -3.3260 O.2    24  DT24       -0.2443
    491  N3        -7.7500  -39.4720   -4.6040 N.ar   24  DT24       -0.1533
    492  C4        -6.4970  -39.9970   -4.8440 C.ar   24  DT24        0.2804
    493  O4        -5.9750  -39.8380   -5.9450 O.2    24  DT24       -0.2654
    494  C5        -5.9190  -40.7010   -3.7340 C.ar   24  DT24        0.0534
    495  C6        -6.6000  -40.7990   -2.5890 C.ar   24  DT24        0.0824
    496  C7        -4.5570  -41.3090   -3.8960 C.3    24  DT24        0.0377
    497  P         -9.9220  -45.0100   -0.4780 P.3    25  DC25        0.2141
    498  OP1      -10.6650  -45.4800    0.7190 O.3    25  DC25       -0.4373
    499  OP2       -8.8580  -45.8570   -1.0670 O.2    25  DC25       -0.5172
    500  O5'      -10.9890  -44.7190   -1.6220 O.3    25  DC25       -0.3114
    501  C5'      -11.9830  -43.7140   -1.4680 C.3    25  DC25        0.1811
    502  C4'      -12.5390  -43.3280   -2.8140 C.3    25  DC25        0.1746
    503  O4'      -11.7120  -42.3250   -3.4640 O.3    25  DC25       -0.3327
    504  C3'      -12.6190  -44.4620   -3.8170 C.3    25  DC25        0.1558
    505  O3'      -13.7170  -45.3360   -3.5630 O.3    25  DC25       -0.3138
    506  C2'      -12.6610  -43.7230   -5.1500 C.3    25  DC25        0.0866
    507  C1'      -11.7810  -42.5050   -4.8670 C.3    25  DC25        0.2106
    508  N1       -10.4280  -42.6720   -5.4080 N.ar   25  DC25       -0.2556
    509  C2       -10.2340  -42.4480   -6.7760 C.ar   25  DC25        0.3531
    510  O2       -11.2080  -42.1120   -7.4710 O.2    25  DC25       -0.2443
    511  N3        -8.9960  -42.6050   -7.3010 N.ar   25  DC25       -0.1739
    512  C4        -7.9800  -42.9690   -6.5170 C.ar   25  DC25        0.1759
    513  N4        -6.7770  -43.1110   -7.0790 N.pl3  25  DC25       -0.1070
    514  C5        -8.1560  -43.2000   -5.1290 C.ar   25  DC25        0.0566
    515  C6        -9.3800  -43.0440   -4.6140 C.ar   25  DC25        0.0849
    516  P        -13.7300  -46.8720   -4.2080 P.3    26  DT26        0.2141
    517  OP1      -14.9080  -47.6740   -3.7830 O.3    26  DT26       -0.4373
    518  OP2      -12.3600  -47.3100   -3.8200 O.2    26  DT26       -0.5172
    519  O5'      -13.7790  -46.7310   -5.7970 O.3    26  DT26       -0.3114
    520  C5'      -14.9680  -46.2550   -6.4680 C.3    26  DT26        0.1811
    521  C4'      -14.7960  -46.3400   -7.9700 C.3    26  DT26        0.1746
    522  O4'      -13.7470  -45.4360   -8.4020 O.3    26  DT26       -0.3327
    523  C3'      -14.3760  -47.7030   -8.5000 C.3    26  DT26        0.1558
    524  O3'      -15.5060  -48.5500   -8.6810 O.3    26  DT26       -0.3138
    525  C2'      -13.6810  -47.3590   -9.8130 C.3    26  DT26        0.0866
    526  C1'      -13.0280  -46.0150   -9.4790 C.3    26  DT26        0.2106
    527  N1       -11.6510  -46.0610   -9.0760 N.ar   26  DT26       -0.2559
    528  C2       -10.6990  -46.0920  -10.0770 C.ar   26  DT26        0.3545
    529  O2       -10.9760  -46.0120  -11.2610 O.2    26  DT26       -0.2443
    530  N3        -9.4020  -46.2220   -9.6420 N.ar   26  DT26       -0.1533
    531  C4        -8.9710  -46.3210   -8.3360 C.ar   26  DT26        0.2804
    532  O4        -7.7700  -46.4330   -8.1010 O.2    26  DT26       -0.2654
    533  C5       -10.0190  -46.2820   -7.3550 C.ar   26  DT26        0.0534
    534  C6       -11.2890  -46.1560   -7.7500 C.ar   26  DT26        0.0824
    535  C7        -9.6520  -46.3840   -5.9040 C.3    26  DT26        0.0377
    536  P        -15.3160  -50.1140   -8.5730 P.3    27  DG27        0.2141
    537  OP1      -16.3810  -50.9770   -8.0030 O.2    27  DG27       -0.5172
    538  OP2      -14.0500  -49.9060   -7.8220 O.3    27  DG27       -0.4373
    539  O5'      -14.9610  -50.6630  -10.0220 O.3    27  DG27       -0.3114
    540  C5'      -14.0790  -51.7650  -10.2080 C.3    27  DG27        0.1811
    541  C4'      -13.4640  -51.6870  -11.5780 C.3    27  DG27        0.1746
    542  O4'      -14.5320  -51.4110  -12.5240 O.3    27  DG27       -0.3327
    543  C3'      -12.4590  -50.5560  -11.7410 C.3    27  DG27        0.1558
    544  O3'      -11.1460  -51.0760  -11.4960 O.3    27  DG27       -0.3138
    545  C2'      -12.6490  -50.1400  -13.1970 C.3    27  DG27        0.0865
    546  C1'      -14.1510  -50.3640  -13.3940 C.3    27  DG27        0.2094
    547  N9       -15.0380  -49.2580  -13.3560 N.ar   27  DG27       -0.2713
    548  C8       -15.9150  -48.8350  -12.3870 C.ar   27  DG27        0.1816
    549  N7       -16.3990  -47.6440  -12.6140 N.ar   27  DG27       -0.2173
    550  C5       -15.8100  -47.2560  -13.8030 C.ar   27  DG27        0.1748
    551  C6       -15.9450  -46.0580  -14.5530 C.ar   27  DG27        0.3023
    552  O6       -16.6430  -45.0690  -14.2970 O.2    27  DG27       -0.2633
    553  N1       -15.1640  -46.0740  -15.7050 N.ar   27  DG27       -0.1709
    554  C2       -14.3530  -47.1160  -16.0880 C.ar   27  DG27        0.2606
    555  N2       -13.6760  -46.9480  -17.2320 N.pl3  27  DG27       -0.0859
    556  N3       -14.2160  -48.2330  -15.4020 N.ar   27  DG27       -0.1918
    557  C4       -14.9650  -48.2400  -14.2790 C.ar   27  DG27        0.1722
    558  P        -10.0100  -50.1410  -11.2940 P.3    28  DG28        0.2141
    559  OP1       -8.8350  -50.9410  -10.8480 O.2    28  DG28       -0.5172
    560  OP2      -10.6820  -49.2370  -10.3290 O.3    28  DG28       -0.4373
    561  O5'       -9.6500  -49.2740  -12.5850 O.3    28  DG28       -0.3114
    562  C5'       -9.0790  -49.8800  -13.7650 C.3    28  DG28        0.1811
    563  C4'       -8.9270  -48.8490  -14.8670 C.3    28  DG28        0.1746
    564  O4'      -10.2310  -48.5170  -15.4160 O.3    28  DG28       -0.3327
    565  C3'       -8.3550  -47.5080  -14.4360 C.3    28  DG28        0.1558
    566  O3'       -6.9450  -47.4800  -14.2730 O.3    28  DG28       -0.3138
    567  C2'       -8.8980  -46.5570  -15.4960 C.3    28  DG28        0.0865
    568  C1'      -10.2980  -47.1270  -15.7090 C.3    28  DG28        0.2094
    569  N9       -11.2910  -46.5600  -14.7270 N.ar   28  DG28       -0.2713
    570  C8       -11.6070  -46.9670  -13.4530 C.ar   28  DG28        0.1816
    571  N7       -12.3480  -46.1080  -12.8070 N.ar   28  DG28       -0.2173
    572  C5       -12.5360  -45.0740  -13.7050 C.ar   28  DG28        0.1748
    573  C6       -13.2540  -43.8570  -13.5740 C.ar   28  DG28        0.3023
    574  O6       -13.8900  -43.4440  -12.5960 O.2    28  DG28       -0.2633
    575  N1       -13.1870  -43.0860  -14.7310 N.ar   28  DG28       -0.1709
    576  C2       -12.5120  -43.4430  -15.8740 C.ar   28  DG28        0.2606
    577  N2       -12.5640  -42.5690  -16.8880 N.pl3  28  DG28       -0.0859
    578  N3       -11.8410  -44.5700  -16.0100 N.ar   28  DG28       -0.1918
    579  C4       -11.8910  -45.3340  -14.8980 C.ar   28  DG28        0.1722
    580  P         -6.2290  -46.5340  -13.0040 P.3    29  DA29        0.2141
    581  OP1       -4.8060  -46.7920  -13.3090 O.2    29  DA29       -0.5172
    582  OP2       -6.6190  -46.1440  -11.5980 O.3    29  DA29       -0.4373
    583  O5'       -6.6980  -45.3420  -13.9660 O.3    29  DA29       -0.3114
    584  C5'       -5.7790  -44.6250  -14.8030 C.3    29  DA29        0.1811
    585  C4'       -6.4270  -43.3500  -15.2760 C.3    29  DA29        0.1746
    586  O4'       -7.8350  -43.6150  -15.1770 O.3    29  DA29       -0.3327
    587  C3'       -6.1870  -42.0980  -14.4370 C.3    29  DA29        0.1558
    588  O3'       -5.1100  -41.3600  -15.0410 O.3    29  DA29       -0.3138
    589  C2'       -7.5110  -41.3380  -14.5290 C.3    29  DA29        0.0865
    590  C1'       -8.5160  -42.4550  -14.7820 C.3    29  DA29        0.2094
    591  N9        -9.5170  -42.7470  -13.9230 N.ar   29  DA29       -0.2714
    592  C8        -9.4080  -43.5470  -12.8160 C.ar   29  DA29        0.1815
    593  N7       -10.3010  -43.2910  -11.8890 N.ar   29  DA29       -0.2193
    594  C5       -11.0460  -42.2520  -12.4240 C.ar   29  DA29        0.1518
    595  C6       -12.1450  -41.5260  -11.9330 C.ar   29  DA29        0.1919
    596  N6       -12.7070  -41.7500  -10.7430 N.pl3  29  DA29       -0.1054
    597  N1       -12.6530  -40.5510  -12.7170 N.ar   29  DA29       -0.2040
    598  C2       -12.0890  -40.3280  -13.9100 C.ar   29  DA29        0.2016
    599  N3       -11.0550  -40.9430  -14.4790 N.ar   29  DA29       -0.2048
    600  C4       -10.5740  -41.9050  -13.6750 C.ar   29  DA29        0.1691
    601  P         -4.9150  -39.7560  -14.7050 P.3    30  DT30        0.2141
    602  OP1       -3.9130  -39.2640  -15.6550 O.2    30  DT30       -0.5172
    603  OP2       -4.8340  -39.3970  -13.2370 O.3    30  DT30       -0.4373
    604  O5'       -6.3490  -39.2600  -15.2130 O.3    30  DT30       -0.3114
    605  C5'       -6.5320  -37.9300  -15.7030 C.3    30  DT30        0.1811
    606  C4'       -7.9970  -37.5940  -15.6840 C.3    30  DT30        0.1746
    607  O4'       -8.5420  -38.6100  -14.8270 O.3    30  DT30       -0.3327
    608  C3'       -8.5030  -36.3870  -14.9410 C.3    30  DT30        0.1558
    609  O3'       -8.4210  -35.1590  -15.7080 O.3    30  DT30       -0.3138
    610  C2'       -9.9420  -36.8190  -14.7070 C.3    30  DT30        0.0866
    611  C1'       -9.7270  -38.1960  -14.1760 C.3    30  DT30        0.2106
    612  N1        -9.5510  -38.4590  -12.8390 N.ar   30  DT30       -0.2559
    613  C2       -10.5140  -38.1120  -11.9100 C.ar   30  DT30        0.3545
    614  O2       -11.5250  -37.4980  -12.1990 O.2    30  DT30       -0.2443
    615  N3       -10.2480  -38.5120  -10.6220 N.ar   30  DT30       -0.1533
    616  C4        -9.1420  -39.2070  -10.1810 C.ar   30  DT30        0.2804
    617  O4        -9.0440  -39.4970   -8.9910 O.2    30  DT30       -0.2654
    618  C5        -8.1880  -39.5290  -11.2050 C.ar   30  DT30        0.0534
    619  C6        -8.4210  -39.1530  -12.4650 C.ar   30  DT30        0.0824
    620  C7        -6.9490  -40.2840  -10.8250 C.3    30  DT30        0.0377
    621  P         -8.0740  -33.8760  -14.6840 P.3    31  DA31        0.2141
    622  OP1       -7.9790  -32.8490  -15.7470 O.2    31  DA31       -0.5172
    623  OP2       -6.8320  -34.4460  -14.1180 O.3    31  DA31       -0.4373
    624  O5'       -8.9510  -33.2720  -13.4890 O.3    31  DA31       -0.3114
    625  C5'      -10.2670  -32.7910  -13.7490 C.3    31  DA31        0.1811
    626  C4'      -11.2570  -33.3000  -12.7180 C.3    31  DA31        0.1746
    627  O4'      -11.1200  -34.7330  -12.5150 O.3    31  DA31       -0.3327
    628  C3'      -11.0570  -32.7640  -11.3100 C.3    31  DA31        0.1558
    629  O3'      -11.4270  -31.3960  -11.1890 O.3    31  DA31       -0.3138
    630  C2'      -11.9110  -33.7520  -10.5160 C.3    31  DA31        0.0865
    631  C1'      -11.4190  -35.0480  -11.1600 C.3    31  DA31        0.2094
    632  N9       -10.1830  -35.5200  -10.4790 N.ar   31  DA31       -0.2714
    633  C8        -9.1500  -35.7980  -11.3360 C.ar   31  DA31        0.1815
    634  N7        -8.2110  -36.5460  -10.8070 N.ar   31  DA31       -0.2193
    635  C5        -8.6560  -36.7750   -9.5150 C.ar   31  DA31        0.1518
    636  C6        -8.1110  -37.5000   -8.4400 C.ar   31  DA31        0.1919
    637  N6        -6.9500  -38.1550   -8.5040 N.pl3  31  DA31       -0.1054
    638  N1        -8.8100  -37.5280   -7.2850 N.ar   31  DA31       -0.2040
    639  C2        -9.9740  -36.8710   -7.2220 C.ar   31  DA31        0.2016
    640  N3       -10.5880  -36.1570   -8.1630 N.ar   31  DA31       -0.2048
    641  C4        -9.8690  -36.1480   -9.2980 C.ar   31  DA31        0.1691
    642  P        -10.4050  -30.4660  -10.7240 P.3    32  DT32        0.2141
    643  OP1      -10.8570  -29.2800  -11.4900 O.2    32  DT32       -0.5172
    644  OP2       -8.9890  -30.8940  -10.7860 O.3    32  DT32       -0.4373
    645  O5'      -10.6970  -30.2840   -9.1620 O.3    32  DT32       -0.3114
    646  C5'      -12.0450  -30.3480   -8.7250 C.3    32  DT32        0.1811
    647  C4'      -12.1720  -30.9490   -7.3480 C.3    32  DT32        0.1746
    648  O4'      -11.9420  -32.3770   -7.3970 O.3    32  DT32       -0.3327
    649  C3'      -11.2080  -30.4460   -6.2830 C.3    32  DT32        0.1558
    650  O3'      -11.6280  -29.2180   -5.7220 O.3    32  DT32       -0.3138
    651  C2'      -11.2370  -31.5820   -5.2780 C.3    32  DT32        0.0866
    652  C1'      -11.3320  -32.7960   -6.1990 C.3    32  DT32        0.2106
    653  N1       -10.0180  -33.2570   -6.6060 N.ar   32  DT32       -0.2559
    654  C2        -9.3500  -34.0330   -5.6780 C.ar   32  DT32        0.3545
    655  O2        -9.8420  -34.3660   -4.6150 O.2    32  DT32       -0.2443
    656  N3        -8.0790  -34.4060   -6.0400 N.ar   32  DT32       -0.1533
    657  C4        -7.4220  -34.0880   -7.2110 C.ar   32  DT32        0.2804
    658  O4        -6.2790  -34.4990   -7.3940 O.2    32  DT32       -0.2654
    659  C5        -8.1810  -33.2790   -8.1220 C.ar   32  DT32        0.0534
    660  C6        -9.4200  -32.9020   -7.7960 C.ar   32  DT32        0.0824
    661  C7        -7.5530  -32.8790   -9.4240 C.3    32  DT32        0.0377
    662  P        -10.7920  -28.4150   -4.8060 P.3    33  DT33        0.2141
    663  OP1      -11.3590  -27.2420   -4.0940 O.3    33  DT33       -0.4373
    664  OP2       -9.5150  -28.2730   -5.5490 O.2    33  DT33       -0.5172
    665  O5'      -10.6490  -29.6080   -3.7650 O.3    33  DT33       -0.3114
    666  C5'      -11.7500  -29.9850   -2.9220 C.3    33  DT33        0.1811
    667  C4'      -11.2460  -30.7590   -1.7300 C.3    33  DT33        0.1746
    668  O4'      -10.6690  -32.0100   -2.1830 O.3    33  DT33       -0.3327
    669  C3'      -10.1240  -30.0780   -0.9610 C.3    33  DT33        0.1558
    670  O3'      -10.6440  -29.1700   -0.0030 O.3    33  DT33       -0.3138
    671  C2'       -9.4250  -31.2570   -0.3060 C.3    33  DT33        0.0866
    672  C1'       -9.5110  -32.3040   -1.4190 C.3    33  DT33        0.2106
    673  N1        -8.3030  -32.2690   -2.3080 N.ar   33  DT33       -0.2559
    674  C2        -7.1910  -32.9480   -1.8470 C.ar   33  DT33        0.3545
    675  O2        -7.1800  -33.5710   -0.8000 O.2    33  DT33       -0.2443
    676  N3        -6.0850  -32.8710   -2.6580 N.ar   33  DT33       -0.1533
    677  C4        -5.9810  -32.1980   -3.8580 C.ar   33  DT33        0.2804
    678  O4        -4.9190  -32.2210   -4.4750 O.2    33  DT33       -0.2654
    679  C5        -7.1770  -31.5170   -4.2680 C.ar   33  DT33        0.0534
    680  C6        -8.2670  -31.5750   -3.4980 C.ar   33  DT33        0.0824
    681  C7        -7.1650  -30.7550   -5.5600 C.3    33  DT33        0.0377
    682  P         -9.7890  -27.9060    0.4080 P.3    34  DA34        0.2141
    683  OP1      -10.3220  -26.7930    1.2120 O.3    34  DA34       -0.4373
    684  OP2       -9.2860  -27.6340   -0.9770 O.2    34  DA34       -0.5172
    685  O5'       -8.7240  -28.6650    1.3450 O.3    34  DA34       -0.3114
    686  C5'       -8.8010  -28.5470    2.7930 C.3    34  DA34        0.1811
    687  C4'       -7.5480  -29.0900    3.4700 C.3    34  DA34        0.1746
    688  O4'       -7.2040  -30.3440    2.8540 O.3    34  DA34       -0.3327
    689  C3'       -6.2670  -28.3070    3.2360 C.3    34  DA34        0.1558
    690  O3'       -6.1910  -27.1050    4.0650 O.3    34  DA34       -0.3138
    691  C2'       -5.2070  -29.3710    3.5510 C.3    34  DA34        0.0865
    692  C1'       -5.7920  -30.5270    2.7460 C.3    34  DA34        0.2094
    693  N9        -5.4870  -30.7200    1.2460 N.ar   34  DA34       -0.2714
    694  C8        -6.2470  -30.6520    0.1080 C.ar   34  DA34        0.1815
    695  N7        -5.5780  -30.9070   -0.9910 N.ar   34  DA34       -0.2193
    696  C5        -4.2900  -31.1590   -0.5440 C.ar   34  DA34        0.1518
    697  C6        -3.1030  -31.4930   -1.2190 C.ar   34  DA34        0.1919
    698  N6        -3.0210  -31.6370   -2.5440 N.pl3  34  DA34       -0.1054
    699  N1        -1.9900  -31.6760   -0.4770 N.ar   34  DA34       -0.2040
    700  C2        -2.0730  -31.5330    0.8510 C.ar   34  DA34        0.2016
    701  N3        -3.1300  -31.2220    1.5980 N.ar   34  DA34       -0.2048
    702  C4        -4.2190  -31.0460    0.8310 C.ar   34  DA34        0.1691
    703  P         -5.6480  -25.5920    3.5570 P.3    35  DT35        0.2141
    704  OP1       -6.1820  -24.6400    4.5580 O.3    35  DT35       -0.4373
    705  OP2       -5.9520  -25.3890    2.1220 O.2    35  DT35       -0.5172
    706  O5'       -4.0460  -25.6720    3.6040 O.3    35  DT35       -0.3114
    707  C5'       -3.3690  -26.2750    4.7010 C.3    35  DT35        0.1811
    708  C4'       -2.2990  -27.2610    4.2820 C.3    35  DT35        0.1746
    709  O4'       -2.8630  -28.2990    3.4380 O.3    35  DT35       -0.3327
    710  C3'       -1.1440  -26.7290    3.4470 C.3    35  DT35        0.1558
    711  O3'       -0.1790  -26.0130    4.1950 O.3    35  DT35       -0.3138
    712  C2'       -0.5980  -27.9990    2.8050 C.3    35  DT35        0.0866
    713  C1'       -1.9020  -28.7290    2.4940 C.3    35  DT35        0.2106
    714  N1        -2.3550  -28.3450    1.1380 N.ar   35  DT35       -0.2559
    715  C2        -1.6280  -28.7470    0.0340 C.ar   35  DT35        0.3545
    716  O2        -0.5590  -29.3260    0.1180 O.2    35  DT35       -0.2443
    717  N3        -2.1980  -28.4450   -1.1790 N.ar   35  DT35       -0.1533
    718  C4        -3.3960  -27.7960   -1.3940 C.ar   35  DT35        0.2804
    719  O4        -3.7780  -27.5970   -2.5450 O.2    35  DT35       -0.2654
    720  C5        -4.0910  -27.4100   -0.1990 C.ar   35  DT35        0.0534
    721  C6        -3.5590  -27.6910    0.9940 C.ar   35  DT35        0.0824
    722  C7        -5.4040  -26.6970   -0.3280 C.3    35  DT35        0.0377
    723  P          0.3760  -24.7350    3.5460 P.3    36  DT36        0.2141
    724  OP1        1.0170  -24.3410    4.8220 O.3    36  DT36       -0.4373
    725  OP2       -0.7520  -23.9480    3.0000 O.2    36  DT36       -0.5172
    726  O5'        1.4590  -24.7450    2.3700 O.3    36  DT36       -0.3114
    727  C5'        2.5770  -25.6040    2.5150 C.3    36  DT36        0.1811
    728  C4'        3.1160  -26.0610    1.1850 C.3    36  DT36        0.1746
    729  O4'        2.0600  -26.6710    0.4040 O.3    36  DT36       -0.3327
    730  C3'        3.6630  -24.9750    0.2730 C.3    36  DT36        0.1558
    731  O3'        4.9730  -24.5770    0.6310 O.3    36  DT36       -0.3138
    732  C2'        3.5940  -25.6300   -1.0990 C.3    36  DT36        0.0866
    733  C1'        2.3540  -26.5150   -0.9690 C.3    36  DT36        0.2106
    734  N1         1.1610  -25.9880   -1.7250 N.ar   36  DT36       -0.2559
    735  C2         1.0900  -26.2000   -3.0890 C.ar   36  DT36        0.3545
    736  O2         1.9280  -26.8310   -3.7070 O.2    36  DT36       -0.2443
    737  N3        -0.0030  -25.6430   -3.7070 N.ar   36  DT36       -0.1533
    738  C4        -1.0100  -24.9110   -3.1120 C.ar   36  DT36        0.2804
    739  O4        -1.9300  -24.4760   -3.8010 O.2    36  DT36       -0.2654
    740  C5        -0.8640  -24.7340   -1.6950 C.ar   36  DT36        0.0534
    741  C6         0.1890  -25.2650   -1.0680 C.ar   36  DT36        0.0824
    742  C7        -1.9090  -23.9510   -0.9560 C.3    36  DT36        0.0377
    743  P          5.8690  -23.3670   -0.6360 P.3    37  DT37        0.2141
    744  OP1        7.2010  -23.0340   -0.0600 O.3    37  DT37       -0.4373
    745  OP2        4.6670  -22.6330   -0.1650 O.2    37  DT37       -0.5172
    746  O5'        5.9620  -23.2500   -2.2270 O.3    37  DT37       -0.3114
    747  C5'        7.1540  -23.6730   -2.9270 C.3    37  DT37        0.1811
    748  C4'        6.8500  -24.0360   -4.3690 C.3    37  DT37        0.1746
    749  O4'        5.7170  -24.9440   -4.4200 O.3    37  DT37       -0.3327
    750  C3'        6.5000  -22.9140   -5.3360 C.3    37  DT37        0.1558
    751  O3'        7.6830  -22.3420   -5.8790 O.3    37  DT37       -0.3138
    752  C2'        5.7270  -23.6490   -6.4210 C.3    37  DT37        0.0866
    753  C1'        4.9980  -24.7360   -5.6250 C.3    37  DT37        0.2106
    754  N1         3.6270  -24.2850   -5.3420 N.ar   37  DT37       -0.2559
    755  C2         2.6870  -24.4710   -6.3370 C.ar   37  DT37        0.3545
    756  O2         2.9460  -24.9940   -7.4060 O.2    37  DT37       -0.2443
    757  N3         1.4250  -24.0180   -6.0370 N.ar   37  DT37       -0.1533
    758  C4         1.0180  -23.4120   -4.8660 C.ar   37  DT37        0.2804
    759  O4        -0.1530  -23.0600   -4.7430 O.2    37  DT37       -0.2654
    760  C5         2.0510  -23.2540   -3.8820 C.ar   37  DT37        0.0534
    761  C6         3.2870  -23.6850   -4.1480 C.ar   37  DT37        0.0824
    762  C7         1.7070  -22.6050   -2.5740 C.3    37  DT37        0.0377
    763  P          7.6110  -21.1020   -6.6960 P.3    38  DT38        0.2141
    764  OP1        8.8080  -20.2330   -6.5550 O.3    38  DT38       -0.4373
    765  OP2        6.2610  -20.5010   -6.6180 O.2    38  DT38       -0.5172
    766  O5'        7.6750  -21.9160   -8.0560 O.3    38  DT38       -0.3114
    767  C5'        7.5350  -21.2250   -9.2580 C.3    38  DT38        0.1811
    768  C4'        6.5550  -21.9090  -10.1640 C.3    38  DT38        0.1746
    769  O4'        5.4840  -22.6180   -9.4700 O.3    38  DT38       -0.3327
    770  C3'        5.8060  -20.8880  -10.9800 C.3    38  DT38        0.1558
    771  O3'        6.6260  -20.2460  -11.9230 O.3    38  DT38       -0.3138
    772  C2'        4.6070  -21.6770  -11.4790 C.3    38  DT38        0.0866
    773  C1'        4.2820  -22.5300  -10.2470 C.3    38  DT38        0.2106
    774  N1         3.2800  -21.8940   -9.3510 N.ar   38  DT38       -0.2559
    775  C2         1.9290  -21.8840   -9.6430 C.ar   38  DT38        0.3545
    776  O2         1.4790  -22.2510  -10.7140 O.2    38  DT38       -0.2443
    777  N3         1.1190  -21.4260   -8.6320 N.ar   38  DT38       -0.1533
    778  C4         1.5150  -20.9860   -7.3860 C.ar   38  DT38        0.2804
    779  O4         0.6690  -20.6040   -6.5820 O.2    38  DT38       -0.2654
    780  C5         2.9330  -21.0260   -7.1600 C.ar   38  DT38        0.0534
    781  C6         3.7430  -21.4670   -8.1250 C.ar   38  DT38        0.0824
    782  C7         3.4640  -20.5670   -5.8340 C.3    38  DT38        0.0377
    783  P          6.4740  -18.7540  -12.0000 P.3    39  DT39        0.2141
    784  OP1        7.6570  -18.1330  -12.6400 O.2    39  DT39       -0.5172
    785  OP2        6.0980  -18.4000  -10.6110 O.3    39  DT39       -0.4373
    786  O5'        5.1680  -18.4390  -12.8720 O.3    39  DT39       -0.3114
    787  C5'        5.1080  -18.9740  -14.1870 C.3    39  DT39        0.1811
    788  C4'        3.7220  -18.9410  -14.7870 C.3    39  DT39        0.1746
    789  O4'        2.8710  -19.9580  -14.1910 O.3    39  DT39       -0.3327
    790  C3'        2.9110  -17.6720  -14.5880 C.3    39  DT39        0.1558
    791  O3'        3.3410  -16.5660  -15.3610 O.3    39  DT39       -0.3138
    792  C2'        1.5220  -18.1740  -14.9470 C.3    39  DT39        0.0866
    793  C1'        1.5310  -19.5000  -14.1930 C.3    39  DT39        0.2106
    794  N1         1.0810  -19.2090  -12.7740 N.ar   39  DT39       -0.2559
    795  C2        -0.2770  -19.1350  -12.5300 C.ar   39  DT39        0.3545
    796  O2        -1.1170  -19.2640  -13.4040 O.2    39  DT39       -0.2443
    797  N3        -0.6210  -18.9020  -11.2210 N.ar   39  DT39       -0.1533
    798  C4         0.2390  -18.7400  -10.1540 C.ar   39  DT39        0.2804
    799  O4        -0.2210  -18.5370   -9.0330 O.2    39  DT39       -0.2654
    800  C5         1.6320  -18.8290  -10.4880 C.ar   39  DT39        0.0534
    801  C6         1.9940  -19.0550  -11.7540 C.ar   39  DT39        0.0824
    802  C7         2.6470  -18.6650   -9.3960 C.3    39  DT39        0.0377
    803  P          3.3470  -15.1630  -14.6600 P.3    40  DG40        0.2141
    804  OP1        4.0230  -14.4060  -15.7410 O.2    40  DG40       -0.5172
    805  OP2        3.7750  -14.9700  -13.2540 O.3    40  DG40       -0.4373
    806  O5'        1.7810  -14.8700  -14.7260 O.3    40  DG40       -0.3114
    807  C5'        1.0760  -14.9690  -15.9710 C.3    40  DG40        0.1811
    808  C4'       -0.4190  -14.8990  -15.7560 C.3    40  DG40        0.1746
    809  O4'       -0.8300  -15.9490  -14.8370 O.3    40  DG40       -0.3327
    810  C3'       -1.0040  -13.6480  -15.1150 C.3    40  DG40        0.1558
    811  O3'       -1.1340  -12.5490  -16.0160 O.3    40  DG40       -0.3138
    812  C2'       -2.3760  -14.1580  -14.7010 C.3    40  DG40        0.0865
    813  C1'       -2.0250  -15.5510  -14.1760 C.3    40  DG40        0.2094
    814  N9        -1.7090  -15.4880  -12.8460 N.ar   40  DG40       -0.2713
    815  C8        -0.4400  -15.5770  -12.3280 C.ar   40  DG40        0.1816
    816  N7        -0.4030  -15.4520  -11.0300 N.ar   40  DG40       -0.2173
    817  C5        -1.7240  -15.2730  -10.6650 C.ar   40  DG40        0.1748
    818  C6        -2.3120  -15.0810   -9.3880 C.ar   40  DG40        0.3023
    819  O6        -1.7500  -15.0310   -8.2860 O.2    40  DG40       -0.2633
    820  N1        -3.6940  -14.9380   -9.4670 N.ar   40  DG40       -0.1709
    821  C2        -4.4210  -14.9750  -10.6320 C.ar   40  DG40        0.2606
    822  N2        -5.7460  -14.8200  -10.5070 N.pl3  40  DG40       -0.0859
    823  N3        -3.8900  -15.1520  -11.8260 N.ar   40  DG40       -0.1918
    824  C4        -2.5480  -15.2920  -11.7740 C.ar   40  DG40        0.1722
    825  P         -1.1460  -11.0990  -15.4330 P.3    41  DA41        0.2141
    826  OP1       -0.6260  -10.5960  -16.7250 O.2    41  DA41       -0.5172
    827  OP2       -0.4750  -10.7080  -14.1720 O.3    41  DA41       -0.4373
    828  O5'       -2.6860  -10.7390  -15.3350 O.3    41  DA41       -0.3114
    829  C5'       -3.6400  -11.4950  -16.0600 C.3    41  DA41        0.1811
    830  C4'       -4.9230  -11.5640  -15.2830 C.3    41  DA41        0.1746
    831  O4'       -4.8070  -12.5300  -14.2080 O.3    41  DA41       -0.3327
    832  C3'       -5.3130  -10.2740  -14.5760 C.3    41  DA41        0.1558
    833  O3'       -5.9420   -9.3340  -15.4320 O.3    41  DA41       -0.3138
    834  C2'       -6.2360  -10.7720  -13.4780 C.3    41  DA41        0.0865
    835  C1'       -5.5570  -12.0840  -13.0900 C.3    41  DA41        0.2094
    836  N9        -4.6920  -11.8470  -11.9760 N.ar   41  DA41       -0.2714
    837  C8        -3.3670  -11.4970  -12.0060 C.ar   41  DA41        0.1815
    838  N7        -2.8450  -11.3010  -10.8180 N.ar   41  DA41       -0.2193
    839  C5        -3.8980  -11.5370   -9.9490 C.ar   41  DA41        0.1518
    840  C6        -3.9960  -11.4940   -8.5470 C.ar   41  DA41        0.1919
    841  N6        -2.9750  -11.1870   -7.7440 N.pl3  41  DA41       -0.1054
    842  N1        -5.1930  -11.7830   -7.9940 N.ar   41  DA41       -0.2040
    843  C2        -6.2150  -12.0920   -8.7990 C.ar   41  DA41        0.2016
    844  N3        -6.2460  -12.1650  -10.1280 N.ar   41  DA41       -0.2048
    845  C4        -5.0430  -11.8730  -10.6480 C.ar   41  DA41        0.1691
    846  P         -5.5610   -7.6070  -15.2610 P.3    42  DT42        0.2141
    847  OP1       -6.1380   -7.0480  -16.5090 O.2    42  DT42       -0.5172
    848  OP2       -4.2450   -7.1220  -14.7770 O.3    42  DT42       -0.4373
    849  O5'       -6.6090   -7.4120  -14.0810 O.3    42  DT42       -0.3114
    850  C5'       -7.9750   -7.8390  -14.2360 C.3    42  DT42        0.1811
    851  C4'       -8.6500   -7.9290  -12.8920 C.3    42  DT42        0.1746
    852  O4'       -8.0530   -8.9900  -12.1020 O.3    42  DT42       -0.3346
    853  C3'       -8.5190   -6.7060  -12.0040 C.3    42  DT42        0.1607
    854  O3'       -9.4510   -5.7070  -12.3820 O.3    42  DT42       -0.3137
    855  C2'       -8.8240   -7.2920  -10.6360 C.3    42  DT42        0.1364
    856  C1'       -8.1150   -8.6450  -10.7300 C.3    42  DT42        0.2038
    857  N1        -6.7490   -8.6420  -10.1550 N.pl3  42  DT42       -0.2348
    858  C2        -6.6130   -8.6620   -8.7800 C.3    42  DT42        0.3281
    859  O2        -7.5640   -8.6520   -8.0180 O.3    42  DT42       -0.2810
    860  N3        -5.3170   -8.6920   -8.3240 N.am   42  DT42       -0.0269
    861  C4        -4.1700   -8.7050   -9.0890 C.2    42  DT42        0.2885
    862  O4        -3.0740   -8.7340   -8.5350 O.2    42  DT42       -0.2666
    863  C5        -4.3940   -8.6820  -10.5070 C.2    42  DT42        0.0498
    864  C6        -5.6440   -8.6520  -10.9770 C.2    42  DT42        0.0677
    865  C7        -3.2070   -8.6930  -11.4250 C.3    42  DT42        0.0373
    866  P         -9.2850   -4.1430  -11.9380 P.3    43  DA43        0.2141
    867  OP1      -10.4070   -3.5010  -12.6590 O.2    43  DA43       -0.5172
    868  OP2       -8.0810   -3.3460  -11.6200 O.3    43  DA43       -0.4373
    869  O5'       -9.8200   -4.5970  -10.5040 O.3    43  DA43       -0.3114
    870  C5'      -10.8790   -3.8110   -9.9750 C.3    43  DA43        0.1811
    871  C4'      -11.5520   -4.4470   -8.7870 C.3    43  DA43        0.1767
    872  O4'      -11.2920   -5.8770   -8.8250 O.3    43  DA43       -0.3157
    873  C3'      -11.0510   -3.9480   -7.4360 C.3    43  DA43        0.1581
    874  O3'      -11.9940   -3.1300   -6.7540 O.3    43  DA43       -0.3138
    875  C2'      -10.7710   -5.1960   -6.6050 C.3    43  DA43        0.1122
    876  C1'      -10.8480   -6.3660   -7.5720 C.3    43  DA43        0.2865
    877  N9        -9.5110   -6.7830   -7.7550 N.pl3  43  DA43       -0.1587
    878  C8        -8.7130   -6.5600   -8.8470 C.3    43  DA43        0.2386
    879  N7        -7.4760   -6.9680   -8.6900 N.3    43  DA43       -0.1419
    880  C5        -7.4600   -7.4930   -7.4070 C.3    43  DA43        0.3531
    881  C6        -6.4410   -8.0870   -6.6410 C.2    43  DA43        0.4286
    882  N6        -5.1920   -8.2590   -7.0790 N.2    43  DA43        0.0623
    883  N1        -6.7560   -8.5040   -5.3960 N.2    43  DA43        0.0214
    884  C2        -8.0090   -8.3320   -4.9590 C.2    43  DA43        0.4720
    885  N3        -9.0510   -7.7890   -5.5850 N.2    43  DA43        0.0135
    886  C4        -8.7050   -7.3850   -6.8190 C.2    43  DA43        0.3590
    887  P        -11.2560   -1.9520   -5.9920 P.3    44  DC44        0.2141
    888  OP1      -12.1270   -0.7580   -5.8910 O.3    44  DC44       -0.4373
    889  OP2       -9.9630   -1.8900   -6.7060 O.2    44  DC44       -0.5172
    890  O5'      -10.8740   -2.4600   -4.5220 O.3    44  DC44       -0.3114
    891  C5'      -11.9110   -2.8130   -3.6200 C.3    44  DC44        0.1811
    892  C4'      -11.4420   -3.7500   -2.5320 C.3    44  DC44        0.1746
    893  O4'      -10.9030   -4.9650   -3.1140 O.3    44  DC44       -0.3327
    894  C3'      -10.3360   -3.2290   -1.6240 C.3    44  DC44        0.1558
    895  O3'      -10.8300   -2.4110   -0.5730 O.3    44  DC44       -0.3138
    896  C2'       -9.6430   -4.5010   -1.1410 C.3    44  DC44        0.0866
    897  C1'       -9.8420   -5.4460   -2.3220 C.3    44  DC44        0.2106
    898  N1        -8.7230   -5.6090   -3.1190 N.ar   44  DC44       -0.2556
    899  C2        -7.7550   -6.5510   -2.7500 C.ar   44  DC44        0.3531
    900  O2        -8.0000   -7.3220   -1.8070 O.2    44  DC44       -0.2443
    901  N3        -6.5840   -6.5930   -3.4300 N.ar   44  DC44       -0.1739
    902  C4        -6.3640   -5.7440   -4.4340 C.ar   44  DC44        0.1759
    903  N4        -5.1950   -5.8230   -5.0750 N.pl3  44  DC44       -0.1070
    904  C5        -7.3320   -4.7830   -4.8230 C.ar   44  DC44        0.0566
    905  C6        -8.4870   -4.7440   -4.1500 C.ar   44  DC44        0.0849
    906  P         -9.8150   -1.5890    0.4350 P.3    45  DC45        0.2141
    907  OP1      -10.2120   -0.4060    1.2380 O.3    45  DC45       -0.4373
    908  OP2       -8.9860   -1.3880   -0.7750 O.2    45  DC45       -0.5172
    909  O5'       -8.9870   -2.6740    1.2800 O.3    45  DC45       -0.3114
    910  C5'       -9.6100   -3.5070    2.2460 C.3    45  DC45        0.1811
    911  C4'       -8.6830   -4.5910    2.7520 C.3    45  DC45        0.1746
    912  O4'       -8.3000   -5.4620    1.6570 O.3    45  DC45       -0.3327
    913  C3'       -7.3480   -4.1500    3.3420 C.3    45  DC45        0.1558
    914  O3'       -7.4180   -3.7150    4.6860 O.3    45  DC45       -0.3138
    915  C2'       -6.4790   -5.3920    3.1950 C.3    45  DC45        0.0866
    916  C1'       -6.9960   -5.9610    1.8750 C.3    45  DC45        0.2106
    917  N1        -6.1750   -5.5320    0.7410 N.ar   45  DC45       -0.2556
    918  C2        -5.0300   -6.2730    0.4290 C.ar   45  DC45        0.3531
    919  O2        -4.8110   -7.3260    1.0520 O.2    45  DC45       -0.2443
    920  N3        -4.1960   -5.8230   -0.5390 N.ar   45  DC45       -0.1739
    921  C4        -4.4710   -4.6860   -1.1800 C.ar   45  DC45        0.1759
    922  N4        -3.6200   -4.2820   -2.1260 N.pl3  45  DC45       -0.1070
    923  C5        -5.6260   -3.9200   -0.8790 C.ar   45  DC45        0.0566
    924  C6        -6.4470   -4.3690    0.0770 C.ar   45  DC45        0.0849
    925  P         -6.3360   -2.7340    5.1490 P.3    46  DC46        0.2141
    926  OP1       -6.6290   -2.3060    6.5380 O.3    46  DC46       -0.4373
    927  OP2       -6.3610   -1.7470    4.0430 O.2    46  DC46       -0.5172
    928  O5'       -4.9590   -3.5280    5.0950 O.3    46  DC46       -0.3114
    929  C5'       -4.5510   -4.1100    6.2780 C.3    46  DC46        0.1811
    930  C4'       -3.2160   -4.7810    6.1020 C.3    46  DC46        0.1746
    931  O4'       -3.1600   -5.3500    4.7830 O.3    46  DC46       -0.3327
    932  C3'       -2.0270   -3.8630    6.1470 C.3    46  DC46        0.1558
    933  O3'       -1.7420   -3.6110    7.4860 O.3    46  DC46       -0.3138
    934  C2'       -0.9780   -4.7010    5.4320 C.3    46  DC46        0.0866
    935  C1'       -1.8120   -5.4270    4.4030 C.3    46  DC46        0.2106
    936  N1        -1.7690   -4.7900    3.1250 N.ar   46  DC46       -0.2556
    937  C2        -0.6380   -4.7680    2.3010 C.ar   46  DC46        0.3531
    938  O2         0.3960   -5.3370    2.6900 O.2    46  DC46       -0.2443
    939  N3        -0.7030   -4.1290    1.1090 N.ar   46  DC46       -0.1739
    940  C4        -1.8340   -3.5310    0.7330 C.ar   46  DC46        0.1759
    941  N4        -1.8510   -2.9140   -0.4510 N.pl3  46  DC46       -0.1070
    942  C5        -2.9910   -3.5420    1.5530 C.ar   46  DC46        0.0566
    943  C6        -2.9230   -4.1740    2.7300 C.ar   46  DC46        0.0849
    944  P         -1.4410   -2.2210    7.9660 P.3    47  DC47        0.2141
    945  OP1       -1.7160   -1.9780    9.4040 O.3    47  DC47       -0.4373
    946  OP2       -1.6510   -1.1320    6.9800 O.2    47  DC47       -0.5172
    947  O5'        0.0590   -2.7390    7.8300 O.3    47  DC47       -0.3114
    948  C5'        0.6040   -3.6830    8.7500 C.3    47  DC47        0.1811
    949  C4'        1.8650   -4.2910    8.1780 C.3    47  DC47        0.1746
    950  O4'        1.5410   -4.8530    6.8780 O.3    47  DC47       -0.3327
    951  C3'        3.0060   -3.3180    7.9020 C.3    47  DC47        0.1558
    952  O3'        3.8390   -3.1600    9.0500 O.3    47  DC47       -0.3138
    953  C2'        3.7550   -4.0050    6.7660 C.3    47  DC47        0.0866
    954  C1'        2.6000   -4.6160    5.9690 C.3    47  DC47        0.2106
    955  N1         2.0330   -3.8520    4.9090 N.ar   47  DC47       -0.2556
    956  C2         2.8000   -3.6930    3.7490 C.ar   47  DC47        0.3531
    957  O2         3.8660   -4.3240    3.6460 O.2    47  DC47       -0.2443
    958  N3         2.3620   -2.8570    2.7770 N.ar   47  DC47       -0.1739
    959  C4         1.2120   -2.1990    2.9320 C.ar   47  DC47        0.1759
    960  N4         0.8200   -1.3870    1.9480 N.pl3  47  DC47       -0.1070
    961  C5         0.4200   -2.3470    4.1000 C.ar   47  DC47        0.0566
    962  C6         0.8570   -3.1730    5.0570 C.ar   47  DC47        0.0849
    963  P          4.9030   -1.8800    9.1620 P.3    48  DT48        0.2141
    964  OP1        5.4810   -2.1040   10.5150 O.3    48  DT48       -0.4373
    965  OP2        4.1560   -0.6290    8.8890 O.2    48  DT48       -0.5172
    966  O5'        6.0460   -2.0300    8.0560 O.3    48  DT48       -0.3114
    967  C5'        6.9150   -3.1700    8.0790 C.3    48  DT48        0.1811
    968  C4'        7.7670   -3.2290    6.8380 C.3    48  DT48        0.1746
    969  O4'        6.9230   -3.4390    5.6750 O.3    48  DT48       -0.3327
    970  C3'        8.5570   -1.9750    6.5090 C.3    48  DT48        0.1558
    971  O3'        9.7730   -1.8920    7.2520 O.3    48  DT48       -0.3138
    972  C2'        8.7810   -2.1140    5.0090 C.3    48  DT48        0.0866
    973  C1'        7.4630   -2.7510    4.5590 C.3    48  DT48        0.2106
    974  N1         6.4380   -1.8190    4.0940 N.ar   48  DT48       -0.2559
    975  C2         6.6000   -1.3000    2.8230 C.ar   48  DT48        0.3545
    976  O2         7.5090   -1.6310    2.0820 O.2    48  DT48       -0.2443
    977  N3         5.6570   -0.3740    2.4490 N.ar   48  DT48       -0.1533
    978  C4         4.5920    0.0760    3.2010 C.ar   48  DT48        0.2804
    979  O4         3.8270    0.9130    2.7270 O.2    48  DT48       -0.2654
    980  C5         4.4920   -0.5090    4.5090 C.ar   48  DT48        0.0534
    981  C6         5.3960   -1.4120    4.8980 C.ar   48  DT48        0.0824
    982  C7         3.3660   -0.0840    5.4050 C.3    48  DT48        0.0377
    983  P         10.6670   -0.1850    7.4620 P.3    49  DT49        0.2141
    984  OP1       11.9520   -0.5320    8.1160 O.3    49  DT49       -0.4373
    985  OP2        9.7970    0.8650    8.0560 O.2    49  DT49       -0.5172
    986  O5'       10.9380    0.2270    5.9410 O.3    49  DT49       -0.3114
    987  C5'       11.8960   -0.4900    5.1300 C.3    49  DT49        0.1811
    988  C4'       11.9380    0.0590    3.7100 C.3    49  DT49        0.1746
    989  O4'       10.6200   -0.0300    3.1030 O.3    49  DT49       -0.3327
    990  C3'       12.3580    1.5080    3.4850 C.3    49  DT49        0.1558
    991  O3'       13.7730    1.6600    3.4320 O.3    49  DT49       -0.3138
    992  C2'       11.7650    1.8140    2.1150 C.3    49  DT49        0.0866
    993  C1'       10.4810    0.9840    2.1230 C.3    49  DT49        0.2106
    994  N1         9.3040    1.7200    2.3870 N.ar   49  DT49       -0.2559
    995  C2         8.7390    2.3880    1.3170 C.ar   49  DT49        0.3545
    996  O2         9.1850    2.3260    0.1850 O.2    49  DT49       -0.2443
    997  N3         7.6280    3.1370    1.6210 N.ar   49  DT49       -0.1533
    998  C4         7.0390    3.2810    2.8600 C.ar   49  DT49        0.2804
    999  O4         6.0410    3.9890    2.9760 O.2    49  DT49       -0.2654
   1000  C5         7.6840    2.5580    3.9190 C.ar   49  DT49        0.0534
   1001  C6         8.7660    1.8220    3.6510 C.ar   49  DT49        0.0824
   1002  C7         7.1180    2.6520    5.3050 C.3    49  DT49        0.0377
   1003  P         14.5560    3.2910    3.2870 P.3    50  DT50        0.2141
   1004  OP1       16.0090    3.1930    3.5440 O.2    50  DT50       -0.5172
   1005  OP2       13.6490    3.6290    4.4070 O.3    50  DT50       -0.4373
   1006  O5'       14.2910    4.3490    2.1170 O.3    50  DT50       -0.3114
   1007  C5'       15.1390    4.3700    0.9780 C.3    50  DT50        0.1811
   1008  C4'       14.5360    5.1810   -0.1550 C.3    50  DT50        0.1746
   1009  O4'       13.1960    4.7160   -0.4540 O.3    50  DT50       -0.3327
   1010  C3'       14.3670    6.6660    0.1160 C.3    50  DT50        0.1558
   1011  O3'       15.5810    7.3520   -0.1200 O.3    50  DT50       -0.3138
   1012  C2'       13.3140    7.0270   -0.9210 C.3    50  DT50        0.0866
   1013  C1'       12.3950    5.8090   -0.8620 C.3    50  DT50        0.2106
   1014  N1        11.2760    5.9660    0.0500 N.ar   50  DT50       -0.2559
   1015  C2        10.1420    6.6100   -0.4090 C.ar   50  DT50        0.3545
   1016  O2        10.0510    7.0750   -1.5310 O.2    50  DT50       -0.2443
   1017  N3         9.1130    6.6920    0.4980 N.ar   50  DT50       -0.1533
   1018  C4         9.1040    6.2050    1.7880 C.ar   50  DT50        0.2804
   1019  O4         8.1030    6.3550    2.4840 O.2    50  DT50       -0.2654
   1020  C5        10.3170    5.5510    2.1910 C.ar   50  DT50        0.0534
   1021  C6        11.3340    5.4570    1.3290 C.ar   50  DT50        0.0824
   1022  C7        10.4060    4.9880    3.5780 C.3    50  DT50        0.0377
   1023  P         15.9700    8.5840    0.7510 P.3    51  DG51        0.2141
   1024  OP1       17.3020    9.1930    0.5310 O.2    51  DG51       -0.5172
   1025  OP2       15.4860    8.3810    2.1340 O.3    51  DG51       -0.4373
   1026  O5'       14.8410    9.4770    0.0600 O.3    51  DG51       -0.3114
   1027  C5'       14.9640    9.8430   -1.3060 C.3    51  DG51        0.1811
   1028  C4'       14.0830   11.0280   -1.6050 C.3    51  DG51        0.1746
   1029  O4'       12.7250   10.5750   -1.8130 O.3    51  DG51       -0.3327
   1030  C3'       13.9970   12.0640   -0.4930 C.3    51  DG51        0.1558
   1031  O3'       15.0630   12.9930   -0.5820 O.3    51  DG51       -0.3138
   1032  C2'       12.6140   12.6740   -0.6970 C.3    51  DG51        0.0865
   1033  C1'       11.8180   11.4740   -1.2230 C.3    51  DG51        0.2094
   1034  N9        11.0580   10.6930   -0.0330 N.ar   51  DG51       -0.2713
   1035  C8        11.5400    9.9050    0.9840 C.ar   51  DG51        0.1816
   1036  N7        10.6410    9.6220    1.8870 N.ar   51  DG51       -0.2173
   1037  C5         9.4960   10.2570    1.4420 C.ar   51  DG51        0.1748
   1038  C6         8.1950   10.3150    2.0030 C.ar   51  DG51        0.3023
   1039  O6         7.7870    9.7910    3.0470 O.2    51  DG51       -0.2633
   1040  N1         7.3250   11.0740    1.2240 N.ar   51  DG51       -0.1709
   1041  C2         7.6670   11.6990    0.0490 C.ar   51  DG51        0.2606
   1042  N2         6.6910   12.3850   -0.5610 N.pl3  51  DG51       -0.0859
   1043  N3         8.8720   11.6550   -0.4840 N.ar   51  DG51       -0.1918
   1044  C4         9.7340   10.9250    0.2550 C.ar   51  DG51        0.1722
   1045  P         15.5160   14.0690    0.6610 P.3    52  DG52        0.2141
   1046  OP1       16.9920   14.1370    0.7500 O.2    52  DG52       -0.5172
   1047  OP2       14.7510   13.4840    1.7850 O.3    52  DG52       -0.4373
   1048  O5'       14.9330   15.5350    0.3800 O.3    52  DG52       -0.3114
   1049  C5'       15.6020   16.4150   -0.5180 C.3    52  DG52        0.1811
   1050  C4'       14.9870   17.8050   -0.5040 C.3    52  DG52        0.1746
   1051  O4'       13.5440   17.7070   -0.6190 O.3    52  DG52       -0.3327
   1052  C3'       15.1930   18.6040    0.7740 C.3    52  DG52        0.1558
   1053  O3'       16.4730   19.2180    0.8010 O.3    52  DG52       -0.3138
   1054  C2'       14.0710   19.6250    0.6530 C.3    52  DG52        0.0865
   1055  C1'       12.9370   18.7440    0.1280 C.3    52  DG52        0.2094
   1056  N9        12.2760   18.2390    1.2970 N.ar   52  DG52       -0.2713
   1057  C8        12.2510   16.9320    1.7200 C.ar   52  DG52        0.1816
   1058  N7        11.4720   16.7390    2.7500 N.ar   52  DG52       -0.2173
   1059  C5        10.9490   17.9890    3.0240 C.ar   52  DG52        0.1748
   1060  C6        10.0420   18.4100    4.0300 C.ar   52  DG52        0.3023
   1061  O6         9.5040   17.7270    4.9100 O.2    52  DG52       -0.2633
   1062  N1         9.7750   19.7740    3.9520 N.ar   52  DG52       -0.1709
   1063  C2        10.3140   20.6270    3.0200 C.ar   52  DG52        0.2606
   1064  N2         9.9350   21.9100    3.1030 N.pl3  52  DG52       -0.0859
   1065  N3        11.1580   20.2510    2.0790 N.ar   52  DG52       -0.1918
   1066  C4        11.4330   18.9310    2.1360 C.ar   52  DG52        0.1722
   1067  P         16.8680   19.2560    1.8200 P.3    53  DG53        0.2141
   1068  OP1       18.2140   19.7640    1.4660 O.2    53  DG53       -0.5172
   1069  OP2       16.7430   18.0700    2.7120 O.3    53  DG53       -0.4373
   1070  O5'       16.1180   20.4760    2.4930 O.3    53  DG53       -0.3114
   1071  C5'       15.8460   21.6350    1.7270 C.3    53  DG53        0.1811
   1072  C4'       15.0790   22.6000    2.5510 C.3    53  DG53        0.1746
   1073  O4'       13.7010   22.1590    2.6570 O.3    53  DG53       -0.3327
   1074  C3'       15.5690   22.6990    3.9820 C.3    53  DG53        0.1558
   1075  O3'       16.7040   23.5700    4.0550 O.3    53  DG53       -0.3138
   1076  C2'       14.3250   23.2260    4.6910 C.3    53  DG53        0.0865
   1077  C1'       13.1880   22.5210    3.9280 C.3    53  DG53        0.2094
   1078  N9        12.6210   21.3920    4.4440 N.ar   53  DG53       -0.2713
   1079  C8        13.1020   20.1140    4.2900 C.ar   53  DG53        0.1816
   1080  N7        12.6360   19.2770    5.1760 N.ar   53  DG53       -0.2173
   1081  C5        11.7960   20.0430    5.9620 C.ar   53  DG53        0.1748
   1082  C6        11.0060   19.6880    7.0870 C.ar   53  DG53        0.3023
   1083  O6        10.8950   18.5800    7.6250 O.2    53  DG53       -0.2633
   1084  N1        10.3000   20.7770    7.5910 N.ar   53  DG53       -0.1709
   1085  C2        10.3470   22.0500    7.0750 C.ar   53  DG53        0.2606
   1086  N2         9.5950   22.9680    7.6960 N.pl3  53  DG53       -0.0859
   1087  N3        11.0760   22.3940    6.0310 N.ar   53  DG53       -0.1918
   1088  C4        11.7720   21.3530    5.5260 C.ar   53  DG53        0.1722
   1089  P         17.9790   23.3390    5.2200 P.3    54  DG54        0.2141
   1090  OP1       19.1270   24.2750    5.3050 O.2    54  DG54       -0.5172
   1091  OP2       18.2370   21.8790    5.3420 O.3    54  DG54       -0.4373
   1092  O5'       16.8360   23.8190    6.2510 O.3    54  DG54       -0.3114
   1093  C5'       16.5750   25.2330    6.4370 C.3    54  DG54        0.1812
   1094  C4'       15.5810   25.5180    7.5650 C.3    54  DG54        0.1775
   1095  O4'       14.2830   24.9350    7.2750 O.3    54  DG54       -0.3326
   1096  C3'       15.9060   25.0760    8.9870 C.3    54  DG54        0.1859
   1097  O3'       16.7990   26.0000    9.6230 O.3    54  DG54       -0.2202
   1098  C2'       14.5200   25.0360    9.6370 C.3    54  DG54        0.0894
   1099  C1'       13.6540   24.5290    8.4760 C.3    54  DG54        0.2095
   1100  N9        13.4660   23.0930    8.3350 N.ar   54  DG54       -0.2713
   1101  C8        14.1950   22.1010    7.7230 C.ar   54  DG54        0.1816
   1102  N7        13.9290   20.9090    8.1830 N.ar   54  DG54       -0.2173
   1103  C5        12.9680   21.1210    9.1540 C.ar   54  DG54        0.1748
   1104  C6        12.2930   20.2050   10.0010 C.ar   54  DG54        0.3023
   1105  O6        12.4210   18.9760   10.0570 O.2    54  DG54       -0.2633
   1106  N1        11.3910   20.8460   10.8460 N.ar   54  DG54       -0.1709
   1107  C2        11.1660   22.2010   10.8720 C.ar   54  DG54        0.2606
   1108  N2        10.2560   22.6330   11.7550 N.pl3  54  DG54       -0.0859
   1109  N3        11.7860   23.0650   10.0910 N.ar   54  DG54       -0.1918
   1110  C4        12.6680   22.4660    9.2630 C.ar   54  DG54        0.1722
   1111  P         17.9680   25.4690   10.7200 P.3    55  DA55        0.4149
   1112  OP1       18.5990   26.8050   10.8030 O.3    55  DA55       -0.1481
   1113  OP2       18.5250   24.3380   11.4940 O.2    55  DA55       -0.2668
   1114  O5'       16.4170   25.5980   11.0940 O.3    55  DA55       -0.2177
   1115  C5'       15.9770   26.6250   11.9690 C.3    55  DA55        0.2140
   1116  C4'       14.9310   26.1230   12.9510 C.3    55  DA55        0.1776
   1117  O4'       14.1450   25.0530   12.3690 O.3    55  DA55       -0.3326
   1118  C3'       15.4830   25.4880   14.2170 C.3    55  DA55        0.1559
   1119  O3'       15.9130   26.4930   15.1260 O.3    55  DA55       -0.3138
   1120  C2'       14.2440   24.7570   14.7240 C.3    55  DA55        0.0865
   1121  C1'       13.6180   24.2610   13.4210 C.3    55  DA55        0.2094
   1122  N9        14.0060   22.9520   13.1780 N.ar   55  DA55       -0.2714
   1123  C8        14.9360   22.5550   12.2540 C.ar   55  DA55        0.1815
   1124  N7        15.1260   21.2570   12.2170 N.ar   55  DA55       -0.2193
   1125  C5        14.2620   20.7680   13.1840 C.ar   55  DA55        0.1518
   1126  C6        13.9860   19.4650   13.6360 C.ar   55  DA55        0.1919
   1127  N6        14.5790   18.3730   13.1480 N.pl3  55  DA55       -0.1054
   1128  N1        13.0690   19.3230   14.6160 N.ar   55  DA55       -0.2040
   1129  C2        12.4750   20.4180   15.1040 C.ar   55  DA55        0.2016
   1130  N3        12.6490   21.6920   14.7610 N.ar   55  DA55       -0.2048
   1131  C4        13.5660   21.8000   13.7860 C.ar   55  DA55        0.1691
   1132  P         16.8860   26.1850   15.9300 P.3    56  DG56        0.2141
   1133  OP1       17.7120   27.3520   16.3460 O.3    56  DG56       -0.4373
   1134  OP2       17.3270   25.3350   14.7860 O.2    56  DG56       -0.5172
   1135  O5'       16.6730   25.2560   17.2140 O.3    56  DG56       -0.3114
   1136  C5'       16.0190   25.7660   18.4000 C.3    56  DG56        0.1811
   1137  C4'       15.2460   24.6650   19.1160 C.3    56  DG56        0.1746
   1138  O4'       14.6750   23.7460   18.1410 O.3    56  DG56       -0.3327
   1139  C3'       16.0020   23.7460   20.0680 C.3    56  DG56        0.1558
   1140  O3'       16.1670   24.2930   21.3660 O.3    56  DG56       -0.3138
   1141  C2'       15.0850   22.5360   20.1360 C.3    56  DG56        0.0865
   1142  C1'       14.5820   22.4470   18.6990 C.3    56  DG56        0.2094
   1143  N9        15.5220   21.5030   18.0200 N.ar   56  DG56       -0.2713
   1144  C8        16.4740   21.8000   17.0740 C.ar   56  DG56        0.1816
   1145  N7        17.0740   20.7430   16.5980 N.ar   56  DG56       -0.2173
   1146  C5        16.4850   19.6840   17.2650 C.ar   56  DG56        0.1748
   1147  C6        16.7230   18.2890   17.1740 C.ar   56  DG56        0.3023
   1148  O6        17.5340   17.6950   16.4520 O.2    56  DG56       -0.2633
   1149  N1        15.9020   17.5640   18.0340 N.ar   56  DG56       -0.1709
   1150  C2        14.9680   18.1150   18.8780 C.ar   56  DG56        0.2606
   1151  N2        14.2710   17.2540   19.6310 N.pl3  56  DG56       -0.0859
   1152  N3        14.7370   19.4100   18.9750 N.ar   56  DG56       -0.1918
   1153  C4        15.5230   20.1340   18.1490 C.ar   56  DG56        0.1722
   1154  P         16.8640   23.3490   22.2540 P.3    57  DA57        0.2141
   1155  OP1       17.7430   24.4010   22.8230 O.3    57  DA57       -0.4373
   1156  OP2       17.4680   22.1340   21.6510 O.2    57  DA57       -0.5172
   1157  O5'       15.8400   22.8920   23.3830 O.3    57  DA57       -0.3114
   1158  C5'       16.0190   21.6630   24.0760 C.3    57  DA57        0.1811
   1159  C4'       15.1310   20.6040   23.4740 C.3    57  DA57        0.1744
   1160  O4'       15.3980   20.5250   22.0510 O.3    57  DA57       -0.3349
   1161  C3'       15.3500   19.1910   23.9880 C.3    57  DA57        0.1555
   1162  O3'       14.5890   18.9710   25.1670 O.3    57  DA57       -0.3139
   1163  C2'       14.8620   18.3420   22.8190 C.3    57  DA57        0.0835
   1164  C1'       15.3230   19.1770   21.6190 C.3    57  DA57        0.1972
   1165  N9        16.6980   18.9000   21.0310 N.pl3  57  DA57       -0.2490
   1166  C8        17.6880   19.8360   20.8840 C.2    57  DA57        0.1667
   1167  N7        18.7290   19.4040   20.2110 N.2    57  DA57       -0.2210
   1168  C5        18.3990   18.0950   19.8960 C.2    57  DA57        0.1882
   1169  C6        19.0850   17.0910   19.1890 C.2    57  DA57        0.4336
   1170  N6        20.2950   17.2610   18.6500 N.pl3  57  DA57        0.2179
   1171  N1        18.4770   15.8930   19.0540 N.2    57  DA57       -0.0099
   1172  C2        17.2640   15.7250   19.5930 C.2    57  DA57        0.3094
   1173  N3        16.5200   16.5910   20.2780 N.pl3  57  DA57       -0.2114
   1174  C4        17.1530   17.7700   20.3950 C.3    57  DA57        0.2083
   1175  P         14.6270   17.6310   25.8820 P.3    58  DC58        0.2141
   1176  OP1       13.2530   17.4010   26.4230 O.2    58  DC58       -0.5172
   1177  OP2       15.8990   17.6950   26.6830 O.3    58  DC58       -0.4373
   1178  O5'       14.9190   16.6310   24.6530 O.3    58  DC58       -0.3114
   1179  C5'       13.7810   16.2460   23.8780 C.3    58  DC58        0.1811
   1180  C4'       14.1320   15.4740   22.6330 C.3    58  DC58        0.1761
   1181  O4'       15.2120   16.1500   21.9740 O.3    58  DC58       -0.3215
   1182  C3'       14.7480   14.1170   22.8080 C.3    58  DC58        0.1575
   1183  O3'       13.7580   13.1850   22.9730 O.3    58  DC58       -0.3138
   1184  C2'       15.3920   13.8620   21.4740 C.3    58  DC58        0.1034
   1185  C1'       16.0660   15.2130   21.3340 C.3    58  DC58        0.2406
   1186  N1        17.4220   15.0960   21.9400 N.ar   58  DC58       -0.2437
   1187  C2        18.4130   14.3280   21.3170 C.ar   58  DC58        0.3542
   1188  O2        18.1280   13.7200   20.2710 O.2    58  DC58       -0.2443
   1189  N3        19.6480   14.2700   21.8700 N.ar   58  DC58       -0.1739
   1190  C4        19.9080   14.9390   22.9940 C.ar   58  DC58        0.1759
   1191  N4        21.1390   14.8520   23.5020 N.pl3  58  DC58       -0.1070
   1192  C5        18.9180   15.7220   23.6410 C.ar   58  DC58        0.0566
   1193  C6        17.6990   15.7770   23.0920 C.ar   58  DC58        0.0864
   1194  P         14.2020   12.1920   24.0150 P.3    59  DA59        0.2141
   1195  OP1       12.8850   12.0220   24.6690 O.2    59  DA59       -0.5172
   1196  OP2       15.4670   11.9680   24.7500 O.3    59  DA59       -0.4373
   1197  O5'       14.2610   11.1590   22.7990 O.3    59  DA59       -0.3114
   1198  C5'       15.1500   11.3530   21.7070 C.3    59  DA59        0.1812
   1199  C4'       14.9950   10.2430   20.7020 C.3    59  DA59        0.1775
   1200  O4'       15.5070    9.0230   21.3060 O.3    59  DA59       -0.3326
   1201  C3'       13.5450    9.9700   20.3090 C.3    59  DA59        0.1864
   1202  O3'       13.3280    9.8740   18.9020 O.3    59  DA59       -0.2133
   1203  C2'       13.2200    8.6350   20.9580 C.3    59  DA59        0.0894
   1204  C1'       14.5750    7.9710   21.1710 C.3    59  DA59        0.2095
   1205  N9        14.7160    7.4980   22.6900 N.ar   59  DA59       -0.2714
   1206  C8        14.4460    8.1630   23.8570 C.ar   59  DA59        0.1815
   1207  N7        13.9280    7.4020   24.7920 N.ar   59  DA59       -0.2193
   1208  C5        13.8530    6.1520   24.1980 C.ar   59  DA59        0.1518
   1209  C6        13.3930    4.9080   24.6660 C.ar   59  DA59        0.1919
   1210  N6        12.9030    4.7160   25.8930 N.pl3  59  DA59       -0.1054
   1211  N1        13.4550    3.8590   23.8200 N.ar   59  DA59       -0.2040
   1212  C2        13.9460    4.0530   22.5910 C.ar   59  DA59        0.2016
   1213  N3        14.4090    5.1710   22.0370 N.ar   59  DA59       -0.2048
   1214  C4        14.3330    6.1960   22.9030 C.ar   59  DA59        0.1691
   1215  P         11.7780   10.4240   18.6030 P.3    60  DT60        0.3939
   1216  OP1       10.8600    9.2730   18.4340 O.3    60  DT60       -0.1425
   1217  OP2       13.0220   10.5110   17.8040 O.3    60  DT60       -0.1496
   1218  O5'       10.9940   11.7810   18.2640 O.3    60  DT60       -0.2926
   1219  C5'        9.8040   12.1240   18.9630 C.3    60  DT60        0.1828
   1220  C4'        9.7500   13.5930   19.3100 C.3    60  DT60        0.1747
   1221  O4'       11.0860   14.1690   19.2620 O.3    60  DT60       -0.3327
   1222  C3'        8.9490   14.4930   18.3780 C.3    60  DT60        0.1558
   1223  O3'        7.5450   14.4080   18.5630 O.3    60  DT60       -0.3138
   1224  C2'        9.5240   15.8650   18.7130 C.3    60  DT60        0.0866
   1225  C1'       11.0060   15.5320   18.8900 C.3    60  DT60        0.2106
   1226  N1        11.8040   15.7800   17.6310 N.ar   60  DT60       -0.2559
   1227  C2        12.0560   17.0940   17.2840 C.ar   60  DT60        0.3545
   1228  O2        11.5470   18.0420   17.8560 O.2    60  DT60       -0.2443
   1229  N3        12.9290   17.2610   16.2360 N.ar   60  DT60       -0.1533
   1230  C4        13.5610   16.2690   15.5170 C.ar   60  DT60        0.2804
   1231  O4        14.3200   16.5750   14.6010 O.2    60  DT60       -0.2654
   1232  C5        13.2470   14.9320   15.9370 C.ar   60  DT60        0.0534
   1233  C6        12.4020   14.7410   16.9530 C.ar   60  DT60        0.0824
   1234  C7        13.8850   13.7820   15.2150 C.3    60  DT60        0.0377
   1235  P          6.7400   14.7510   17.4700 P.3    61  DC61        0.2141
   1236  OP1        5.4510   14.2700   18.0070 O.3    61  DC61       -0.4373
   1237  OP2        7.3110   14.1910   16.2250 O.2    61  DC61       -0.5172
   1238  O5'        6.6550   16.2990   17.1670 O.3    61  DC61       -0.3114
   1239  C5'        5.9910   17.1960   17.9800 C.3    61  DC61        0.1811
   1240  C4'        6.3230   18.5700   17.4290 C.3    61  DC61        0.1746
   1241  O4'        7.7470   18.6830   17.2160 O.3    61  DC61       -0.3327
   1242  C3'        5.7480   18.8620   16.0540 C.3    61  DC61        0.1558
   1243  O3'        4.4390   19.3180   16.1590 O.3    61  DC61       -0.3138
   1244  C2'        6.6210   20.0100   15.6280 C.3    61  DC61        0.0866
   1245  C1'        7.9720   19.5490   16.1280 C.3    61  DC61        0.2106
   1246  N1         8.8050   18.8600   15.0730 N.ar   61  DC61       -0.2556
   1247  C2         9.4580   19.5670   14.0570 C.ar   61  DC61        0.3531
   1248  O2         9.3630   20.8060   14.0350 O.2    61  DC61       -0.2443
   1249  N3        10.1710   18.8830   13.1300 N.ar   61  DC61       -0.1739
   1250  C4        10.2440   17.5530   13.1930 C.ar   61  DC61        0.1759
   1251  N4        10.9570   16.9220   12.2580 N.pl3  61  DC61       -0.1070
   1252  C5         9.5890   16.8180   14.2140 C.ar   61  DC61        0.0566
   1253  C6         8.8870   17.4970   15.1280 C.ar   61  DC61        0.0849
   1254  P          3.4760   18.9960   14.9790 P.3    62  DC62        0.2141
   1255  OP1        2.0450   19.0550   15.3570 O.3    62  DC62       -0.4373
   1256  OP2        4.1210   17.7430   14.5230 O.2    62  DC62       -0.5172
   1257  O5'        3.7610   20.0670   13.8290 O.3    62  DC62       -0.3114
   1258  C5'        3.4600   21.3980   14.2070 C.3    62  DC62        0.1811
   1259  C4'        4.1010   22.4040   13.2970 C.3    62  DC62        0.1746
   1260  O4'        5.5390   22.3940   13.4710 O.3    62  DC62       -0.3327
   1261  C3'        3.9110   22.1430   11.8170 C.3    62  DC62        0.1558
   1262  O3'        2.6300   22.5340   11.3640 O.3    62  DC62       -0.3138
   1263  C2'        5.0600   22.9320   11.2040 C.3    62  DC62        0.0866
   1264  C1'        6.1580   22.7030   12.2410 C.3    62  DC62        0.2106
   1265  N1         6.9780   21.5770   11.8390 N.ar   62  DC62       -0.2556
   1266  C2         7.8810   21.7890   10.7910 C.ar   62  DC62        0.3531
   1267  O2         7.9430   22.9190   10.2750 O.2    62  DC62       -0.2443
   1268  N3         8.6580   20.7630   10.3700 N.ar   62  DC62       -0.1739
   1269  C4         8.5570   19.5670   10.9530 C.ar   62  DC62        0.1759
   1270  N4         9.3420   18.5850   10.5050 N.pl3  62  DC62       -0.1070
   1271  C5         7.6480   19.3310   12.0170 C.ar   62  DC62        0.0566
   1272  C6         6.8830   20.3480   12.4290 C.ar   62  DC62        0.0849
   1273  P          1.8060   21.6270   10.2750 P.3    63  DT63        0.2141
   1274  OP1        0.4620   21.6670    9.6520 O.2    63  DT63       -0.5172
   1275  OP2        2.3990   20.3270   10.6590 O.3    63  DT63       -0.4373
   1276  O5'        2.8920   22.2680    9.2850 O.3    63  DT63       -0.3114
   1277  C5'        2.8150   23.6380    8.9190 C.3    63  DT63        0.1811
   1278  C4'        3.4440   23.8980    7.5710 C.3    63  DT63        0.1746
   1279  O4'        4.8720   23.6570    7.6470 O.3    63  DT63       -0.3327
   1280  C3'        2.9740   23.0240    6.4120 C.3    63  DT63        0.1558
   1281  O3'        1.7620   23.4650    5.8250 O.3    63  DT63       -0.3138
   1282  C2'        4.1530   23.0820    5.4490 C.3    63  DT63        0.0866
   1283  C1'        5.3340   23.1190    6.4230 C.3    63  DT63        0.2106
   1284  N1         5.8810   21.7380    6.7000 N.ar   63  DT63       -0.2559
   1285  C2         6.8640   21.3040    5.8310 C.ar   63  DT63        0.3545
   1286  O2         7.3040   21.9930    4.9280 O.2    63  DT63       -0.2443
   1287  N3         7.3170   20.0270    6.0580 N.ar   63  DT63       -0.1533
   1288  C4         6.8940   19.1590    7.0430 C.ar   63  DT63        0.2804
   1289  O4         7.3970   18.0410    7.1210 O.2    63  DT63       -0.2654
   1290  C5         5.8710   19.6820    7.9040 C.ar   63  DT63        0.0534
   1291  C6         5.4130   20.9210    7.7060 C.ar   63  DT63        0.0824
   1292  C7         5.3440   18.8130    9.0080 C.3    63  DT63        0.0377
   1293  P          0.9040   22.4440    5.2620 P.3    64  DA64        0.2141
   1294  OP1       -0.2370   23.1770    5.8760 O.3    64  DA64       -0.4373
   1295  OP2        1.3790   21.1080    5.7020 O.2    64  DA64       -0.5172
   1296  O5'        0.5900   22.3600    3.7010 O.3    64  DA64       -0.3114
   1297  C5'        0.9040   23.4970    2.9540 C.3    64  DA64        0.1812
   1298  C4'        1.1460   23.0120    1.5480 C.3    64  DA64        0.1775
   1299  O4'        2.2200   22.1290    1.7720 O.3    64  DA64       -0.3326
   1300  C3'        0.2530   22.0050    0.8790 C.3    64  DA64        0.1864
   1301  O3'       -0.8520   22.5940    0.3170 O.3    64  DA64       -0.2133
   1302  C2'        1.1750   21.3190   -0.1500 C.3    64  DA64        0.0894
   1303  C1'        2.4190   21.3180    0.6490 C.3    64  DA64        0.2095
   1304  N9         2.7350   20.0890    1.1080 N.ar   64  DA64       -0.2714
   1305  C8         2.5130   19.5990    2.3690 C.ar   64  DA64        0.1815
   1306  N7         2.7210   18.3080    2.4790 N.ar   64  DA64       -0.2193
   1307  C5         3.1050   17.9250    1.2030 C.ar   64  DA64        0.1518
   1308  C6         3.4660   16.6800    0.6590 C.ar   64  DA64        0.1919
   1309  N6         3.5000   15.5460    1.3630 N.pl3  64  DA64       -0.1054
   1310  N1         3.7940   16.6400   -0.6500 N.ar   64  DA64       -0.2040
   1311  C2         3.7600   17.7770   -1.3560 C.ar   64  DA64        0.2016
   1312  N3         3.4390   19.0050   -0.9560 N.ar   64  DA64       -0.2048
   1313  C4         3.1170   19.0100    0.3480 C.ar   64  DA64        0.1691
   1314  P         -2.0510   21.5330    0.6110 P.3    65  DT65        0.3939
   1315  OP1       -1.7030   22.6150   -0.3450 O.3    65  DT65       -0.1496
   1316  OP2       -3.1120   21.7610    1.6300 O.3    65  DT65       -0.1425
   1317  O5'       -2.4440   20.2390   -0.2300 O.3    65  DT65       -0.2926
   1318  C5'       -1.5070   19.6200   -1.1030 C.3    65  DT65        0.1828
   1319  C4'       -1.9430   19.7860   -2.5400 C.3    65  DT65        0.1747
   1320  O4'       -3.3210   19.3470   -2.6630 O.3    65  DT65       -0.3327
   1321  C3'       -1.9600   21.2120   -3.0660 C.3    65  DT65        0.1558
   1322  O3'       -0.6820   21.5910   -3.5520 O.3    65  DT65       -0.3138
   1323  C2'       -2.9780   21.1320   -4.1940 C.3    65  DT65        0.0866
   1324  C1'       -4.0050   20.1680   -3.5980 C.3    65  DT65        0.2106
   1325  N1        -5.0660   20.8600   -2.9290 N.ar   65  DT65       -0.2559
   1326  C2        -6.0180   21.4220   -3.7590 C.ar   65  DT65        0.3545
   1327  O2        -6.0760   21.1920   -4.9540 O.2    65  DT65       -0.2443
   1328  N3        -6.9030   22.2700   -3.1380 N.ar   65  DT65       -0.1533
   1329  C4        -6.9320   22.6040   -1.8000 C.ar   65  DT65        0.2804
   1330  O4        -7.7910   23.3800   -1.3890 O.2    65  DT65       -0.2654
   1331  C5        -5.9120   21.9810   -1.0040 C.ar   65  DT65        0.0534
   1332  C6        -5.0380   21.1520   -1.5830 C.ar   65  DT65        0.0824
   1333  C7        -5.8600   22.2820    0.4650 C.3    65  DT65        0.0377
   1334  P          0.0040   23.2580   -3.0080 P.3    66  DG66        0.2141
   1335  OP1        1.3340   23.1690   -3.6510 O.2    66  DG66       -0.5172
   1336  OP2       -0.1280   24.0920   -1.7880 O.3    66  DG66       -0.4373
   1337  O5'       -1.0380   23.7340   -4.1310 O.3    66  DG66       -0.3114
   1338  C5'       -0.6440   23.3360   -5.4480 C.3    66  DG66        0.1811
   1339  C4'       -1.7070   23.5300   -6.4750 C.3    66  DG66        0.1746
   1340  O4'       -2.9220   22.9710   -5.9700 O.3    66  DG66       -0.3327
   1341  C3'       -2.0610   24.9720   -6.7430 C.3    66  DG66        0.1558
   1342  O3'       -1.1070   25.7410   -7.5190 O.3    66  DG66       -0.3138
   1343  C2'       -3.4740   24.8820   -7.2630 C.3    66  DG66        0.0865
   1344  C1'       -4.0190   23.7760   -6.4300 C.3    66  DG66        0.2094
   1345  N9        -4.7820   24.2800   -5.3990 N.ar   66  DG66       -0.2713
   1346  C8        -4.4360   23.9850   -4.1030 C.ar   66  DG66        0.1816
   1347  N7        -5.3220   24.3830   -3.2300 N.ar   66  DG66       -0.2173
   1348  C5        -6.3120   24.9740   -3.9920 C.ar   66  DG66        0.1762
   1349  C6        -7.5290   25.5920   -3.6060 C.ar   66  DG66        0.3176
   1350  O6        -7.9850   25.7400   -2.4650 O.2    66  DG66       -0.2618
   1351  N1        -8.2440   26.0650   -4.7020 N.ar   66  DG66       -0.1041
   1352  C2        -7.8370   25.9570   -6.0110 C.ar   66  DG66        0.2770
   1353  N2        -8.6620   26.4730   -6.9310 N.pl3  66  DG66       -0.0846
   1354  N3        -6.7090   25.3870   -6.3850 N.ar   66  DG66       -0.1906
   1355  C4        -5.9970   24.9200   -5.3360 C.ar   66  DG66        0.1723
   1356  P         -0.7380   27.3250   -7.2130 P.3    67  DC67        0.2141
   1357  OP1        0.2190   27.3330   -8.3440 O.2    67  DC67       -0.5172
   1358  OP2       -0.4090   28.0700   -5.9690 O.3    67  DC67       -0.4373
   1359  O5'       -2.1310   27.8650   -7.7740 O.3    67  DC67       -0.3114
   1360  C5'       -2.1830   28.8720   -8.7830 C.3    67  DC67        0.1811
   1361  C4'       -3.6190   29.2100   -9.1460 C.3    67  DC67        0.1746
   1362  O4'       -4.5490   28.3140   -8.4760 O.3    67  DC67       -0.3327
   1363  C3'       -4.0940   30.6060   -8.7540 C.3    67  DC67        0.1558
   1364  O3'       -3.6970   31.5760   -9.7180 O.3    67  DC67       -0.3138
   1365  C2'       -5.6040   30.4210   -8.6840 C.3    67  DC67        0.0866
   1366  C1'       -5.7000   29.0300   -8.0540 C.3    67  DC67        0.2106
   1367  N1        -5.6680   29.0590   -6.5810 N.ar   67  DC67       -0.2556
   1368  C2        -6.7740   29.5130   -5.8530 C.ar   67  DC67        0.3531
   1369  O2        -7.7930   29.8660   -6.4710 O.2    67  DC67       -0.2443
   1370  N3        -6.7020   29.5550   -4.5010 N.ar   67  DC67       -0.1739
   1371  C4        -5.5870   29.1670   -3.8800 C.ar   67  DC67        0.1759
   1372  N4        -5.5620   29.2260   -2.5470 N.pl3  67  DC67       -0.1070
   1373  C5        -4.4560   28.7040   -4.6000 C.ar   67  DC67        0.0566
   1374  C6        -4.5310   28.6640   -5.9340 C.ar   67  DC67        0.0849
   1375  P         -3.3410   32.5980   -9.1760 P.3    68  DG68        0.2141
   1376  OP1       -2.5760   33.2540  -10.2700 O.2    68  DG68       -0.5172
   1377  OP2       -2.6720   32.2970   -7.8820 O.3    68  DG68       -0.4373
   1378  O5'       -4.6680   33.4310   -8.8740 O.3    68  DG68       -0.3114
   1379  C5'       -5.5920   33.7350   -9.9240 C.3    68  DG68        0.1811
   1380  C4'       -6.9620   34.0150   -9.3570 C.3    68  DG68        0.1746
   1381  O4'       -7.2470   33.0220   -8.3410 O.3    68  DG68       -0.3327
   1382  C3'       -7.1490   35.3230   -8.6140 C.3    68  DG68        0.1558
   1383  O3'       -7.4160   36.3960   -9.4920 O.3    68  DG68       -0.3138
   1384  C2'       -8.3480   35.0340   -7.7230 C.3    68  DG68        0.0865
   1385  C1'       -8.1310   33.5680   -7.3780 C.3    68  DG68        0.2094
   1386  N9        -7.5710   33.3880   -6.0140 N.ar   68  DG68       -0.2713
   1387  C8        -6.3020   32.9930   -5.6660 C.ar   68  DG68        0.1816
   1388  N7        -6.1310   32.8870   -4.3760 N.ar   68  DG68       -0.2173
   1389  C5        -7.3580   33.2290   -3.8380 C.ar   68  DG68        0.1748
   1390  C6        -7.7860   33.3000   -2.4880 C.ar   68  DG68        0.3023
   1391  O6        -7.1340   33.0630   -1.4640 O.2    68  DG68       -0.2633
   1392  N1        -9.1180   33.6930   -2.3840 N.ar   68  DG68       -0.1709
   1393  C2        -9.9360   33.9810   -3.4500 C.ar   68  DG68        0.2606
   1394  N2       -11.1910   34.3420   -3.1520 N.pl3  68  DG68       -0.0859
   1395  N3        -9.5520   33.9200   -4.7100 N.ar   68  DG68       -0.1918
   1396  C4        -8.2620   33.5420   -4.8350 C.ar   68  DG68        0.1722
   1397  P         -7.1100   37.8320   -9.0130 P.3    69  DT69        0.2141
   1398  OP1       -7.5010   38.7160  -10.1340 O.2    69  DT69       -0.5172
   1399  OP2       -5.7560   37.9100   -8.4210 O.3    69  DT69       -0.4373
   1400  O5'       -8.0850   38.0920   -7.7730 O.3    69  DT69       -0.3114
   1401  C5'       -9.4920   38.0860   -7.9590 C.3    69  DT69        0.1811
   1402  C4'      -10.2160   38.4430   -6.6840 C.3    69  DT69        0.1746
   1403  O4'      -10.1480   37.3290   -5.7550 O.3    69  DT69       -0.3327
   1404  C3'       -9.6280   39.5950   -5.8790 C.3    69  DT69        0.1558
   1405  O3'       -9.8900   40.8840   -6.4060 O.3    69  DT69       -0.3138
   1406  C2'      -10.2220   39.3360   -4.5010 C.3    69  DT69        0.0866
   1407  C1'      -10.0560   37.8220   -4.4330 C.3    69  DT69        0.2106
   1408  N1        -8.7310   37.6120   -3.8420 N.ar   69  DT69       -0.2559
   1409  C2        -8.6230   37.5240   -2.4670 C.ar   69  DT69        0.3545
   1410  O2        -9.5470   37.7680   -1.7120 O.2    69  DT69       -0.2443
   1411  N3        -7.3890   37.1380   -2.0040 N.ar   69  DT69       -0.1533
   1412  C4        -6.2750   36.8380   -2.7610 C.ar   69  DT69        0.2804
   1413  O4        -5.2340   36.5040   -2.2000 O.2    69  DT69       -0.2654
   1414  C5        -6.4660   36.9540   -4.1790 C.ar   69  DT69        0.0534
   1415  C6        -7.6570   37.3270   -4.6570 C.ar   69  DT69        0.0824
   1416  C7        -5.3120   36.6490   -5.0880 C.3    69  DT69        0.0377
   1417  P         -8.6460   41.9100   -6.5090 P.3    70  DG70        0.2141
   1418  OP1       -8.7740   43.0380   -7.4480 O.2    70  DG70       -0.5172
   1419  OP2       -7.4140   41.0810   -6.5850 O.3    70  DG70       -0.4373
   1420  O5'       -8.6370   42.5740   -5.0680 O.3    70  DG70       -0.3114
   1421  C5'       -9.5990   43.5860   -4.8970 C.3    70  DG70        0.1811
   1422  C4'       -9.7450   43.9250   -3.4320 C.3    70  DG70        0.1746
   1423  O4'       -9.7350   42.7180   -2.6610 O.3    70  DG70       -0.3327
   1424  C3'       -8.5430   44.6020   -2.8510 C.3    70  DG70        0.1558
   1425  O3'       -8.3810   45.9110   -3.3280 O.3    70  DG70       -0.3138
   1426  C2'       -8.8660   44.4470   -1.3650 C.3    70  DG70        0.0865
   1427  C1'       -9.2490   42.9810   -1.3870 C.3    70  DG70        0.2094
   1428  N9        -8.1600   42.1420   -1.1010 N.ar   70  DG70       -0.2713
   1429  C8        -7.6720   41.2390   -2.0140 C.ar   70  DG70        0.1816
   1430  N7        -6.7440   40.4620   -1.5260 N.ar   70  DG70       -0.2173
   1431  C5        -6.6080   40.8730   -0.2130 C.ar   70  DG70        0.1748
   1432  C6        -5.7520   40.4050    0.8170 C.ar   70  DG70        0.3023
   1433  O6        -4.9140   39.4970    0.7630 O.2    70  DG70       -0.2633
   1434  N1        -5.9380   41.1050    2.0060 N.ar   70  DG70       -0.1709
   1435  C2        -6.8380   42.1280    2.1810 C.ar   70  DG70        0.2606
   1436  N2        -6.8750   42.6810    3.4020 N.pl3  70  DG70       -0.0859
   1437  N3        -7.6390   42.5740    1.2340 N.ar   70  DG70       -0.1918
   1438  C4        -7.4760   41.9110    0.0700 C.ar   70  DG70        0.1722
   1439  P         -6.9960   46.3000   -3.3570 P.3    71  DC71        0.2141
   1440  OP1       -6.9720   47.3310   -4.4190 O.2    71  DC71       -0.5172
   1441  OP2       -5.8950   45.3130   -3.2720 O.3    71  DC71       -0.4373
   1442  O5'       -7.0640   46.9580   -1.8910 O.3    71  DC71       -0.3114
   1443  C5'       -5.9300   47.5240   -1.2360 C.3    71  DC71        0.1811
   1444  C4'       -5.9190   47.2240    0.2470 C.3    71  DC71        0.1746
   1445  O4'       -6.3310   45.8450    0.4550 O.3    71  DC71       -0.3327
   1446  C3'       -4.5670   47.3250    0.9500 C.3    71  DC71        0.1558
   1447  O3'       -4.2030   48.6370    1.3530 O.3    71  DC71       -0.3138
   1448  C2'       -4.7010   46.3520    2.1170 C.3    71  DC71        0.0866
   1449  C1'       -5.6000   45.2660    1.5150 C.3    71  DC71        0.2106
   1450  N1        -4.8170   44.0940    0.9120 N.ar   71  DC71       -0.2556
   1451  C2        -4.0880   43.2500    1.7590 C.ar   71  DC71        0.3531
   1452  O2        -3.9630   43.5670    2.9550 O.2    71  DC71       -0.2443
   1453  N3        -3.5430   42.1180    1.2530 N.ar   71  DC71       -0.1739
   1454  C4        -3.7030   41.8190   -0.0360 C.ar   71  DC71        0.1759
   1455  N4        -3.1480   40.6930   -0.4900 N.pl3  71  DC71       -0.1070
   1456  C5        -4.4380   42.6610   -0.9110 C.ar   71  DC71        0.0566
   1457  C6        -4.9750   43.7770   -0.4070 C.ar   71  DC71        0.0849
   1458  P         -2.5840   48.9800    1.5600 P.3    72  DT72        0.2141
   1459  OP1       -2.6220   50.3260    2.1660 O.3    72  DT72       -0.4373
   1460  OP2       -2.0430   48.7590    0.1950 O.2    72  DT72       -0.5172
   1461  O5'       -1.7930   48.0410    2.5800 O.3    72  DT72       -0.3114
   1462  C5'       -1.9530   48.2190    3.9810 C.3    72  DT72        0.1811
   1463  C4'       -1.1910   47.1620    4.7420 C.3    72  DT72        0.1746
   1464  O4'       -1.7160   45.8580    4.4020 O.3    72  DT72       -0.3327
   1465  C3'        0.2870   47.0570    4.4070 C.3    72  DT72        0.1558
   1466  O3'        1.0470   48.0140    5.1070 O.3    72  DT72       -0.3138
   1467  C2'        0.5980   45.6450    4.8640 C.3    72  DT72        0.0866
   1468  C1'       -0.6370   44.9350    4.3350 C.3    72  DT72        0.2106
   1469  N1        -0.4690   44.4240    2.9730 N.ar   72  DT72       -0.2559
   1470  C2         0.1170   43.1850    2.7970 C.ar   72  DT72        0.3545
   1471  O2         0.5590   42.5220    3.7190 O.2    72  DT72       -0.2443
   1472  N3         0.1690   42.7460    1.4960 N.ar   72  DT72       -0.1533
   1473  C4        -0.2960   43.4080    0.3790 C.ar   72  DT72        0.2804
   1474  O4        -0.1790   42.8840   -0.7270 O.2    72  DT72       -0.2654
   1475  C5        -0.8900   44.6880    0.6440 C.ar   72  DT72        0.0534
   1476  C6        -0.9530   45.1390    1.8990 C.ar   72  DT72        0.0824
   1477  C7        -1.4260   45.4860   -0.5070 C.3    72  DT72        0.0377
   1478  P          2.1900   48.3820    4.3400 P.3    73  DA73        0.2141
   1479  OP1        3.0020   49.2700    5.2080 O.3    73  DA73       -0.4373
   1480  OP2        2.1180   48.6460    2.8790 O.2    73  DA73       -0.5172
   1481  O5'        2.6600   46.8710    4.5630 O.3    73  DA73       -0.3114
   1482  C5'        4.0010   46.4760    4.2890 C.3    73  DA73        0.1811
   1483  C4'        4.5920   45.7340    5.4680 C.3    73  DA73        0.1746
   1484  O4'        4.5950   46.5940    6.6350 O.3    73  DA73       -0.3327
   1485  C3'        3.8560   44.4830    5.9240 C.3    73  DA73        0.1558
   1486  O3'        4.2450   43.3540    5.1580 O.3    73  DA73       -0.3138
   1487  C2'        4.2570   44.3440    7.3950 C.3    73  DA73        0.0865
   1488  C1'        4.4750   45.8000    7.7980 C.3    73  DA73        0.2094
   1489  N9         3.3700   46.2820    8.5870 N.ar   73  DA73       -0.2714
   1490  C8         2.5080   47.3330    8.4100 C.ar   73  DA73        0.1815
   1491  N7         1.6710   47.5040    9.4050 N.ar   73  DA73       -0.2193
   1492  C5         2.0050   46.4960   10.2970 C.ar   73  DA73        0.1518
   1493  C6         1.4870   46.1350   11.5530 C.ar   73  DA73        0.1919
   1494  N6         0.4820   46.7790   12.1510 N.pl3  73  DA73       -0.1054
   1495  N1         2.0460   45.0780   12.1800 N.ar   73  DA73       -0.2040
   1496  C2         3.0530   44.4340   11.5800 C.ar   73  DA73        0.2016
   1497  N3         3.6260   44.6790   10.4030 N.ar   73  DA73       -0.2048
   1498  C4         3.0480   45.7350    9.8060 C.ar   73  DA73        0.1691
   1499  P          3.4510   42.2890    4.8810 P.3    74  DC74        0.2141
   1500  OP1        4.0080   41.0700    4.1930 O.3    74  DC74       -0.4373
   1501  OP2        2.7070   43.1890    3.9610 O.2    74  DC74       -0.5172
   1502  O5'        2.7140   41.8960    6.2290 O.3    74  DC74       -0.3114
   1503  C5'        3.1260   40.6270    6.8150 C.3    74  DC74        0.1811
   1504  C4'        2.8720   40.7280    8.2880 C.3    74  DC74        0.1746
   1505  O4'        2.9730   42.0570    8.7430 O.3    74  DC74       -0.3327
   1506  C3'        1.4850   40.2510    8.7550 C.3    74  DC74        0.1558
   1507  O3'        1.3760   38.8490    8.7730 O.3    74  DC74       -0.3138
   1508  C2'        1.4020   40.9190   10.1100 C.3    74  DC74        0.0866
   1509  C1'        2.0890   42.2700    9.8530 C.3    74  DC74        0.2106
   1510  N1         0.7080   43.3090    9.2770 N.ar   74  DC74       -0.2556
   1511  C2         0.1310   44.0350   10.3250 C.ar   74  DC74        0.3531
   1512  O2         0.4180   43.7270   11.4950 O.2    74  DC74       -0.2443
   1513  N3        -0.7210   45.0470   10.0360 N.ar   74  DC74       -0.1739
   1514  C4        -1.0010   45.3420    8.7660 C.ar   74  DC74        0.1759
   1515  N4        -1.8460   46.3480    8.5290 N.pl3  74  DC74       -0.1070
   1516  C5        -0.4270   44.6190    7.6890 C.ar   74  DC74        0.0566
   1517  C6         0.4140   43.6190    7.9790 C.ar   74  DC74        0.0849
   1518  P          0.2000   37.7150    8.9380 P.3    75  DC75        0.2141
   1519  OP1        0.3610   36.6100    9.9070 O.3    75  DC75       -0.4373
   1520  OP2        0.4620   37.4980    7.4930 O.2    75  DC75       -0.5172
   1521  O5'       -1.3140   38.2290    8.9800 O.3    75  DC75       -0.3114
   1522  C5'       -1.8370   38.9160   10.1080 C.3    75  DC75        0.1811
   1523  C4'       -3.1320   39.5910    9.7460 C.3    75  DC75        0.1746
   1524  O4'       -2.8980   40.4820    8.6250 O.3    75  DC75       -0.3327
   1525  C3'       -4.2290   38.6650    9.2460 C.3    75  DC75        0.1558
   1526  O3'       -4.9450   38.0190   10.2870 O.3    75  DC75       -0.3138
   1527  C2'       -5.0780   39.5910    8.3820 C.3    75  DC75        0.0866
   1528  C1'       -4.0000   40.4630    7.7410 C.3    75  DC75        0.2106
   1529  N1        -3.6720   39.7400    6.4320 N.ar   75  DC75       -0.2556
   1530  C2        -4.3920   40.1580    5.3070 C.ar   75  DC75        0.3531
   1531  O2        -5.1910   41.1020    5.4250 O.2    75  DC75       -0.2443
   1532  N3        -4.1970   39.5230    4.1260 N.ar   75  DC75       -0.1739
   1533  C4        -3.3290   38.5130    4.0470 C.ar   75  DC75        0.1759
   1534  N4        -3.1700   37.9180    2.8630 N.pl3  75  DC75       -0.1070
   1535  C5        -2.5900   38.0750    5.1750 C.ar   75  DC75        0.0566
   1536  C6        -2.7850   38.7040    6.3390 C.ar   75  DC75        0.0849
   1537  P         -5.2810   36.7010   10.1610 P.3    76  DG76        0.2141
   1538  OP1       -5.1310   35.7930   11.3210 O.3    76  DG76       -0.4373
   1539  OP2       -4.7800   36.2970    8.8370 O.2    76  DG76       -0.5172
   1540  O5'       -6.8060   37.1200   10.0000 O.3    76  DG76       -0.3114
   1541  C5'       -7.6930   36.2990    9.2630 C.3    76  DG76        0.1811
   1542  C4'       -8.6260   37.1510    8.4550 C.3    76  DG76        0.1746
   1543  O4'       -7.8800   38.0340    7.5880 O.3    76  DG76       -0.3327
   1544  C3'       -9.5230   36.3460    7.5420 C.3    76  DG76        0.1558
   1545  O3'      -10.6880   35.9820    8.2720 O.3    76  DG76       -0.3138
   1546  C2'       -9.8370   37.3140    6.4070 C.3    76  DG76        0.0865
   1547  C1'       -8.5880   38.2040    6.3700 C.3    76  DG76        0.2094
   1548  N9        -7.6290   37.8830    5.4340 N.ar   76  DG76       -0.2713
   1549  C8        -6.4560   37.1810    5.5740 C.ar   76  DG76        0.1816
   1550  N7        -5.9520   36.7880    4.4350 N.ar   76  DG76       -0.2173
   1551  C5        -6.8410   37.2570    3.4870 C.ar   76  DG76        0.1748
   1552  C6        -6.8290   37.1400    2.0730 C.ar   76  DG76        0.3023
   1553  O6        -5.9930   36.5750    1.3580 O.2    76  DG76       -0.2633
   1554  N1        -7.9290   37.7650    1.4900 N.ar   76  DG76       -0.1709
   1555  C2        -8.9170   38.4210    2.1830 C.ar   76  DG76        0.2606
   1556  N2        -9.8970   38.9620    1.4460 N.pl3  76  DG76       -0.0859
   1557  N3        -8.9420   38.5370    3.4960 N.ar   76  DG76       -0.1918
   1558  C4        -7.8850   37.9370    4.0840 C.ar   76  DG76        0.1722
   1559  P        -11.3340   34.1820    8.3000 P.3    77  DT77        0.2141
   1560  OP1      -12.5190   34.0060    9.1670 O.3    77  DT77       -0.4373
   1561  OP2      -10.3380   33.0940    8.1390 O.2    77  DT77       -0.5172
   1562  O5'      -11.8020   34.5820    6.8170 O.3    77  DT77       -0.3114
   1563  C5'      -12.9030   35.4560    6.6260 C.3    77  DT77        0.1811
   1564  C4'      -13.0570   35.8310    5.1640 C.3    77  DT77        0.1746
   1565  O4'      -11.7850   36.2940    4.6490 O.3    77  DT77       -0.3327
   1566  C3'      -13.4030   34.7010    4.2070 C.3    77  DT77        0.1558
   1567  O3'      -14.7750   34.3320    4.2600 O.3    77  DT77       -0.3138
   1568  C2'      -13.0600   35.3890    2.8920 C.3    77  DT77        0.0866
   1569  C1'      -11.7120   36.0130    3.2590 C.3    77  DT77        0.2106
   1570  N1       -10.6260   35.0540    3.0300 N.ar   77  DT77       -0.2559
   1571  C2       -10.2030   34.8260    1.7350 C.ar   77  DT77        0.3545
   1572  O2       -10.7730   35.2830    0.7600 O.2    77  DT77       -0.2443
   1573  N3        -9.0830   34.0390    1.6190 N.ar   77  DT77       -0.1533
   1574  C4        -8.3590   33.4690    2.6460 C.ar   77  DT77        0.2804
   1575  O4        -7.3720   32.7860    2.3840 O.2    77  DT77       -0.2654
   1576  C5        -8.8620   33.7510    3.9610 C.ar   77  DT77        0.0534
   1577  C6        -9.9490   34.5130    4.1020 C.ar   77  DT77        0.0824
   1578  C7        -8.1440   33.1750    5.1450 C.3    77  DT77        0.0377
   1579  P        -15.1800   32.9570    3.8440 P.3    78  DG78        0.2141
   1580  OP1      -16.4060   32.4590    4.5280 O.3    78  DG78       -0.4373
   1581  OP2      -13.8360   32.6490    4.4170 O.2    78  DG78       -0.5172
   1582  O5'      -15.2260   32.4510    2.3290 O.3    78  DG78       -0.3114
   1583  C5'      -16.3140   32.8290    1.4520 C.3    78  DG78        0.1811
   1584  C4'      -15.8400   32.9460    0.0090 C.3    78  DG78        0.1746
   1585  O4'      -14.4810   33.4690   -0.0250 O.3    78  DG78       -0.3327
   1586  C3'      -15.7530   31.6800   -0.8340 C.3    78  DG78        0.1558
   1587  O3'      -16.9920   31.3010   -1.4100 O.3    78  DG78       -0.3138
   1588  C2'      -14.7850   32.0940   -1.9300 C.3    78  DG78        0.0865
   1589  C1'      -13.7980   32.9640   -1.1590 C.3    78  DG78        0.2094
   1590  N9       -12.7040   32.1080   -0.7420 N.ar   78  DG78       -0.2713
   1591  C8       -12.3730   31.8290    0.5620 C.ar   78  DG78        0.1816
   1592  N7       -11.2850   31.1170    0.6770 N.ar   78  DG78       -0.2173
   1593  C5       -10.8700   30.9140   -0.6260 C.ar   78  DG78        0.1748
   1594  C6        -9.7490   30.2100   -1.1380 C.ar   78  DG78        0.3023
   1595  O6        -8.8710   29.6060   -0.5100 O.2    78  DG78       -0.2633
   1596  N1        -9.7020   30.2490   -2.5290 N.ar   78  DG78       -0.1709
   1597  C2       -10.6200   30.8870   -3.3280 C.ar   78  DG78        0.2606
   1598  N2       -10.4050   30.8150   -4.6480 N.pl3  78  DG78       -0.0859
   1599  N3       -11.6660   31.5440   -2.8660 N.ar   78  DG78       -0.1918
   1600  C4       -11.7330   31.5190   -1.5180 C.ar   78  DG78        0.1722
   1601  P        -17.1150   29.9060   -1.8600 P.3    79  DA79        0.2141
   1602  OP1      -18.5840   30.0210   -1.6660 O.2    79  DA79       -0.5172
   1603  OP2      -16.2910   29.2550   -0.8040 O.3    79  DA79       -0.4373
   1604  O5'      -16.8590   29.1780   -3.2530 O.3    79  DA79       -0.3115
   1605  C5'      -17.2940   29.7850   -4.4680 C.3    79  DA79        0.1785
   1606  C4'      -16.2780   29.5770   -5.5630 C.3    79  DA79        0.1471
   1607  O4'      -15.0150   30.2030   -5.2050 O.3    79  DA79       -0.3375
   1608  C3'      -15.9090   28.1380   -5.8660 C.3    79  DA79        0.0366
   1609  O3'      -16.8800   27.4860   -6.6760 O.3    79  DA79       -0.1145
   1610  C2'      -14.5440   28.2860   -6.5320 C.3    79  DA79        0.0536
   1611  C1'      -13.9390   29.4440   -5.7330 C.3    79  DA79        0.1949
   1612  N9       -13.1370   28.9280   -4.6270 N.pl3  79  DA79       -0.2458
   1613  C8       -13.3640   29.1050   -3.2870 C.2    79  DA79        0.1669
   1614  N7       -12.3920   28.6640   -2.5240 N.2    79  DA79       -0.2209
   1615  C5       -11.4640   28.1640   -3.4240 C.2    79  DA79        0.1886
   1616  C6       -10.2080   27.5560   -3.2480 C.2    79  DA79        0.4097
   1617  N6        -9.6510   27.3420   -2.0530 N.pl3  79  DA79        0.2139
   1618  N1        -9.5380   27.1710   -4.3550 N.pl3  79  DA79       -0.0420
   1619  C2       -10.0970   27.3860   -5.5510 C.2    79  DA79        0.3048
   1620  N3       -11.2680   27.9480   -5.8430 N.2    79  DA79       -0.2039
   1621  C4       -11.9090   28.3180   -4.7220 C.3    79  DA79        0.2331
   1622  P        -17.8070   26.4610   -6.5580 P.3    80  DA80        0.5327
   1623  OP1      -18.3350   25.1650   -6.0540 O.2    80  DA80       -0.2224
   1624  OP2      -17.2230   27.4410   -5.6010 O.3    80  DA80       -0.1145
   1625  O5'      -16.7190   26.1860   -7.6910 O.3    80  DA80       -0.2675
   1626  C5'      -15.6030   25.3530   -7.4200 C.3    80  DA80        0.1857
   1627  C4'      -14.9560   24.8850   -8.7010 C.3    80  DA80        0.1755
   1628  O4'      -14.1050   25.9400   -9.2340 O.3    80  DA80       -0.3510
   1629  C3'      -14.0090   23.7200   -8.4670 C.3    80  DA80        0.1839
   1630  O3'      -14.7080   22.4840   -8.4650 O.3    80  DA80       -0.2204
   1631  C2'      -12.9920   23.8720   -9.5890 C.3    80  DA80        0.0676
   1632  C1'      -12.8670   25.3940   -9.6680 C.3    80  DA80        0.1450
   1633  N9       -12.5260   24.1790   -6.4780 N.ar   80  DA80       -0.2032
   1634  C8       -13.3090   24.6360   -5.4510 C.ar   80  DA80        0.2005
   1635  N7       -12.7580   24.5060   -4.2670 N.ar   80  DA80       -0.2179
   1636  C5       -11.5300   23.9230   -4.5360 C.ar   80  DA80        0.1534
   1637  C6       -10.4690   23.5270   -3.7030 C.ar   80  DA80        0.1919
   1638  N6       -10.4790   23.6680   -2.3750 N.pl3  80  DA80       -0.1054
   1639  N1        -9.3850   22.9760   -4.2890 N.ar   80  DA80       -0.2040
   1640  C2        -9.3750   22.8360   -5.6200 C.ar   80  DA80        0.2016
   1641  N3       -10.3100   23.1700   -6.5070 N.ar   80  DA80       -0.2031
   1642  C4       -11.3740   23.7140   -5.8930 C.ar   80  DA80        0.1862
@<TRIPOS>BOND
     1   555   554    1
     2   577   576    1
     3   826   825    2
     4   847   846    2
     5   554   553   ar
     6   554   556   ar
     7   829   828    1
     8   829   830    1
     9   811   825    1
    10   811   810    1
    11   578   576   ar
    12   578   579   ar
    13   807   808    1
    14   807   806    1
    15   576   575   ar
    16   808   810    1
    17   808   809    1
    18   622   621    2
    19   804   803    2
    20   568   567    1
    21   568   564    1
    22   568   569    1
    23   609   608    1
    24   609   621    1
    25   553   551   ar
    26   605   606    1
    27   605   604    1
    28   606   608    1
    29   606   607    1
    30   602   601    2
    31   567   565    1
    32   825   828    1
    33   825   827    1
    34   833   846    1
    35   833   832    1
    36   564   563    1
    37   556   557   ar
    38   791   803    1
    39   791   790    1
    40   830   832    1
    41   830   831    1
    42   585   586    1
    43   585   584    1
    44   585   587    1
    45   846   848    1
    46   846   849    1
    47   604   601    1
    48   586   590    1
    49   810   812    1
    50   588   601    1
    51   588   587    1
    52   792   790    1
    53   792   793    1
    54   608   610    1
    55   579   569   ar
    56   579   572   ar
    57   563   565    1
    58   563   562    1
    59   809   813    1
    60   607   611    1
    61   584   583    1
    62   788   790    1
    63   788   789    1
    64   788   787    1
    65   590   589    1
    66   590   591    1
    67   575   573   ar
    68   569   570   ar
    69   806   803    1
    70   610   611    1
    71   601   603    1
    72   812   813    1
    73   621   623    1
    74   621   624    1
    75   803   805    1
    76   832   834    1
    77   551   552    2
    78   551   550   ar
    79   589   587    1
    80   599   598   ar
    81   599   600   ar
    82   565   566    1
    83   557   550   ar
    84   557   547   ar
    85   566   580    1
    86   850   849    1
    87   850   851    1
    88   831   835    1
    89   793   789    1
    90   793   794    1
    91   787   786    1
    92   611   612    1
    93   813   814    1
    94   356   357    1
    95   356   355    1
    96   583   580    1
    97   357   358    1
    98   357   359    1
    99   591   600   ar
   100   591   592   ar
   101   598   597   ar
   102   550   549   ar
   103   562   561    1
   104   625   624    1
   105   625   626    1
   106   572   573   ar
   107   572   571   ar
   108   600   594   ar
   109   573   574    2
   110   360   359    1
   111   360   373    1
   112   374   373    2
   113   834   835    1
   114   570   571   ar
   115   339   340    1
   116   339   337    1
   117   796   795    2
   118   546   547    1
   119   546   545    1
   120   546   542    1
   121   358   362    1
   122   338   337    1
   123   338   352    1
   124   547   548   ar
   125   581   580    2
   126   353   352    2
   127   545   543    1
   128   335   336    1
   129   335   337    1
   130   335   334    1
   131   835   836    1
   132   340   336    1
   133   340   341    1
   134   580   582    1
   135   359   361    1
   136   377   378    1
   137   377   376    1
   138   851   852    1
   139   851   853    1
   140   786   783    1
   141   814   815   ar
   142   814   824   ar
   143   612   619   ar
   144   612   613   ar
   145   592   593   ar
   146   794   795   ar
   147   794   801   ar
   148   355   352    1
   149   361   362    1
   150   626   627    1
   151   626   628    1
   152   597   595   ar
   153   352   354    1
   154   362   363    1
   155   867   866    2
   156   784   783    2
   157   549   548   ar
   158   373   376    1
   159   373   375    1
   160   561   558    1
   161   795   797   ar
   162   542   541    1
   163   627   631    1
   164   619   618   ar
   165   594   595   ar
   166   594   593   ar
   167   378   379    1
   168   378   380    1
   169   854   853    1
   170   854   866    1
   171   349   348    1
   172   815   816   ar
   173   334   333    1
   174   350   348   ar
   175   350   351   ar
   176   614   613    2
   177   852   856    1
   178   837   836   ar
   179   837   838   ar
   180   853   855    1
   181   783   771    1
   182   783   785    1
   183   379   383    1
   184   836   845   ar
   185   866   868    1
   186   866   869    1
   187   595   596    1
   188   771   770    1
   189   613   615   ar
   190   823   824   ar
   191   823   821   ar
   192   824   817   ar
   193   801   800   ar
   194   543   541    1
   195   543   544    1
   196   341   351   ar
   197   341   342   ar
   198   348   347   ar
   199   541   540    1
   200   544   558    1
   201   643   642    2
   202   772   770    1
   203   772   773    1
   204   381   380    1
   205   381   393    1
   206   865   863    1
   207   351   344   ar
   208   633   634   ar
   209   633   632   ar
   210   628   629    1
   211   628   630    1
   212   558   559    2
   213   558   560    1
   214   529   528    2
   215   363   364   ar
   216   363   372   ar
   217   328   327   ar
   218   328   329   ar
   219   797   798   ar
   220   618   620    1
   221   618   616   ar
   222   629   642    1
   223   327   326   ar
   224   394   393    2
   225   631   630    1
   226   631   632    1
   227   380   382    1
   228   816   817   ar
   229   770   768    1
   230   864   863    2
   231   864   857    1
   232   318   319    1
   233   318   316    1
   234   333   330    1
   235   383   382    1
   236   383   384    1
   237   838   839   ar
   238   634   635   ar
   239   644   642    1
   240   856   855    1
   241   856   857    1
   242   642   645    1
   243   776   775    2
   244   817   818   ar
   245   845   844   ar
   246   845   839   ar
   247   855   878    1
   248   821   822    1
   249   821   820   ar
   250   364   365   ar
   251   615   616   ar
   252   863   861    1
   253   869   870    1
   254   319   315    1
   255   319   320    1
   256   800   798   ar
   257   800   802    1
   258   632   641   ar
   259   342   343   ar
   260   371   372   ar
   261   371   370   ar
   262   393   395    1
   263   393   396    1
   264   372   366   ar
   265   347   345   ar
   266  1376  1375    2
   267   773   769    1
   268   773   774    1
   269   317   316    1
   270   317   330    1
   271   540   539    1
   272   616   617    2
   273   163   162    2
   274   768   769    1
   275   768   767    1
   276   857   858    1
   277   798   799    2
   278  1398  1397    2
   279   326   324   ar
   280   844   843   ar
   281   528   530   ar
   282   528   527   ar
   283   539   536    1
   284   329   320   ar
   285   329   323   ar
   286   344   343   ar
   287   344   345   ar
   288   870   871    1
   289   839   840   ar
   290  1379  1380    1
   291  1379  1378    1
   292   331   330    2
   293   316   314    1
   294   525   526    1
   295   525   523    1
   296   315   314    1
   297   391   384   ar
   298   391   390   ar
   299   330   332    1
   300  1364  1375    1
   301  1364  1363    1
   302   314   313    1
   303   384   385   ar
   304  1632  1631    1
   305  1632  1628    1
   306   320   321   ar
   307   775   774   ar
   308   775   777   ar
   309   530   531   ar
   310  1631  1629    1
   311   635   641   ar
   312   635   636   ar
   313  1383  1397    1
   314  1383  1382    1
   315   526   527    1
   316   526   522    1
   317   820   818   ar
   318   661   659    1
   319   345   346    2
   320   818   819    2
   321   365   366   ar
   322  1380  1382    1
   323  1380  1381    1
   324   774   781   ar
   325   370   369   ar
   326   641   640   ar
   327   184   183    2
   328   767   766    1
   329  1628  1627    1
   330  1375  1378    1
   331  1375  1377    1
   332   397   396    1
   333   397   398    1
   334   645   646    1
   335   366   367   ar
   336  1361  1360    1
   337  1361  1363    1
   338  1361  1362    1
   339   861   862    2
   340   861   860   am
   341   527   534   ar
   342  1397  1399    1
   343  1397  1400    1
   344   324   323   ar
   345   324   325    1
   346   878   879    1
   347   878   877    1
   348   162   151    1
   349   162   164    1
   350   162   165    1
   351   323   322   ar
   352   872   871    1
   353   872   876    1
   354   843   842   ar
   355   392   390    1
   356   871   873    1
   357  1360  1359    1
   358   858   879    1
   359   858   860    1
   360   858   859    1
   361  1363  1365    1
   362   646   647    1
   363   390   388   ar
   364  1627  1629    1
   365  1627  1626    1
   366   879   880    1
   367  1365  1366    1
   368   524   536    1
   369   524   523    1
   370   151   150    1
   371   303   302    2
   372   777   778   ar
   373  1382  1384    1
   374   536   537    2
   375   536   538    1
   376   385   386    2
   377   385   387   ar
   378   840   842   ar
   379   840   841    1
   380   637   636    1
   381   523   521    1
   382  1362  1366    1
   383  1629  1630    1
   384   636   638   ar
   385   166   165    1
   386   166   167    1
   387   522   521    1
   388   313   312    1
   389  1357  1356    2
   390  1381  1385    1
   391   531   532    2
   392   531   533   ar
   393   860   882    1
   394   321   322   ar
   395   144   143    2
   396   640   639   ar
   397   369   367   ar
   398   781   780   ar
   399   659   660   ar
   400   659   657   ar
   401   183   170    1
   402   183   185    1
   403   183   186    1
   404   766   763    1
   405  1366  1367    1
   406   147   148    1
   407   147   146    1
   408   859   880    1
   409   367   368    1
   410   521   520    1
   411  1401  1400    1
   412  1401  1402    1
   413   170   169    1
   414   398   399    1
   415   398   400    1
   416   660   653   ar
   417  1359  1356    1
   418   877   876    1
   419   877   886    1
   420   534   533   ar
   421  1384  1385    1
   422  1625  1626    1
   423  1625  1622    1
   424   148   150    1
   425   148   149    1
   426   399   403    1
   427   876   875    1
   428   302   304   ar
   429   302   301   ar
   430  1342  1356    1
   431  1342  1341    1
   432   387   388   ar
   433   388   389    2
   434   304   305   ar
   435   510   509    2
   436   150   152    1
   437  1418  1417    2
   438   873   874    1
   439   873   875    1
   440   880   886    1
   441   880   881    1
   442   756   755    2
   443   312   309    1
   444   648   647    1
   445   648   652    1
   446   658   657    2
   447   778   780   ar
   448   778   779    2
   449  1385  1386    1
   450   533   535    1
   451   647   649    1
   452   511   509   ar
   453   511   512   ar
   454   638   639   ar
   455   167   169    1
   456   167   168    1
   457  1343  1341    1
   458  1343  1344    1
   459  1356  1358    1
   460   657   656   ar
   461   780   782    1
   462   882   881    2
   463   513   512    1
   464   299   300    1
   465   299   297    1
   466   405   406   ar
   467   405   404   ar
   468   146   143    1
   469  1353  1352    1
   470   169   171    1
   471   143   130    1
   472   143   145    1
   473   886   885    2
   474   509   508   ar
   475   186   187    1
   476   874   887    1
   477  1341  1339    1
   478   889   887    2
   479   763   765    2
   480   763   764    1
   481   763   751    1
   482  1402  1404    1
   483  1402  1403    1
   484  1609  1622    1
   485  1609  1624    1
   486   152   153    1
   487   881   883    1
   488   406   407   ar
   489   400   401    1
   490   400   402    1
   491   653   652    1
   492   653   654   ar
   493  1419  1417    1
   494  1367  1374   ar
   495  1367  1368   ar
   496   187   188    1
   497  1622  1623    2
   498  1622  1624    1
   499  1610  1608    1
   500  1610  1611    1
   501   300   301    1
   502   300   296    1
   503   512   514   ar
   504  1417  1405    1
   505  1417  1420    1
   506  1641  1642   ar
   507  1641  1640   ar
   508  1633  1642   ar
   509  1633  1634   ar
   510  1339  1340    1
   511  1339  1338    1
   512  1369  1368    2
   513   520   519    1
   514   401   415    1
   515  1344  1340    1
   516  1344  1345    1
   517   752   753    1
   518   752   750    1
   519   149   153    1
   520  1405  1404    1
   521   301   308   ar
   522  1354  1352   ar
   523  1354  1355   ar
   524   755   757   ar
   525   755   754   ar
   526   130   129    1
   527   305   306    1
   528   305   307   ar
   529   649   650    1
   530   649   651    1
   531   403   404    1
   532   403   402    1
   533   417   415    2
   534   652   651    1
   535   404   414   ar
   536   168   172    1
   537   656   654   ar
   538   757   758   ar
   539  1386  1387   ar
   540  1386  1396   ar
   541  1352  1351   ar
   542   887   888    1
   543   887   890    1
   544   298   309    1
   545   298   297    1
   546   493   492    2
   547   206   205    2
   548  1374  1373   ar
   549  1642  1636   ar
   550   751   750    1
   551  1404  1406    1
   552   309   310    2
   553   309   311    1
   554  1608  1606    1
   555  1368  1370   ar
   556  1620  1619    2
   557  1620  1621    1
   558   207   205    1
   559   286   285    2
   560   519   516    1
   561   297   295    1
   562  1403  1407    1
   563  1611  1607    1
   564  1611  1612    1
   565   650   662    1
   566   153   154    1
   567   171   172    1
   568   654   655    2
   569  1387  1388   ar
   570   415   416    1
   571   415   418    1
   572   753   754    1
   573   753   749    1
   574  1640  1639   ar
   575   885   884    1
   576  1606  1607    1
   577  1606  1605    1
   578   681   679    1
   579  1619  1618    1
   580   664   662    2
   581  1634  1635   ar
   582  1338  1337    1
   583   508   507    1
   584   508   515   ar
   585  1345  1355   ar
   586  1345  1346   ar
   587   883   884    2
   588   754   761   ar
   589  1355  1348   ar
   590   750   748    1
   591   407   414   ar
   592   407   408   ar
   593   205   191    1
   594   205   208    1
   595   296   295    1
   596   308   307   ar
   597   191   190    1
   598   188   190    1
   599   188   189    1
   600   506   507    1
   601   506   504    1
   602   514   515   ar
   603  1416  1414    1
   604   903   902    1
   605  1420  1421    1
   606   172   173    1
   607   414   413   ar
   608  1327  1326    2
   609   129   131    1
   610   129   127    1
   611   472   471    1
   612  1421  1422    1
   613   295   294    1
   614   507   503    1
   615   758   759    2
   616   758   760   ar
   617   492   491   ar
   618   492   494   ar
   619  1396  1395   ar
   620  1396  1389   ar
   621   285   284   ar
   622   285   287   ar
   623   904   902   ar
   624   904   905   ar
   625   662   663    1
   626   662   665    1
   627   284   282   ar
   628   131   132    1
   629  1621  1612    1
   630  1621  1615    1
   631  1395  1393   ar
   632  1351  1618    1
   633  1351  1349   ar
   634   190   192    1
   635  1415  1414   ar
   636  1415  1408   ar
   637  1598  1597    1
   638  1612  1613    1
   639   491   489   ar
   640  1373  1371   ar
   641   174   173   ar
   642   174   175   ar
   643  1636  1635   ar
   644  1636  1637   ar
   645   890   891    1
   646   127   126    1
   647   127   128    1
   648  1370  1371   ar
   649  1406  1407    1
   650   409   408    2
   651   678   677    2
   652  1605  1604    1
   653   902   901   ar
   654  1407  1408    1
   655   749   748    1
   656  1440  1439    2
   657   154   161   ar
   658   154   155   ar
   659  1388  1389   ar
   660   748   747    1
   661   408   410   ar
   662  1618  1616    1
   663   431   430    1
   664   418   419    1
   665  1639  1637   ar
   666   432   430   ar
   667   432   433   ar
   668   679   677   ar
   669   679   680   ar
   670   516   518    2
   671   516   517    1
   672   516   505    1
   673   189   193    1
   674  1323  1324    1
   675  1323  1321    1
   676  1414  1412   ar
   677   905   898   ar
   678   761   760   ar
   679  1337  1334    1
   680   173   182   ar
   681  1346  1347   ar
   682   126   125    1
   683   264   263    2
   684   161   160   ar
   685  1348  1349   ar
   686  1348  1347   ar
   687   228   226    2
   688   496   494    1
   689   760   762    1
   690  1371  1372    1
   691   156   155    2
   692   677   676   ar
   693  1408  1409   ar
   694  1389  1390   ar
   695   504   505    1
   696   504   502    1
   697   413   411   ar
   698   739   738    2
   699   471   473   ar
   700   471   470   ar
   701   665   666    1
   702   208   209    1
   703  1326  1328   ar
   704  1326  1325   ar
   705   494   495   ar
   706   283   282    2
   707   282   281   ar
   708   736   735    2
   709   737   738   ar
   710   737   735   ar
   711   287   289    1
   712   287   288   ar
   713  1637  1638    1
   714  1335  1334    2
   715   195   196   ar
   716   195   194   ar
   717   175   176   ar
   718   430   429   ar
   719   891   892    1
   720  1349  1350    2
   721   473   474   ar
   722  1324  1325    1
   723  1324  1320    1
   724  1322  1321    1
   725  1322  1334    1
   726   433   426   ar
   727   155   157   ar
   728   132   128    1
   729   132   133    1
   730   680   673   ar
   731   419   420    1
   732   503   502    1
   733  1393  1394    1
   734  1393  1392   ar
   735   489   490    2
   736   489   488   ar
   737  1422  1424    1
   738  1422  1423    1
   739   901   899   ar
   740  1615  1616    2
   741  1615  1614    1
   742   294   293    1
   743  1439  1425    1
   744  1439  1441    1
   745  1439  1442    1
   746  1597  1599   ar
   747  1597  1596   ar
   748  1425  1424    1
   749  1613  1614    2
   750  1604  1601    1
   751  1616  1617    1
   752   123   122    2
   753   192   193    1
   754   242   241    2
   755   410   411   ar
   756   293   290    1
   757  1328  1329   ar
   758   196   197   ar
   759   898   899   ar
   760   898   897    1
   761   893   892    1
   762   893   897    1
   763   738   740   ar
   764   735   734   ar
   765  1321  1319    1
   766  1334  1336    1
   767   193   194    1
   768   263   265   ar
   769   263   262   ar
   770  1325  1332   ar
   771   747   746    1
   772   666   667    1
   773   125   122    1
   774   411   412    1
   775  1599  1600   ar
   776  1424  1426    1
   777   209   210    1
   778   160   158   ar
   779   450   449    2
   780   502   501    1
   781   182   176   ar
   782   182   181   ar
   783  1412  1413    2
   784  1412  1411   ar
   785   141   140   ar
   786   141   142   ar
   787   899   900    2
   788   194   204   ar
   789   470   469   ar
   790   470   476   ar
   791   288   281   ar
   792   281   280    1
   793  1320  1319    1
   794  1423  1427    1
   795   676   674   ar
   796   495   488   ar
   797   226   227    2
   798   226   229    1
   799   719   718    2
   800   698   697    1
   801  1319  1318    1
   802   892   894    1
   803   469   468   ar
   804  1596  1594   ar
   805   176   177   ar
   806   239   240   ar
   807   239   238   ar
   808  1390  1392   ar
   809  1390  1391    2
   810   436   434    2
   811  1409  1411   ar
   812  1409  1410    2
   813   261   262   ar
   814   261   260   ar
   815   474   475   ar
   816   488   487    1
   817   250   248    2
   818   265   266   ar
   819   218   217   ar
   820   218   219   ar
   821   897   896    1
   822   673   674   ar
   823   673   672    1
   824   429   427   ar
   825   157   158   ar
   826   133   142   ar
   827   133   134   ar
   828   746   743    1
   829   262   269   ar
   830   140   139   ar
   831   668   667    1
   832   668   672    1
   833   122   111    1
   834   122   124    1
   835   426   427   ar
   836   426   425    1
   837   922   921    1
   838   241   240   ar
   839   241   243   ar
   840   435   434    1
   841   420   421    1
   842   420   422    1
   843   217   216   ar
   844  1429  1430   ar
   845  1429  1428   ar
   846   142   136   ar
   847   292   290    2
   848   421   425    1
   849   447   448   ar
   850   447   446   ar
   851   181   180   ar
   852   158   159    1
   853  1588  1589    1
   854  1588  1586    1
   855  1442  1443    1
   856  1601  1602    2
   857  1601  1587    1
   858  1601  1603    1
   859   279   280    1
   860   279   277    1
   861   674   675    2
   862   197   204   ar
   863   197   198   ar
   864  1029  1028    1
   865  1029  1033    1
   866  1329  1330    2
   867  1329  1331   ar
   868   290   291    1
   869   290   278    1
   870   240   247   ar
   871   667   669    1
   872   734   741   ar
   873   734   733    1
   874   272   270    2
   875   449   448   ar
   876   449   451   ar
   877   740   741   ar
   878   740   742    1
   879   238   237   ar
   880   221   220    1
   881   894   896    1
   882   894   895    1
   883   434   423    1
   884   434   437    1
   885   500   501    1
   886   500   497    1
   887   422   423    1
   888   422   424    1
   889  1028  1027    1
   890  1028  1030    1
   891   204   203   ar
   892  1332  1331   ar
   893   229   230    1
   894   280   276    1
   895   427   428    2
   896   476   475   ar
   897   476   467   ar
   898  1016  1015    2
   899  1430  1431   ar
   900  1600  1590   ar
   901  1600  1593   ar
   902   210   212    1
   903   210   211    1
   904   212   213    1
   905   212   214    1
   906   260   259   ar
   907   672   671    1
   908  1587  1586    1
   909   111   110    1
   910   718   717   ar
   911   718   720   ar
   912  1427  1426    1
   913  1427  1428    1
   914  1311  1312   ar
   915  1311  1310   ar
   916   468   467   ar
   917  1027  1026    1
   918   448   455   ar
   919  1443  1444    1
   920   134   135   ar
   921  1033  1032    1
   922  1033  1034    1
   923   697   696   ar
   924   697   699   ar
   925   277   278    1
   926   277   275    1
   927   177   178    1
   928   177   179   ar
   929   921   923   ar
   930   921   920   ar
   931   717   715   ar
   932   425   424    1
   933  1589  1590    1
   934  1589  1585    1
   935   219   220   ar
   936   219   225   ar
   937   266   267    1
   938   266   268   ar
   939  1594  1593   ar
   940  1594  1595    2
   941  1318  1317    1
   942  1428  1438   ar
   943   732   733    1
   944   732   730    1
   945   446   445   ar
   946   243   244   ar
   947   499   497    2
   948   139   137   ar
   949   269   259   ar
   950   269   268   ar
   951  1331  1333    1
   952   248   249    1
   953   248   251    1
   954   248   234    1
   955   695   696   ar
   956   695   694   ar
   957   684   682    2
   958   733   729    1
   959   669   671    1
   960   669   670    1
   961   487   486    1
   962   487   483    1
   963  1312  1313   ar
   964  1012  1013    1
   965  1012  1010    1
   966   486   484    1
   967  1456  1457   ar
   968  1456  1454   ar
   969   923   924   ar
   970  1013  1009    1
   971  1013  1014    1
   972   199   198    2
   973  1586  1584    1
   974   136   135   ar
   975   136   137   ar
   976   198   200   ar
   977   211   215    1
   978   220   222   ar
   979   908   906    2
   980   216   215    1
   981   216   225   ar
   982  1590  1591   ar
   983   180   179   ar
   984  1474  1473    2
   985  1032  1030    1
   986   451   452   ar
   987   467   466    1
   988  1310  1308   ar
   989   273   270    1
   990   273   274    1
   991   743   745    2
   992   743   744    1
   993   743   731    1
   994  1593  1592   ar
   995  1051  1050    1
   996  1051  1055    1
   997   112   110    1
   998   112   113    1
   999  1031  1030    1
  1000  1031  1045    1
  1001   895   906    1
  1002   484   485    1
  1003   484   482    1
  1004  1042  1041    1
  1005   696   702   ar
  1006   920   918   ar
  1007   251   252    1
  1008   247   237   ar
  1009   247   246   ar
  1010  1049  1050    1
  1011  1049  1048    1
  1012   259   258    1
  1013  1477  1475    1
  1014  1050  1052    1
  1015   270   271    1
  1016   270   256    1
  1017  1455  1454    1
  1018  1043  1041   ar
  1019  1043  1044   ar
  1020   237   236    1
  1021   497   485    1
  1022   497   498    1
  1023   699   700   ar
  1024  1009  1008    1
  1025   941   940    1
  1026   203   201   ar
  1027   458   456    2
  1028  1015  1014   ar
  1029  1015  1017   ar
  1030  1457  1450   ar
  1031   276   275    1
  1032  1315  1301    1
  1033  1315  1314    1
  1034   137   138    1
  1035   722   720    1
  1036   110   108    1
  1037   214   215    1
  1038  1317  1314    1
  1039  1431  1438   ar
  1040  1431  1432   ar
  1041   720   721   ar
  1042   233   234    1
  1043   233   235    1
  1044   233   231    1
  1045   225   224   ar
  1046   230   231    1
  1047   437   438    1
  1048  1008  1010    1
  1049  1008  1007    1
  1050  1302  1303    1
  1051  1302  1300    1
  1052   483   482    1
  1053  1011  1010    1
  1054  1011  1023    1
  1055  1454  1453   ar
  1056  1034  1044   ar
  1057  1034  1035   ar
  1058  1585  1584    1
  1059   670   682    1
  1060   438   439    1
  1061   275   274    1
  1062  1584  1583    1
  1063   715   716    2
  1064   715   714   ar
  1065   455   445   ar
  1066   455   454   ar
  1067  1041  1040   ar
  1068  1014  1021   ar
  1069  1026  1023    1
  1070  1438  1437   ar
  1071   924   917   ar
  1072   479   477    1
  1073   694   693   ar
  1074   116   115    2
  1075  1055  1054    1
  1076  1055  1056    1
  1077   244   246   ar
  1078   244   245    1
  1079   445   444    1
  1080   996   995    2
  1081  1460  1458    2
  1082  1444  1445    1
  1083  1444  1446    1
  1084  1044  1037   ar
  1085   730   731    1
  1086   730   728    1
  1087  1301  1300    1
  1088   200   201   ar
  1089   255   256    1
  1090   255   257    1
  1091   255   253    1
  1092  1313  1304   ar
  1093  1313  1307   ar
  1094  1473  1475   ar
  1095  1473  1472   ar
  1096  1048  1045    1
  1097   235   236    1
  1098   482   481    1
  1099   729   728    1
  1100   682   683    1
  1101   682   685    1
  1102   918   917   ar
  1103   918   919    2
  1104   481   480    1
  1105   906   907    1
  1106   906   909    1
  1107   222   223   ar
  1108  1445  1449    1
  1109  1017  1018   ar
  1110   201   202    1
  1111   231   232    1
  1112  1024  1023    2
  1113  1591  1592   ar
  1114   236   232    1
  1115   452   454   ar
  1116   452   453    1
  1117  1314  1316    1
  1118  1475  1476   ar
  1119  1303  1304    1
  1120  1303  1299    1
  1121  1054  1052    1
  1122  1308  1307   ar
  1123  1308  1309    1
  1124  1045  1046    2
  1125  1045  1047    1
  1126   252   253    1
  1127   108   107    1
  1128   108   109    1
  1129   466   465    1
  1130   466   462    1
  1131   940   939   ar
  1132   940   942   ar
  1133   917   916    1
  1134   465   463    1
  1135  1023  1025    1
  1136  1572  1571    2
  1137  1433  1432    2
  1138  1052  1053    1
  1139  1053  1067    1
  1140  1432  1434   ar
  1141   113   114    1
  1142   113   109    1
  1143   702   693   ar
  1144   702   701   ar
  1145   258   257    1
  1146   258   254    1
  1147   700   701   ar
  1148  1300  1298    1
  1149  1450  1449    1
  1150  1450  1451   ar
  1151  1446  1447    1
  1152  1446  1448    1
  1153  1007  1006    1
  1154  1035  1036   ar
  1155   456   459    1
  1156   456   442    1
  1157   456   457    1
  1158   721   714   ar
  1159   477   478    2
  1160   459   460    1
  1161   224   223   ar
  1162   480   464    1
  1163   115   114   ar
  1164   115   117   ar
  1165  1304  1305   ar
  1166   939   937   ar
  1167   463   464    1
  1168   463   461    1
  1169   714   713    1
  1170   254   253    1
  1171   440   439    1
  1172   440   444    1
  1173   728   727    1
  1174   439   441    1
  1175   441   442    1
  1176   441   443    1
  1177  1307  1306   ar
  1178  1040  1038   ar
  1179  1437  1435   ar
  1180   693   692    1
  1181  1453  1451   ar
  1182   909   910    1
  1183  1056  1057   ar
  1184  1056  1066   ar
  1185   995   997   ar
  1186   995   994   ar
  1187  1021  1020   ar
  1188   685   686    1
  1189  1447  1458    1
  1190  1553  1552    2
  1191   114   121   ar
  1192  1037  1036   ar
  1193  1037  1038   ar
  1194  1556  1555    1
  1195  1583  1582    1
  1196  1068  1067    2
  1197   107   106    1
  1198  1554  1552   ar
  1199  1554  1555   ar
  1200  1472  1470   ar
  1201   444   443    1
  1202  1449  1448    1
  1203   462   461    1
  1204  1298  1299    1
  1205  1298  1297    1
  1206   942   943   ar
  1207  1458  1459    1
  1208  1458  1461    1
  1209  1573  1571   ar
  1210  1573  1574   ar
  1211   997   998   ar
  1212   912   916    1
  1213   912   911    1
  1214  1057  1058   ar
  1215  1071  1070    1
  1216  1071  1072    1
  1217  1571  1570   ar
  1218  1451  1452    2
  1219   117   118   ar
  1220  1018  1020   ar
  1221  1018  1019    2
  1222  1067  1070    1
  1223  1067  1069    1
  1224   916   915    1
  1225  1476  1469   ar
  1226   960   959    1
  1227  1038  1039    2
  1228  1434  1435   ar
  1229  1552  1551   ar
  1230  1065  1066   ar
  1231  1065  1063   ar
  1232   461   460    1
  1233   976   975    2
  1234   992   993    1
  1235   992   990    1
  1236  1006  1003    1
  1237   705   703    2
  1238   993   994    1
  1239   993   989    1
  1240  1066  1059   ar
  1241  1435  1436    1
  1242  1555  1557   ar
  1243  1020  1022    1
  1244   910   911    1
  1245   106   103    1
  1246   937   938    2
  1247   937   936   ar
  1248  1582  1579    1
  1249  1305  1306   ar
  1250   726   727    1
  1251   726   723    1
  1252  1575  1574    2
  1253   994  1001   ar
  1254   977   975   ar
  1255   977   978   ar
  1256   121   120   ar
  1257   713   712    1
  1258   713   709    1
  1259  1072  1073    1
  1260  1072  1074    1
  1261  1461  1462    1
  1262  1574  1576   ar
  1263  1073  1077    1
  1264   979   978    2
  1265   943   936   ar
  1266   692   688    1
  1267   692   691    1
  1268  1058  1059   ar
  1269   911   913    1
  1270   958   959   ar
  1271   958   956   ar
  1272   118   120   ar
  1273   118   119    1
  1274   686   687    1
  1275  1470  1469   ar
  1276  1470  1471    2
  1277   712   710    1
  1278   975   974   ar
  1279   688   687    1
  1280   998   999    2
  1281   998  1000   ar
  1282  1534  1533    1
  1283  1480  1478    2
  1284  1568  1569    1
  1285  1568  1566    1
  1286   959   961   ar
  1287  1297  1296    1
  1288  1469  1468    1
  1289   725   723    2
  1290  1063  1064    1
  1291  1063  1062   ar
  1292  1059  1060   ar
  1293  1570  1569    1
  1294  1570  1577   ar
  1295   989   988    1
  1296   936   935    1
  1297   100    99    1
  1298   915   913    1
  1299   978   980   ar
  1300   689   687    1
  1301   689   691    1
  1302   689   690    1
  1303  1569  1565    1
  1304  1003   991    1
  1305  1003  1004    2
  1306  1003  1005    1
  1307   913   914    1
  1308   991   990    1
  1309   709   708    1
  1310   710   711    1
  1311   710   708    1
  1312   990   988    1
  1313  1551  1558   ar
  1314  1551  1550   ar
  1315  1557  1558   ar
  1316   723   711    1
  1317   723   724    1
  1318   703   706    1
  1319   703   690    1
  1320   703   704    1
  1321   706   707    1
  1322   957   956    2
  1323  1001  1000   ar
  1324  1296  1293    1
  1325   988   987    1
  1326   956   955   ar
  1327   104   103    2
  1328   103   105    1
  1329   103    89    1
  1330  1579  1567    1
  1331  1579  1581    2
  1332  1579  1580    1
  1333  1000  1002    1
  1334  1077  1078    1
  1335  1077  1076    1
  1336  1062  1060   ar
  1337  1501  1499    2
  1338  1576  1577   ar
  1339  1576  1578    1
  1340  1462  1463    1
  1341  1074  1075    1
  1342  1074  1076    1
  1343  1060  1061    2
  1344   927   925    2
  1345  1533  1532   ar
  1346  1533  1535   ar
  1347  1075  1089    1
  1348  1558  1548   ar
  1349   974   973    1
  1350   974   981   ar
  1351   961   962   ar
  1352  1532  1530   ar
  1353    99    98   ar
  1354    99   101   ar
  1355  1500  1499    1
  1356  1566  1567    1
  1357  1566  1564    1
  1358   708   707    1
  1359  1482  1481    1
  1360  1482  1483    1
  1361  1079  1078   ar
  1362  1079  1080   ar
  1363  1468  1464    1
  1364  1468  1467    1
  1365  1478  1481    1
  1366  1478  1466    1
  1367  1478  1479    1
  1368  1464  1463    1
  1369   935   931    1
  1370   935   934    1
  1371  1465  1463    1
  1372  1465  1467    1
  1373  1465  1466    1
  1374  1550  1549   ar
  1375  1078  1088   ar
  1376    98    96   ar
  1377   980   981   ar
  1378   980   982    1
  1379   973   972    1
  1380   973   969    1
  1381    89    88    1
  1382  1565  1564    1
  1383   101   102   ar
  1384   914   925    1
  1385   931   930    1
  1386  1499  1486    1
  1387  1499  1502    1
  1388   955   962   ar
  1389   955   954    1
  1390  1286  1285    2
  1391    90    88    1
  1392    90    91    1
  1393   972   970    1
  1394   928   925    1
  1395   928   929    1
  1396   987   986    1
  1397   925   926    1
  1398  1486  1485    1
  1399  1564  1563    1
  1400  1535  1536   ar
  1401  1080  1081   ar
  1402  1089  1090    2
  1403  1089  1091    1
  1404  1089  1092    1
  1405  1293  1295    2
  1406  1293  1281    1
  1407  1293  1294    1
  1408  1530  1531    2
  1409  1530  1529   ar
  1410   934   932    1
  1411  1548  1549   ar
  1412  1548  1547    1
  1413    96    97    2
  1414    96    95   ar
  1415  1282  1280    1
  1416  1282  1283    1
  1417  1483  1485    1
  1418  1483  1484    1
  1419    88    86    1
  1420  1088  1081   ar
  1421  1088  1087   ar
  1422   102    95   ar
  1423   102    92   ar
  1424   969   968    1
  1425  1281  1280    1
  1426  1285  1287   ar
  1427  1285  1284   ar
  1428  1485  1487    1
  1429   986   983    1
  1430  1081  1082   ar
  1431   954   953    1
  1432   954   950    1
  1433    95    94   ar
  1434  1087  1085   ar
  1435  1287  1288   ar
  1436   930   932    1
  1437   930   929    1
  1438   932   933    1
  1439    91    92    1
  1440    91    87    1
  1441  1502  1503    1
  1442  1092  1093    1
  1443    92    93   ar
  1444  1536  1529   ar
  1445  1547  1546    1
  1446  1547  1543    1
  1447  1546  1544    1
  1448  1280  1278    1
  1449  1283  1284    1
  1450  1283  1279    1
  1451  1529  1528    1
  1452  1093  1094    1
  1453   970   968    1
  1454   970   971    1
  1455  1563  1562    1
  1456  1484  1488    1
  1457  1284  1291   ar
  1458   953   951    1
  1459  1503  1504    1
  1460  1562  1559    1
  1461   968   967    1
  1462    86    87    1
  1463    86    85    1
  1464   950   949    1
  1465   946   944    2
  1466    94    93   ar
  1467  1288  1289    2
  1468  1288  1290   ar
  1469  1085  1084   ar
  1470  1085  1086    1
  1471  1082  1084   ar
  1472  1082  1083    2
  1473   971   983    1
  1474  1095  1094    1
  1475  1095  1099    1
  1476  1487  1488    1
  1477   983   985    2
  1478   983   984    1
  1479    16    15   ar
  1480    16    17   ar
  1481   933   944    1
  1482  1520  1518    2
  1483    20    19    2
  1484  1544  1545    1
  1485  1544  1542    1
  1486  1094  1096    1
  1487  1278  1279    1
  1488  1278  1277    1
  1489  1543  1542    1
  1490    21    19    1
  1491    76    75    1
  1492  1516  1517   ar
  1493  1516  1514   ar
  1494  1291  1290   ar
  1495  1101  1102   ar
  1496  1101  1100   ar
  1497    15    13   ar
  1498  1528  1527    1
  1499  1528  1524    1
  1500  1488  1489    1
  1501   947   944    1
  1502   947   948    1
  1503    85    84    1
  1504   951   949    1
  1505   951   952    1
  1506  1290  1292    1
  1507   944   945    1
  1508  1517  1510   ar
  1509   966   967    1
  1510   966   963    1
  1511    84    81    1
  1512    77    75   ar
  1513    77    78   ar
  1514  1561  1559    2
  1515    83    81    2
  1516    75    74   ar
  1517   949   948    1
  1518  1102  1103   ar
  1519    17    18   ar
  1520    19    22    1
  1521    19     6    1
  1522  1545  1559    1
  1523  1504  1505    1
  1524  1504  1506    1
  1525  1559  1560    1
  1526  1100  1099    1
  1527  1100  1110   ar
  1528  1527  1525    1
  1529  1490  1489   ar
  1530  1490  1491   ar
  1531  1542  1541    1
  1532  1099  1098    1
  1533  1515  1514    1
  1534  1489  1498   ar
  1535    78    79   ar
  1536  1524  1523    1
  1537    82    81    1
  1538  1505  1509    1
  1539    81    68    1
  1540  1506  1507    1
  1541  1506  1508    1
  1542  1514  1513   ar
  1543  1507  1518    1
  1544    74    73   ar
  1545    74    80   ar
  1546  1539  1537    2
  1547   965   963    2
  1548  1277  1276    1
  1549    13    14    1
  1550    13    12   ar
  1551  1518  1521    1
  1552  1518  1519    1
  1553  1521  1522    1
  1554  1096  1097    1
  1555  1096  1098    1
  1556   952   963    1
  1557    73    72   ar
  1558  1103  1110   ar
  1559  1103  1104   ar
  1560   963   964    1
  1561    79    80   ar
  1562  1525  1523    1
  1563  1525  1526    1
  1564  1110  1109   ar
  1565  1541  1540    1
  1566  1510  1509    1
  1567  1510  1511   ar
  1568  1276  1273    1
  1569    80    71   ar
  1570  1491  1492   ar
  1571    43    41    2
  1572    18    12   ar
  1573    18     9   ar
  1574     7     5    1
  1575     7     8    1
  1576    22    23    1
  1577     6     5    1
  1578  1097  1114    1
  1579  1274  1273    2
  1580    72    71   ar
  1581    69    67    1
  1582    69    70    1
  1583  1523  1522    1
  1584    23    24    1
  1585  1498  1492   ar
  1586  1498  1497   ar
  1587    57    56    1
  1588    12    11   ar
  1589  1509  1508    1
  1590    71    70    1
  1591    68    67    1
  1592  1540  1537    1
  1593  1104  1105    2
  1594  1104  1106   ar
  1595  1513  1511   ar
  1596     5     3    1
  1597  1109  1107   ar
  1598    67    65    1
  1599  1537  1526    1
  1600  1537  1538    1
  1601    32    31   ar
  1602    32    33   ar
  1603  1267  1266    2
  1604  1273  1275    1
  1605  1273  1262    1
  1606  1492  1493   ar
  1607  1511  1512    2
  1608  1268  1266   ar
  1609  1268  1269   ar
  1610    62    60    2
  1611  1497  1496   ar
  1612    42    41    1
  1613     9     8    1
  1614     9    10   ar
  1615  1270  1269    1
  1616    70    66    1
  1617     8     4    1
  1618    31    30   ar
  1619    41    27    1
  1620    41    44    1
  1621    58    56   ar
  1622    58    59   ar
  1623    56    55   ar
  1624  1111  1112    1
  1625  1111  1113    2
  1626  1266  1265   ar
  1627  1106  1107   ar
  1628  1107  1108    1
  1629    35    34    2
  1630  1269  1271   ar
  1631  1114  1115    1
  1632    11    10   ar
  1633  1263  1261    1
  1634  1263  1264    1
  1635    63    60    1
  1636    63    64    1
  1637    24    26    1
  1638    24    25    1
  1639  1262  1261    1
  1640    33    34   ar
  1641    33    40   ar
  1642    27    26    1
  1643    26    28    1
  1644    44    45    1
  1645  1493  1494    1
  1646  1493  1495   ar
  1647     3     4    1
  1648     3     2    1
  1649  1496  1495   ar
  1650    55    53   ar
  1651    25    29    1
  1652    59    52   ar
  1653    65    66    1
  1654    65    64    1
  1655    34    36   ar
  1656    60    61    1
  1657    60    49    1
  1658    30    40   ar
  1659    30    29    1
  1660  1261  1259    1
  1661  1265  1264    1
  1662  1265  1272   ar
  1663  1115  1116    1
  1664  1271  1272   ar
  1665  1124  1123   ar
  1666  1124  1125   ar
  1667  1264  1260    1
  1668  1123  1122   ar
  1669  1251  1250    1
  1670    40    39   ar
  1671  1117  1116    1
  1672  1117  1121    1
  1673    53    52   ar
  1674    53    54    2
  1675    52    51    1
  1676     2     1    1
  1677    29    28    1
  1678    45    46    1
  1679    48    49    1
  1680    48    50    1
  1681    48    46    1
  1682    36    37   ar
  1683  1116  1118    1
  1684  1249  1250   ar
  1685  1249  1247   ar
  1686  1127  1126    1
  1687  1122  1121    1
  1688  1122  1131   ar
  1689  1125  1126   ar
  1690  1125  1131   ar
  1691  1250  1252   ar
  1692  1259  1260    1
  1693  1259  1258    1
  1694  1121  1120    1
  1695    50    51    1
  1696    46    47    1
  1697    39    37   ar
  1698    51    47    1
  1699  1126  1128   ar
  1700    37    38    1
  1701  1131  1130   ar
  1702  1257  1258    1
  1703  1257  1254    1
  1704  1248  1247    2
  1705  1247  1246   ar
  1706  1252  1253   ar
  1707  1118  1120    1
  1708  1118  1119    1
  1709  1256  1254    2
  1710  1231  1230    2
  1711  1128  1129   ar
  1712  1130  1129   ar
  1713  1134  1132    2
  1714  1254  1255    1
  1715  1254  1243    1
  1716  1246  1253   ar
  1717  1246  1245    1
  1718  1119  1132    1
  1719  1234  1232    1
  1720  1230  1232   ar
  1721  1230  1229   ar
  1722  1244  1242    1
  1723  1244  1245    1
  1724  1132  1133    1
  1725  1132  1135    1
  1726  1232  1233   ar
  1727  1242  1243    1
  1728  1242  1240    1
  1729  1245  1241    1
  1730  1237  1235    2
  1731  1229  1227   ar
  1732  1148  1147    2
  1733  1145  1144   ar
  1734  1145  1146   ar
  1735  1233  1226   ar
  1736  1144  1143   ar
  1737  1238  1235    1
  1738  1238  1239    1
  1739  1147  1146   ar
  1740  1147  1149   ar
  1741  1135  1136    1
  1742  1241  1240    1
  1743  1146  1153   ar
  1744  1227  1226   ar
  1745  1227  1228    2
  1746  1240  1239    1
  1747  1235  1236    1
  1748  1235  1223    1
  1749  1226  1225    1
  1750  1217  1215    1
  1751  1217  1202    1
  1752  1143  1153   ar
  1753  1143  1142    1
  1754  1149  1150   ar
  1755  1138  1142    1
  1756  1138  1137    1
  1757  1153  1152   ar
  1758  1218  1215    1
  1759  1218  1219    1
  1760  1222  1223    1
  1761  1222  1224    1
  1762  1222  1220    1
  1763  1136  1137    1
  1764  1216  1215    1
  1765  1170  1169    1
  1766  1142  1141    1
  1767  1224  1225    1
  1768  1150  1152   ar
  1769  1150  1151    1
  1770  1225  1221    1
  1771  1202  1201    1
  1772  1219  1220    1
  1773  1171  1169    1
  1774  1171  1172    2
  1775  1137  1139    1
  1776  1169  1168    2
  1777  1221  1220    1
  1778  1172  1173    1
  1779  1168  1167    1
  1780  1168  1174    1
  1781  1139  1141    1
  1782  1139  1140    1
  1783  1167  1166    2
  1784  1188  1187    2
  1785  1173  1174    1
  1786  1173  1185    1
  1787  1201  1199    1
  1788  1201  1203    1
  1789  1174  1165    1
  1790  1199  1200    1
  1791  1199  1198    1
  1792  1166  1165    1
  1793  1203  1204    1
  1794  1165  1164    1
  1795  1204  1200    1
  1796  1204  1205    1
  1797  1187  1189   ar
  1798  1187  1186   ar
  1799  1185  1184    1
  1800  1185  1186    1
  1801  1185  1181    1
  1802  1140  1154    1
  1803  1184  1182    1
  1804  1164  1160    1
  1805  1164  1163    1
  1806  1156  1154    2
  1807  1198  1197    1
  1808  1189  1190   ar
  1809  1186  1193   ar
  1810  1181  1180    1
  1811  1213  1212   ar
  1812  1213  1214   ar
  1813  1160  1159    1
  1814  1154  1155    1
  1815  1154  1157    1
  1816  1212  1211   ar
  1817  1180  1182    1
  1818  1180  1179    1
  1819  1205  1214   ar
  1820  1205  1206   ar
  1821  1197  1194    1
  1822  1182  1183    1
  1823  1163  1161    1
  1824  1214  1208   ar
  1825  1183  1194    1
  1826  1190  1191    1
  1827  1190  1192   ar
  1828  1193  1192   ar
  1829  1157  1158    1
  1830  1159  1161    1
  1831  1159  1158    1
  1832  1211  1209   ar
  1833  1206  1207   ar
  1834  1179  1178    1
  1835  1161  1162    1
  1836  1194  1195    2
  1837  1194  1196    1
  1838  1208  1209   ar
  1839  1208  1207   ar
  1840  1178  1175    1
  1841  1209  1210    1
  1842  1162  1175    1
  1843  1175  1176    2
  1844  1175  1177    1
