@<TRIPOS>MOLECULE
dna.pdb
 1642 1849 0 0 0
SMALL
GASTEIGER

@<TRIPOS>ATOM
      1  O5'      -13.3690    7.3010  -16.5300 O.3     1  DA1        -0.2176
      2  C5'      -14.6470    6.8710  -16.0790 C.3     1  DA1         0.2140
      3  C4'      -15.2130    5.7660  -16.9390 C.3     1  DA1         0.1776
      4  O4'      -15.2280    6.1700  -18.3330 O.3     1  DA1        -0.3326
      5  C3'      -14.4510    4.4500  -16.9350 C.3     1  DA1         0.1559
      6  O3'      -14.7790    3.6360  -15.8210 O.3     1  DA1        -0.3138
      7  C2'      -14.8440    3.8210  -18.2700 C.3     1  DA1         0.0865
      8  C1'      -15.0280    5.0480  -19.1670 C.3     1  DA1         0.2094
      9  N9       -13.7840    5.4320  -20.0600 N.ar    1  DA1        -0.2714
     10  C8       -13.1100    6.6200  -20.1820 C.ar    1  DA1         0.1815
     11  N7       -12.1230    6.5820  -21.0450 N.ar    1  DA1        -0.2193
     12  C5       -12.1490    5.2810  -21.5220 C.ar    1  DA1         0.1518
     13  C6       -11.3560    4.6030  -22.4650 C.ar    1  DA1         0.1919
     14  N6       -10.3420    5.1700  -23.1220 N.pl3   1  DA1        -0.1054
     15  N1       -11.6460    3.3070  -22.7110 N.ar    1  DA1        -0.2040
     16  C2       -12.6640    2.7410  -22.0530 C.ar    1  DA1         0.2016
     17  N3       -13.4800    3.2740  -21.1470 N.ar    1  DA1        -0.2048
     18  C4       -13.1660    4.5610  -20.9240 C.ar    1  DA1         0.1691
     19  P        -13.6050    3.1550  -14.3800 P.3     2  DG2         0.2141
     20  OP1      -14.3770    2.4670  -13.3090 O.3     2  DG2        -0.4373
     21  OP2      -12.3920    3.9230  -14.0350 O.2     2  DG2        -0.5172
     22  O5'      -13.1790    2.1010  -15.4950 O.3     2  DG2        -0.3114
     23  C5'      -14.0190    0.9770  -15.8000 C.3     2  DG2         0.1811
     24  C4'      -13.3270    0.0410  -16.7620 C.3     2  DG2         0.1746
     25  O4'      -13.2000    0.6600  -18.0640 O.3     2  DG2        -0.3327
     26  C3'      -11.9130   -0.4010  -16.4250 C.3     2  DG2         0.1558
     27  O3'      -11.8980   -1.4570  -15.4690 O.3     2  DG2        -0.3138
     28  C2'      -11.3950   -0.8640  -17.7780 C.3     2  DG2         0.0865
     29  C1'      -12.0660    0.1320  -18.7300 C.3     2  DG2         0.2093
     30  N9       -11.1980    1.2370  -19.1680 N.ar    2  DG2        -0.2728
     31  C8       -11.1440    2.5400  -18.7350 C.ar    2  DG2         0.1814
     32  N7       -10.1880    3.2300  -19.2940 N.ar    2  DG2        -0.2177
     33  C5        -9.5730    2.3340  -20.1490 C.ar    2  DG2         0.1711
     34  C6        -8.4690    2.5020  -21.0240 C.2     2  DG2         0.2985
     35  O6        -7.7950    3.5210  -21.2200 O.2     2  DG2        -0.2655
     36  N1        -8.1680    1.3300  -21.7120 N.am    2  DG2        -0.1069
     37  C2        -8.8460    0.1430  -21.5750 C.1     2  DG2         0.1061
     38  N2        -8.4090   -0.8780  -22.3250 N.2     2  DG2        -0.1889
     39  N3        -9.8730   -0.0290  -20.7660 N.pl3   2  DG2        -0.1285
     40  C4       -10.1830    1.0960  -20.0860 C.ar    2  DG2         0.1687
     41  P        -10.5880   -1.6300  -14.3310 P.3     3  DC3         0.2141
     42  OP1      -10.6870   -2.5270  -13.1480 O.3     3  DC3        -0.4373
     43  OP2      -10.1430   -0.2220  -14.1550 O.2     3  DC3        -0.5172
     44  O5'       -9.6180   -2.2860  -15.4170 O.3     3  DC3        -0.3114
     45  C5'       -9.7750   -3.6430  -15.8120 C.3     3  DC3         0.1811
     46  C4'       -8.8380   -3.9710  -16.9580 C.3     3  DC3         0.1744
     47  O4'       -9.1670   -3.1390  -18.1070 O.3     3  DC3        -0.3348
     48  C3'       -7.3580   -3.6800  -16.7370 C.3     3  DC3         0.1555
     49  O3'       -6.7070   -4.6840  -15.9700 O.3     3  DC3        -0.3139
     50  C2'       -6.8480   -3.6430  -18.1690 C.3     3  DC3         0.0836
     51  C1'       -7.9780   -2.8680  -18.8450 C.3     3  DC3         0.2000
     52  N1        -7.7090   -1.4170  -18.8300 N.pl3   3  DC3        -0.2128
     53  C2        -6.7470   -0.9250  -19.7190 C.2     3  DC3         0.4385
     54  O2        -6.1530   -1.7260  -20.4600 O.2     3  DC3        -0.2625
     55  N3        -6.4910    0.4050  -19.7440 N.2     3  DC3         0.0241
     56  C4        -7.1530    1.2270  -18.9290 C.2     3  DC3         0.4172
     57  N4        -6.8670    2.5300  -18.9890 N.pl3   3  DC3         0.2162
     58  C5        -8.1320    0.7480  -18.0210 C.2     3  DC3         0.0937
     59  C6        -8.3810   -0.5660  -17.9990 C.3     3  DC3         0.1340
     60  P         -6.0430   -4.3250  -14.6250 P.3     4  DA4         0.2141
     61  OP1       -5.8840   -5.4650  -13.6910 O.3     4  DA4        -0.4373
     62  OP2       -6.2310   -2.9480  -14.0910 O.2     4  DA4        -0.5172
     63  O5'       -4.7790   -4.3100  -15.5940 O.3     4  DA4        -0.3114
     64  C5'       -4.1780   -5.5320  -16.0340 C.3     4  DA4         0.1811
     65  C4'       -2.8380   -5.2590  -16.6750 C.3     4  DA4         0.1746
     66  O4'       -3.0050   -4.4010  -17.8350 O.3     4  DA4        -0.3327
     67  C3'       -1.8280   -4.5360  -15.8060 C.3     4  DA4         0.1558
     68  O3'       -1.1190   -5.4560  -15.0020 O.3     4  DA4        -0.3138
     69  C2'       -0.9130   -3.8870  -16.8310 C.3     4  DA4         0.0865
     70  C1'       -1.8930   -3.5310  -17.9470 C.3     4  DA4         0.2094
     71  N9        -2.3450   -2.1920  -17.8080 N.ar    4  DA4        -0.2714
     72  C8        -3.3060   -1.6990  -16.9640 C.ar    4  DA4         0.1815
     73  N7        -3.3050   -0.3910  -16.8670 N.ar    4  DA4        -0.2193
     74  C5        -2.2720    0.0030  -17.7030 C.ar    4  DA4         0.1518
     75  C6        -1.7570    1.2670  -18.0400 C.ar    4  DA4         0.1919
     76  N6        -2.2360    2.4140  -17.5540 N.pl3   4  DA4        -0.1054
     77  N1        -0.7200    1.3110  -18.9040 N.ar    4  DA4        -0.2040
     78  C2        -0.2410    0.1610  -19.3920 C.ar    4  DA4         0.2016
     79  N3        -0.6410   -1.0860  -19.1510 N.ar    4  DA4        -0.2048
     80  C4        -1.6710   -1.0960  -18.2880 C.ar    4  DA4         0.1691
     81  P         -0.5980   -4.9980  -13.5140 P.3     5  DG5         0.2141
     82  OP1       -0.0820   -6.1960  -12.7980 O.3     5  DG5        -0.4373
     83  OP2       -1.7260   -4.2340  -12.9340 O.2     5  DG5        -0.5172
     84  O5'        0.5880   -3.9650  -13.7390 O.3     5  DG5        -0.3114
     85  C5'        1.7810   -4.3350  -14.4210 C.3     5  DG5         0.1811
     86  C4'        2.6570   -3.1200  -14.6070 C.3     5  DG5         0.1746
     87  O4'        2.0680   -2.2500  -15.6120 O.3     5  DG5        -0.3327
     88  C3'        2.7700   -2.2430  -13.3700 C.3     5  DG5         0.1558
     89  O3'        3.7330   -2.7120  -12.4340 O.3     5  DG5        -0.3138
     90  C2'        3.0800   -0.8770  -13.9680 C.3     5  DG5         0.0865
     91  C1'        2.1920   -0.8880  -15.2130 C.3     5  DG5         0.2094
     92  N9         0.8040   -0.3700  -15.0260 N.ar    5  DG5        -0.2713
     93  C8        -0.3130   -1.0110  -14.5470 C.ar    5  DG5         0.1816
     94  N7        -1.2820   -0.1950  -14.2330 N.ar    5  DG5        -0.2173
     95  C5        -0.7790    1.0600  -14.5220 C.ar    5  DG5         0.1748
     96  C6        -1.3680    2.3440  -14.3870 C.ar    5  DG5         0.3023
     97  O6        -2.4970    2.6290  -13.9700 O.2     5  DG5        -0.2633
     98  N1        -0.5050    3.3580  -14.7960 N.ar    5  DG5        -0.1709
     99  C2         0.7670    3.1590  -15.2750 C.ar    5  DG5         0.2606
    100  N2         1.4470    4.2610  -15.6210 N.pl3   5  DG5        -0.0859
    101  N3         1.3280    1.9730  -15.4050 N.ar    5  DG5        -0.1918
    102  C4         0.5100    0.9740  -15.0130 C.ar    5  DG5         0.1722
    103  P          3.8060   -2.1010  -10.9760 P.3     6  DC6         0.2141
    104  OP1        4.8220   -2.8280  -10.1740 O.3     6  DC6        -0.4373
    105  OP2        2.3680   -2.2150  -10.6190 O.2     6  DC6        -0.5172
    106  O5'        4.2090   -0.5610  -10.9820 O.3     6  DC6        -0.3114
    107  C5'        5.4700   -0.1440  -11.5340 C.3     6  DC6         0.1811
    108  C4'        5.5670    1.3630  -11.5750 C.3     6  DC6         0.1746
    109  O4'        4.5250    1.9210  -12.4190 O.3     6  DC6        -0.3327
    110  C3'        5.3990    2.0730  -10.2440 C.3     6  DC6         0.1558
    111  O3'        6.6070    2.0780   -9.4980 O.3     6  DC6        -0.3138
    112  C2'        4.9730    3.4710  -10.6680 C.3     6  DC6         0.0866
    113  C1'        4.1120    3.1740  -11.8960 C.3     6  DC6         0.2106
    114  N1         2.7170    3.1420  -11.5640 N.ar    6  DC6        -0.2556
    115  C2         1.9890    4.3340  -11.4800 C.ar    6  DC6         0.3531
    116  O2         2.5910    5.4130  -11.6110 O.2     6  DC6        -0.2443
    117  N3         0.6540    4.2760  -11.2570 N.ar    6  DC6        -0.1739
    118  C4         0.0510    3.0950  -11.1210 C.ar    6  DC6         0.1759
    119  N4        -1.2670    3.0880  -10.9020 N.pl3   6  DC6        -0.1070
    120  C5         0.7710    1.8760  -11.2030 C.ar    6  DC6         0.0566
    121  C6         2.0890    1.9370  -11.4240 C.ar    6  DC6         0.0849
    122  P          6.4710    2.0470   -8.1030 P.3     7  DA7         0.2141
    123  OP1        7.8090    1.5660   -7.6860 O.3     7  DA7        -0.4373
    124  OP2        5.2640    1.2600   -7.7560 O.2     7  DA7        -0.5172
    125  O5'        6.1680    3.4940   -7.4740 O.3     7  DA7        -0.3114
    126  C5'        7.1120    4.5560   -7.5460 C.3     7  DA7         0.1811
    127  C4'        6.4670    5.9230   -7.6220 C.3     7  DA7         0.1746
    128  O4'        5.3890    5.9270   -8.6000 O.3     7  DA7        -0.3327
    129  C3'        5.7660    6.4330   -6.3730 C.3     7  DA7         0.1558
    130  O3'        6.6210    6.8780   -5.3390 O.3     7  DA7        -0.3138
    131  C2'        4.8890    7.5330   -6.9490 C.3     7  DA7         0.0865
    132  C1'        4.3600    6.8010   -8.1760 C.3     7  DA7         0.2094
    133  N9         3.1450    5.8460   -7.8490 N.ar    7  DA7        -0.2714
    134  C8         3.1600    4.4750   -7.8420 C.ar    7  DA7         0.1815
    135  N7         1.9730    3.9340   -7.7010 N.ar    7  DA7        -0.2193
    136  C5         1.1210    5.0230   -7.6080 C.ar    7  DA7         0.1518
    137  C6        -0.2730    5.1230   -7.4470 C.ar    7  DA7         0.1919
    138  N6        -1.0830    4.0670   -7.3490 N.pl3   7  DA7        -0.1054
    139  N1        -0.8100    6.3610   -7.3910 N.ar    7  DA7        -0.2040
    140  C2         0.0030    7.4190   -7.4900 C.ar    7  DA7         0.2016
    141  N3         1.3250    7.4520   -7.6450 N.ar    7  DA7        -0.2048
    142  C4         1.8280    6.2070   -7.6960 C.ar    7  DA7         0.1691
    143  P          6.4750    6.1140   -4.2380 P.3     8  DC8         0.2141
    144  OP1        7.7340    5.4480   -3.8140 O.3     8  DC8        -0.4373
    145  OP2        5.1740    5.4490   -3.9810 O.2     8  DC8        -0.5172
    146  O5'        6.4250    7.5500   -3.5570 O.3     8  DC8        -0.3114
    147  C5'        5.4430    7.8570   -2.5820 C.3     8  DC8         0.1811
    148  C4'        4.4680    8.8650   -3.1330 C.3     8  DC8         0.1746
    149  O4'        3.8260    8.3040   -4.3150 O.3     8  DC8        -0.3327
    150  C3'        3.3040    9.1860   -2.2150 C.3     8  DC8         0.1558
    151  O3'        3.6200   10.1570   -1.2330 O.3     8  DC8        -0.3138
    152  C2'        2.2640    9.6750   -3.2050 C.3     8  DC8         0.0866
    153  C1'        2.4450    8.6430   -4.3130 C.3     8  DC8         0.2106
    154  N1         1.4480    7.4730   -3.9870 N.ar    8  DC8        -0.2556
    155  C2         0.0610    7.5970   -4.1250 C.ar    8  DC8         0.3531
    156  O2        -0.4330    8.7350   -4.1970 O.2     8  DC8        -0.2443
    157  N3        -0.6990    6.4780   -4.1750 N.ar    8  DC8        -0.1739
    158  C4        -0.1250    5.2770   -4.0930 C.ar    8  DC8         0.1759
    159  N4        -0.9150    4.2020   -4.1460 N.pl3   8  DC8        -0.1070
    160  C5         1.2790    5.1300   -3.9530 C.ar    8  DC8         0.0566
    161  C6         2.0260    6.2380   -3.9040 C.ar    8  DC8         0.0849
    162  P          3.1720    9.8430    0.0850 P.3     9  DA9         0.2141
    163  OP1        3.5390   10.9070    1.0650 O.3     9  DA9        -0.4373
    164  OP2        3.5590    8.4190    0.3480 O.2     9  DA9        -0.5172
    165  O5'        1.5920    9.8980   -0.0870 O.3     9  DA9        -0.3114
    166  C5'        0.9320   11.1350   -0.2970 C.3     9  DA9         0.1811
    167  C4'       -0.5430   10.9590   -0.0960 C.3     9  DA9         0.1746
    168  O4'       -1.0940   10.1870   -1.1880 O.3     9  DA9        -0.3327
    169  C3'       -0.9110   10.1790    1.1500 C.3     9  DA9         0.1558
    170  O3'       -0.9570   11.0150    2.3000 O.3     9  DA9        -0.3138
    171  C2'       -2.2700    9.6040    0.7970 C.3     9  DA9         0.0865
    172  C1'       -2.1170    9.3400   -0.7010 C.3     9  DA9         0.2094
    173  N9        -1.7110    7.9040   -0.9560 N.ar    9  DA9        -0.2714
    174  C8        -0.4730    7.3360   -1.1030 C.ar    9  DA9         0.1815
    175  N7        -0.5020    6.0320   -1.2430 N.ar    9  DA9        -0.2193
    176  C5        -1.8520    5.7230   -1.1840 C.ar    9  DA9         0.1518
    177  C6        -2.5480    4.5040   -1.2700 C.ar    9  DA9         0.1919
    178  N6        -1.9510    3.3220   -1.4420 N.pl3   9  DA9        -0.1054
    179  N1        -3.8940    4.5430   -1.1720 N.ar    9  DA9        -0.2040
    180  C2        -4.4910    5.7270   -1.0000 C.ar    9  DA9         0.2016
    181  N3        -3.9460    6.9380   -0.9060 N.ar    9  DA9        -0.2048
    182  C4        -2.6090    6.8650   -1.0060 C.ar    9  DA9         0.1691
    183  P         -0.6090   10.3340    3.8310 P.3    10  DG10        0.2141
    184  OP1       -0.3560   11.4300    4.8060 O.3    10  DG10       -0.4373
    185  OP2        0.5420    9.6250    3.2140 O.2    10  DG10       -0.5172
    186  O5'       -1.5770    9.2620    4.5140 O.3    10  DG10       -0.3114
    187  C5'       -2.6510    9.6880    5.3820 C.3    10  DG10        0.1811
    188  C4'       -3.7600    8.6540    5.4420 C.3    10  DG10        0.1746
    189  O4'       -4.1390    8.2600    4.0960 O.3    10  DG10       -0.3327
    190  C3'       -3.4870    7.3480    6.1740 C.3    10  DG10        0.1558
    191  O3'       -3.7460    7.4950    7.5630 O.3    10  DG10       -0.3138
    192  C2'       -4.5070    6.4060    5.5490 C.3    10  DG10        0.0865
    193  C1'       -4.5750    6.9110    4.1030 C.3    10  DG10        0.2094
    194  N9        -3.6250    6.1780    3.2600 N.ar   10  DG10       -0.2713
    195  C8        -2.3250    6.5180    2.9760 C.ar   10  DG10        0.1816
    196  N7        -1.6840    5.5970    2.3110 N.ar   10  DG10       -0.2173
    197  C5        -2.6140    4.5870    2.1410 C.ar   10  DG10        0.1748
    198  C6        -2.5030    3.3280    1.4970 C.ar   10  DG10        0.3023
    199  O6        -1.5170    2.8450    0.9260 O.2    10  DG10       -0.2633
    200  N1        -3.6910    2.6060    1.5560 N.ar   10  DG10       -0.1709
    201  C2        -4.8450    3.0430    2.1620 C.ar   10  DG10        0.2606
    202  N2        -5.8900    2.2050    2.1160 N.pl3  10  DG10       -0.0859
    203  N3        -4.9630    4.2090    2.7660 N.ar   10  DG10       -0.1918
    204  C4        -3.8210    4.9270    2.7210 C.ar   10  DG10        0.1722
    205  P         -3.6840    6.2530    8.3850 P.3    11  DA11        0.2141
    206  OP1       -3.6220    6.0220    9.8510 O.3    11  DA11       -0.4373
    207  OP2       -2.7190    5.5520    7.4960 O.2    11  DA11       -0.5172
    208  O5'       -5.1640    5.9050    7.8960 O.3    11  DA11       -0.3114
    209  C5'       -5.8130    4.7150    8.3740 C.3    11  DA11        0.1811
    210  C4'       -6.5470    3.9980    7.2650 C.3    11  DA11        0.1746
    211  O4'       -5.9050    4.1790    5.9780 O.3    11  DA11       -0.3327
    212  C3'       -6.5220    2.5060    7.5070 C.3    11  DA11        0.1558
    213  O3'       -7.5440    2.1350    8.3990 O.3    11  DA11       -0.3138
    214  C2'       -6.6290    1.9120    6.1110 C.3    11  DA11        0.0865
    215  C1'       -5.8550    2.9390    5.2780 C.3    11  DA11        0.2094
    216  N9        -4.5130    2.4200    5.2620 N.ar   11  DA11       -0.2714
    217  C8        -3.4100    3.1960    5.5020 C.ar   11  DA11        0.1815
    218  N7        -2.2930    2.6850    5.0400 N.ar   11  DA11       -0.2193
    219  C5        -2.6910    1.4920    4.4580 C.ar   11  DA11        0.1518
    220  C6        -1.9770    0.4810    3.7900 C.ar   11  DA11        0.1919
    221  N6        -0.6570    0.5170    3.5900 N.pl3  11  DA11       -0.1054
    222  N1        -2.6740   -0.5800    3.3310 N.ar   11  DA11       -0.2040
    223  C2        -3.9970   -0.6140    3.5310 C.ar   11  DA11        0.2016
    224  N3        -4.7780    0.2740    4.1420 N.ar   11  DA11       -0.2048
    225  C4        -4.0550    1.3140    4.5870 C.ar   11  DA11        0.1691
    226  P         -7.1160    1.4270    9.7000 P.3    12  DG12        0.2141
    227  OP1       -7.9980    1.5950   10.8850 O.3    12  DG12       -0.4373
    228  OP2       -5.7510    2.0120    9.7080 O.2    12  DG12       -0.5172
    229  O5'       -6.9150   -0.1240    9.3980 O.3    12  DG12       -0.3114
    230  C5'       -7.9850   -0.9300    8.9110 C.3    12  DG12        0.1811
    231  C4'       -7.4410   -2.1800    8.2500 C.3    12  DG12        0.1746
    232  O4'       -6.7880   -1.8270    6.9990 O.3    12  DG12       -0.3327
    233  C3'       -6.3760   -2.9470    9.0230 C.3    12  DG12        0.1558
    234  O3'       -6.8660   -3.8290   10.0280 O.3    12  DG12       -0.3138
    235  C2'       -5.6390   -3.7060    7.9250 C.3    12  DG12        0.0865
    236  C1'       -5.7070   -2.7140    6.7620 C.3    12  DG12        0.2094
    237  N9        -4.4700   -1.9530    6.6720 N.ar   12  DG12       -0.2713
    238  C8        -4.2170   -0.6460    7.0100 C.ar   12  DG12        0.1816
    239  N7        -2.9620   -0.3120    6.8730 N.ar   12  DG12       -0.2173
    240  C5        -2.3490   -1.4640    6.4160 C.ar   12  DG12        0.1748
    241  C6        -0.9930   -1.7200    6.0880 C.ar   12  DG12        0.3023
    242  O6        -0.0320   -0.9420    6.1390 O.2    12  DG12       -0.2633
    243  N1        -0.7980   -3.0310    5.6640 N.ar   12  DG12       -0.1709
    244  C2        -1.7880   -3.9800    5.5680 C.ar   12  DG12        0.2606
    245  N2        -1.4080   -5.1900    5.1370 N.pl3  12  DG12       -0.0859
    246  N3        -3.0520   -3.7570    5.8700 N.ar   12  DG12       -0.1918
    247  C4        -3.2650   -2.4900    6.2850 C.ar   12  DG12        0.1722
    248  P         -5.8500   -4.4590   11.0830 P.3    13  DG13        0.2141
    249  OP1       -6.6490   -5.2980   12.0030 O.3    13  DG13       -0.4373
    250  OP2       -5.4730   -3.0790   11.4620 O.2    13  DG13       -0.5172
    251  O5'       -4.4470   -5.1720   10.7960 O.3    13  DG13       -0.3114
    252  C5'       -4.3930   -6.5400   10.4240 C.3    13  DG13        0.1811
    253  C4'       -3.0240   -6.9040    9.9120 C.3    13  DG13        0.1746
    254  O4'       -2.6260   -5.9370    8.9050 O.3    13  DG13       -0.3327
    255  C3'       -1.8940   -6.8650   10.9330 C.3    13  DG13        0.1558
    256  O3'       -1.8120   -8.0450   11.7190 O.3    13  DG13       -0.3138
    257  C2'       -0.6710   -6.6290   10.0560 C.3    13  DG13        0.0865
    258  C1'       -1.2320   -5.7160    8.9650 C.3    13  DG13        0.2093
    259  N9        -1.0030   -4.2670    9.1510 N.ar   13  DG13       -0.2728
    260  C8        -1.9410   -3.2700    9.2700 C.ar   13  DG13        0.1814
    261  N7        -1.4170   -2.0790    9.3620 N.ar   13  DG13       -0.2177
    262  C5        -0.0530   -2.2970    9.2980 C.ar   13  DG13        0.1711
    263  C6         1.0320   -1.3850    9.3490 C.2    13  DG13        0.2986
    264  O6         0.9920   -0.1530    9.4630 O.2    13  DG13       -0.2655
    265  N1         2.2610   -2.0310    9.2520 N.am   13  DG13       -0.1040
    266  C2         2.4250   -3.3890    9.1220 C.1    13  DG13        0.1480
    267  N2         3.6890   -3.8270    9.0410 N.2    13  DG13       -0.0125
    268  N3         1.4270   -4.2500    9.0740 N.pl3  13  DG13       -0.1257
    269  C4         0.2240   -3.6450    9.1680 C.ar   13  DG13        0.1688
    270  P         -0.9810   -8.0770   13.1710 P.3    14  DT14        0.2141
    271  OP1       -0.8760   -9.5340   13.4190 O.2    14  DT14       -0.5172
    272  OP2       -1.8080   -7.2130   14.0470 O.3    14  DT14       -0.4373
    273  O5'        0.5060   -7.4770   13.1170 O.3    14  DT14       -0.3114
    274  C5'        1.5770   -8.1850   12.4820 C.3    14  DT14        0.1811
    275  C4'        2.8480   -7.3480   12.3970 C.3    14  DT14        0.1746
    276  O4'        2.6270   -6.1900   11.5460 O.3    14  DT14       -0.3327
    277  C3'        3.3610   -6.7520   13.7060 C.3    14  DT14        0.1558
    278  O3'        4.0910   -7.7030   14.4890 O.3    14  DT14       -0.3138
    279  C2'        4.2450   -5.6340   13.1720 C.3    14  DT14        0.0866
    280  C1'        3.3780   -5.0940   12.0360 C.3    14  DT14        0.2106
    281  N1         2.4930   -4.0020   12.5380 N.ar   14  DT14       -0.2559
    282  C2         3.0400   -2.7370   12.6340 C.ar   14  DT14        0.3545
    283  O2         4.2100   -2.4990   12.3910 O.2    14  DT14       -0.2443
    284  N3         2.1650   -1.7540   13.0290 N.ar   14  DT14       -0.1533
    285  C4         0.8270   -1.9060   13.3300 C.ar   14  DT14        0.2804
    286  O4         0.1680   -0.9260   13.6690 O.2    14  DT14       -0.2654
    287  C5         0.3340   -3.2490   13.2070 C.ar   14  DT14        0.0534
    288  C6         1.1640   -4.2240   12.8260 C.ar   14  DT14        0.0824
    289  C7        -1.1100   -3.5170   13.5130 C.3    14  DT14        0.0377
    290  P          4.2610   -7.5720   16.0670 P.3    15  DC15        0.2141
    291  OP1        4.8770   -8.6420   16.8950 O.3    15  DC15       -0.4373
    292  OP2        2.9190   -7.0430   16.4260 O.2    15  DC15       -0.5172
    293  O5'        5.2760   -6.3510   16.0040 O.3    15  DC15       -0.3114
    294  C5'        6.6460   -6.5540   15.6700 C.3    15  DC15        0.1811
    295  C4'        7.4170   -5.2870   15.9210 C.3    15  DC15        0.1746
    296  O4'        7.0200   -4.2940   14.9400 O.3    15  DC15       -0.3327
    297  C3'        7.1490   -4.6200   17.2600 C.3    15  DC15        0.1558
    298  O3'        7.8910   -5.1890   18.3270 O.3    15  DC15       -0.3138
    299  C2'        7.5250   -3.1780   16.9660 C.3    15  DC15        0.0866
    300  C1'        6.9540   -3.0180   15.5570 C.3    15  DC15        0.2106
    301  N1         5.4160   -2.5750   15.6960 N.ar   15  DC15       -0.2556
    302  C2         5.2010   -1.2170   15.9590 C.ar   15  DC15        0.3531
    303  O2         6.1860   -0.4790   16.1350 O.2    15  DC15       -0.2443
    304  N3         3.9310   -0.7490   16.0150 N.ar   15  DC15       -0.1739
    305  C4         2.9060   -1.5780   15.8200 C.ar   15  DC15        0.1759
    306  N4         1.6720   -1.0720   15.8840 N.pl3  15  DC15       -0.1070
    307  C5         3.1020   -2.9570   15.5520 C.ar   15  DC15        0.0566
    308  C6         4.3580   -3.4150   15.4980 C.ar   15  DC15        0.0849
    309  P          7.0390   -5.8660   19.3780 P.3    16  DA16        0.2141
    310  OP1        8.1240   -6.7210   19.9360 O.3    16  DA16       -0.4373
    311  OP2        5.6270   -6.3330   19.3810 O.2    16  DA16       -0.5172
    312  O5'        7.0920   -4.4390   20.0700 O.3    16  DA16       -0.3114
    313  C5'        8.3260   -3.8330   20.3970 C.3    16  DA16        0.1811
    314  C4'        8.0720   -2.4590   20.9550 C.3    16  DA16        0.1746
    315  O4'        7.5050   -1.6320   19.9000 O.3    16  DA16       -0.3327
    316  C3'        7.0490   -2.4060   22.0860 C.3    16  DA16        0.1558
    317  O3'        7.6040   -2.6680   23.3770 O.3    16  DA16       -0.3138
    318  C2'        6.5060   -0.9940   21.9740 C.3    16  DA16        0.0865
    319  C1'        6.5430   -0.7530   20.4600 C.3    16  DA16        0.2094
    320  N9         5.2710   -1.0630   19.8270 N.ar   16  DA16       -0.2714
    321  C8         4.8520   -2.2150   19.2140 C.ar   16  DA16        0.1815
    322  N7         3.6110   -2.1680   18.7900 N.ar   16  DA16       -0.2193
    323  C5         3.1860   -0.8990   19.1500 C.ar   16  DA16        0.1518
    324  C6         1.9610   -0.2290   18.9830 C.ar   16  DA16        0.1919
    325  N6         0.8980   -0.7700   18.3830 N.pl3  16  DA16       -0.1054
    326  N1         1.8660    1.0310   19.4590 N.ar   16  DA16       -0.2040
    327  C2         2.9320    1.5730   20.0590 C.ar   16  DA16        0.2016
    328  N3         4.1350    1.0440   20.2740 N.ar   16  DA16       -0.2048
    329  C4         4.1960   -0.2080   19.7910 C.ar   16  DA16        0.1691
    330  P          6.6240   -3.3180   24.5700 P.3    17  DG17        0.2141
    331  OP1        7.9420   -3.7000   25.1300 O.3    17  DG17       -0.4373
    332  OP2        5.5290   -4.3130   24.4920 O.2    17  DG17       -0.5172
    333  O5'        5.9910   -2.0940   25.3910 O.3    17  DG17       -0.3114
    334  C5'        6.8010   -0.9710   25.7140 C.3    17  DG17        0.1811
    335  C4'        6.1180    0.3500   25.4450 C.3    17  DG17        0.1746
    336  O4'        5.6640    0.4270   24.0680 O.3    17  DG17       -0.3327
    337  C3'        4.8680    0.6570   26.2540 C.3    17  DG17        0.1558
    338  O3'        5.1520    1.0900   27.5730 O.3    17  DG17       -0.3138
    339  C2'        4.1970    1.7280   25.4020 C.3    17  DG17        0.0865
    340  C1'        4.4990    1.2220   23.9910 C.3    17  DG17        0.2094
    341  N9         3.3850    0.4420   23.3860 N.ar   17  DG17       -0.2713
    342  C8         3.2860   -0.8810   23.0300 C.ar   17  DG17        0.1816
    343  N7         2.1030   -1.2080   22.5850 N.ar   17  DG17       -0.2173
    344  C5         1.3770   -0.0330   22.6470 C.ar   17  DG17        0.1748
    345  C6         0.0290    0.2390   22.2990 C.ar   17  DG17        0.3023
    346  O6        -0.8190   -0.5420   21.8480 O.2    17  DG17       -0.2633
    347  N1        -0.3080    1.5720   22.5220 N.ar   17  DG17       -0.1709
    348  C2         0.5490    2.5250   23.0180 C.ar   17  DG17        0.2606
    349  N2         0.0430    3.7570   23.1620 N.pl3  17  DG17       -0.0859
    350  N3         1.8040    2.2870   23.3460 N.ar   17  DG17       -0.1918
    351  C4         2.1520    0.9990   23.1400 C.ar   17  DG17        0.1722
    352  P          4.1260    0.6640   28.9760 P.3    18  DA18        0.2141
    353  OP1        5.1610    0.6620   30.0550 O.3    18  DA18       -0.4373
    354  OP2        3.3520   -0.5740   28.6800 O.2    18  DA18       -0.5172
    355  O5'        3.0770    1.8030   29.2940 O.3    18  DA18       -0.3114
    356  C5'        3.2800    3.1060   28.7990 C.3    18  DA18        0.1811
    357  C4'        1.9780    3.6870   28.3440 C.3    18  DA18        0.1746
    358  O4'        1.6970    3.4040   26.9450 O.3    18  DA18       -0.3327
    359  C3'        0.7390    3.1700   29.0270 C.3    18  DA18        0.1558
    360  O3'        0.6310    3.5880   30.3700 O.3    18  DA18       -0.3138
    361  C2'       -0.3480    3.6900   28.0970 C.3    18  DA18        0.0865
    362  C1'        0.2910    3.4590   26.7320 C.3    18  DA18        0.2094
    363  N9        -0.0980    2.2410   26.1180 N.ar   18  DA18       -0.2714
    364  C8         0.5850    1.0530   26.1050 C.ar   18  DA18        0.1815
    365  N7        -0.0560    0.0800   25.5010 N.ar   18  DA18       -0.2193
    366  C5        -1.2410    0.6690   25.0900 C.ar   18  DA18        0.1518
    367  C6        -2.3540    0.1680   24.3920 C.ar   18  DA18        0.1919
    368  N6        -2.4530   -1.0940   23.9680 N.pl3  18  DA18       -0.1054
    369  N1        -3.3720    1.0190   24.1430 N.ar   18  DA18       -0.2040
    370  C2        -3.2700    2.2840   24.5670 C.ar   18  DA18        0.2016
    371  N3        -2.2770    2.8710   25.2310 N.ar   18  DA18       -0.2048
    372  C4        -1.2820    1.9990   25.4640 C.ar   18  DA18        0.1691
    373  P         -0.2260    2.6600   31.4450 P.3    19  DT19        0.2141
    374  OP1       -0.5370    3.1730   32.8040 O.3    19  DT19       -0.4373
    375  OP2        0.0810    1.2220   31.2590 O.2    19  DT19       -0.5172
    376  O5'       -1.4180    3.0530   30.4640 O.3    19  DT19       -0.3114
    377  C5'       -1.8770    4.4000   30.3850 C.3    19  DT19        0.1811
    378  C4'       -3.2810    4.4440   29.8350 C.3    19  DT19        0.1746
    379  O4'       -3.2760    3.9480   28.4720 O.3    19  DT19       -0.3327
    380  C3'       -4.2950    3.5770   30.5610 C.3    19  DT19        0.1558
    381  O3'       -4.8190    4.2690   31.6940 O.3    19  DT19       -0.3138
    382  C2'       -5.3320    3.3160   29.4740 C.3    19  DT19        0.0866
    383  C1'       -4.4460    3.1930   28.2310 C.3    19  DT19        0.2106
    384  N1        -4.1000    1.8010   27.9620 N.ar   19  DT19       -0.2559
    385  C2        -5.0600    1.0990   27.2580 C.ar   19  DT19        0.3545
    386  O2        -6.0310    1.6300   26.7490 O.2    19  DT19       -0.2443
    387  N3        -4.8430   -0.2550   27.1700 N.ar   19  DT19       -0.1533
    388  C4        -3.7860   -0.9620   27.7040 C.ar   19  DT19        0.2804
    389  O4        -3.7270   -2.1780   27.5400 O.2    19  DT19       -0.2654
    390  C5        -2.8320   -0.1630   28.4210 C.ar   19  DT19        0.0534
    391  C6        -3.0190    1.1560   28.5220 C.ar   19  DT19        0.0824
    392  C7        -1.6450   -0.8400   29.0400 C.3    19  DT19        0.0377
    393  P         -6.0570    3.7760   32.4580 P.3    20  DG20        0.2141
    394  OP1       -6.1510    5.2460   32.5740 O.2    20  DG20       -0.5172
    395  OP2       -5.0420    3.0560   33.2530 O.3    20  DG20       -0.4373
    396  O5'       -7.4160    3.0160   32.8460 O.3    20  DG20       -0.3114
    397  C5'       -8.6930    3.6070   32.7060 C.3    20  DG20        0.1811
    398  C4'       -9.5990    2.7500   31.8270 C.3    20  DG20        0.1746
    399  O4'       -8.8920    2.2810   30.6500 O.3    20  DG20       -0.3327
    400  C3'      -10.2300    1.4570   32.3380 C.3    20  DG20        0.1558
    401  O3'      -11.3010    1.7030   33.2420 O.3    20  DG20       -0.3138
    402  C2'      -10.7960    0.9320   31.0240 C.3    20  DG20        0.0865
    403  C1'       -9.6290    1.2150   30.0720 C.3    20  DG20        0.2094
    404  N9        -8.7020    0.1930   29.8400 N.ar   20  DG20       -0.2713
    405  C8        -7.3750    0.2390   30.1920 C.ar   20  DG20        0.1816
    406  N7        -6.7150   -0.8350   29.8530 N.ar   20  DG20       -0.2173
    407  C5        -7.6580   -1.6380   29.2390 C.ar   20  DG20        0.1748
    408  C6        -7.5370   -2.9300   28.6650 C.ar   20  DG20        0.3023
    409  O6        -6.5280   -3.6410   28.5850 O.2    20  DG20       -0.2633
    410  N1        -8.7470   -3.3850   28.1490 N.ar   20  DG20       -0.1709
    411  C2        -9.9280   -2.6820   28.1810 C.ar   20  DG20        0.2606
    412  N2       -10.9900   -3.2860   27.6310 N.pl3  20  DG20       -0.0859
    413  N3       -10.0550   -1.4820   28.7120 N.ar   20  DG20       -0.1918
    414  C4        -8.8930   -1.0200   29.2210 C.ar   20  DG20        0.1722
    415  P        -11.9390    0.4440   34.1610 P.3    21  DC21        0.2141
    416  OP1      -12.8640    0.8290   35.2590 O.3    21  DC21       -0.4373
    417  OP2      -10.5520    0.0240   34.4780 O.2    21  DC21       -0.5172
    418  O5'      -12.6070   -0.7230   33.3050 O.3    21  DC21       -0.3114
    419  C5'      -13.9860   -0.6800   32.9620 C.3    21  DC21        0.1811
    420  C4'      -14.3580   -1.8720   32.1100 C.3    21  DC21        0.1746
    421  O4'      -13.5840   -1.8440   30.8770 O.3    21  DC21       -0.3327
    422  C3'      -14.0510   -3.2340   32.7020 C.3    21  DC21        0.1558
    423  O3'      -15.0690   -3.6510   33.5950 O.3    21  DC21       -0.3138
    424  C2'      -13.9690   -4.0970   31.4510 C.3    21  DC21        0.0866
    425  C1'      -13.1980   -3.1630   30.5180 C.3    21  DC21        0.2106
    426  N1       -11.8360   -3.2320   30.6960 N.ar   21  DC21       -0.2556
    427  C2       -11.2470   -4.3990   30.1950 C.ar   21  DC21        0.3531
    428  O2       -11.9180   -5.1360   29.4540 O.2    21  DC21       -0.2443
    429  N3        -9.9680   -4.6890   30.5320 N.ar   21  DC21       -0.1739
    430  C4        -9.2860   -3.8680   31.3320 C.ar   21  DC21        0.1759
    431  N4        -8.0280   -4.1950   31.6370 N.pl3  21  DC21       -0.1070
    432  C5        -9.8650   -2.6810   31.8500 C.ar   21  DC21        0.0566
    433  C6       -11.1280   -2.3980   31.5150 C.ar   21  DC21        0.0849
    434  P        -14.6620   -4.2420   34.6250 P.3    22  DG22        0.2141
    435  OP1      -15.9410   -4.3310   35.4390 O.3    22  DG22       -0.4373
    436  OP2      -13.3660   -4.0560   35.3130 O.2    22  DG22       -0.5172
    437  O5'      -14.5250   -5.5820   33.7780 O.3    22  DG22       -0.3114
    438  C5'      -15.5910   -6.1750   33.0320 C.3    22  DG22        0.1811
    439  C4'      -15.1780   -7.5730   32.6050 C.3    22  DG22        0.1746
    440  O4'      -14.0940   -7.4980   31.6180 O.3    22  DG22       -0.3327
    441  C3'      -14.5870   -8.3980   33.7410 C.3    22  DG22        0.1558
    442  O3'      -15.5800   -9.0870   34.4950 O.3    22  DG22       -0.3138
    443  C2'      -13.7400   -9.4140   33.0050 C.3    22  DG22        0.0865
    444  C1'      -13.1400   -8.5490   31.8940 C.3    22  DG22        0.2094
    445  N9       -11.8130   -8.0320   32.4870 N.ar   22  DG22       -0.2713
    446  C8       -11.6470   -6.9280   33.2860 C.ar   22  DG22        0.1816
    447  N7       -10.3960   -6.6740   33.5610 N.ar   22  DG22       -0.2173
    448  C5        -9.6930   -7.6670   32.9050 C.ar   22  DG22        0.1748
    449  C6        -8.2980   -7.9170   32.8330 C.ar   22  DG22        0.3023
    450  O6        -7.3780   -7.2790   33.3600 O.2    22  DG22       -0.2633
    451  N1        -8.0090   -9.0350   32.0570 N.ar   22  DG22       -0.1709
    452  C2        -8.9470   -9.8160   31.4260 C.ar   22  DG22        0.2606
    453  N2        -8.4760  -10.8530   30.7210 N.pl3  22  DG22       -0.0859
    454  N3       -10.2460   -9.5970   31.4840 N.ar   22  DG22       -0.1918
    455  C4       -10.5510   -8.5170   32.2340 C.ar   22  DG22        0.1722
    456  P        -15.2950   -9.0510   35.6320 P.3    23  DA23        0.2141
    457  OP1      -16.5000   -9.6640   36.2350 O.3    23  DA23       -0.4373
    458  OP2      -14.9090   -7.6620   35.9750 O.2    23  DA23       -0.5172
    459  O5'      -14.0130   -9.9320   36.0200 O.3    23  DA23       -0.3114
    460  C5'      -14.0530  -11.3500   35.9200 C.3    23  DA23        0.1811
    461  C4'      -12.6910  -11.9610   36.1400 C.3    23  DA23        0.1746
    462  O4'      -11.7630  -11.4490   35.1490 O.3    23  DA23       -0.3327
    463  C3'      -12.0040  -11.6380   37.4600 C.3    23  DA23        0.1558
    464  O3'      -12.4520  -12.4230   38.5500 O.3    23  DA23       -0.3138
    465  C2'      -10.5440  -11.8890   37.1280 C.3    23  DA23        0.0865
    466  C1'      -10.4700  -11.3430   35.7080 C.3    23  DA23        0.2094
    467  N9        -9.9510   -9.9420   35.6850 N.ar   23  DA23       -0.2714
    468  C8       -10.6200   -8.7470   35.6230 C.ar   23  DA23        0.1815
    469  N7        -9.8320   -7.6980   35.6220 N.ar   23  DA23       -0.2193
    470  C5        -8.5580   -8.2410   35.6900 C.ar   23  DA23        0.1518
    471  C6        -7.2810   -7.6540   35.7220 C.ar   23  DA23        0.1919
    472  N6        -7.0720   -6.3360   35.6890 N.pl3  23  DA23       -0.1054
    473  N1        -6.2140   -8.4790   35.7910 N.ar   23  DA23       -0.2040
    474  C2        -6.4250   -9.8000   35.8230 C.ar   23  DA23        0.2016
    475  N3        -7.5760  -10.4690   35.7970 N.ar   23  DA23       -0.2048
    476  C4        -8.6160   -9.6210   35.7300 C.ar   23  DA23        0.1691
    477  P        -12.0450  -11.9860   39.9980 P.3    24  DT24        0.2141
    478  OP1      -12.7510  -12.8330   40.9840 O.3    24  DT24       -0.4373
    479  OP2      -12.3260  -10.5330   39.9270 O.2    24  DT24       -0.5172
    480  O5'      -10.4720  -12.1920   40.2030 O.3    24  DT24       -0.3114
    481  C5'       -9.8730  -13.4860   40.1190 C.3    24  DT24        0.1811
    482  C4'       -8.4000  -13.4390   40.4970 C.3    24  DT24        0.1746
    483  O4'       -7.6180  -12.9680   39.3670 O.3    24  DT24       -0.3327
    484  C3'       -8.0430  -12.5060   41.6540 C.3    24  DT24        0.1558
    485  O3'       -8.2110  -13.1770   42.9110 O.3    24  DT24       -0.3138
    486  C2'       -6.5960  -12.1470   41.3260 C.3    24  DT24        0.0866
    487  C1'       -6.6640  -12.0140   39.8050 C.3    24  DT24        0.2106
    488  N1        -6.9480  -10.6560   39.3130 N.ar   24  DT24       -0.2559
    489  C2        -5.8640   -9.8140   39.1550 C.ar   24  DT24        0.3545
    490  O2        -4.7130  -10.1700   39.3410 O.2    24  DT24       -0.2443
    491  N3        -6.1750   -8.5320   38.7710 N.ar   24  DT24       -0.1533
    492  C4        -7.4330   -8.0200   38.5340 C.ar   24  DT24        0.2804
    493  O4        -7.5540   -6.8450   38.1930 O.2    24  DT24       -0.2654
    494  C5        -8.5060   -8.9550   38.7200 C.ar   24  DT24        0.0534
    495  C6        -8.2320  -10.2080   39.0930 C.ar   24  DT24        0.0824
    496  C7        -9.9140   -8.4920   38.4870 C.3    24  DT24        0.0377
    497  P         -8.7340  -12.3680   44.3250 P.3    25  DC25        0.2141
    498  OP1       -9.1180  -13.4000   45.3170 O.3    25  DC25       -0.4373
    499  OP2       -9.5910  -11.1790   44.0950 O.2    25  DC25       -0.5172
    500  O5'       -7.3040  -11.7590   44.7080 O.3    25  DC25       -0.3114
    501  C5'       -6.1560  -12.5820   44.8640 C.3    25  DC25        0.1811
    502  C4'       -4.9040  -11.7440   44.9090 C.3    25  DC25        0.1746
    503  O4'       -4.5390  -11.3190   43.5690 O.3    25  DC25       -0.3327
    504  C3'       -5.0240  -10.4330   45.6670 C.3    25  DC25        0.1558
    505  O3'       -4.9590  -10.5840   47.0740 O.3    25  DC25       -0.3138
    506  C2'       -3.8850   -9.6100   45.0770 C.3    25  DC25        0.0866
    507  C1'       -3.9550  -10.0310   43.6090 C.3    25  DC25        0.2106
    508  N1        -4.7610   -9.1320   42.8200 N.ar   25  DC25       -0.2556
    509  C2        -4.1930   -7.9030   42.4650 C.ar   25  DC25        0.3531
    510  O2        -3.0080   -7.6820   42.7680 O.2    25  DC25       -0.2443
    511  N3        -4.9490   -6.9930   41.8060 N.ar   25  DC25       -0.1739
    512  C4        -6.2170   -7.2730   41.5020 C.ar   25  DC25        0.1759
    513  N4        -6.9230   -6.3460   40.8520 N.pl3  25  DC25       -0.1070
    514  C5        -6.8110   -8.5130   41.8530 C.ar   25  DC25        0.0566
    515  C6        -6.0610   -9.4080   42.5040 C.ar   25  DC25        0.0849
    516  P         -5.9710   -9.7820   47.9430 P.3    26  DT26        0.2141
    517  OP1       -5.8850  -10.1810   49.3680 O.3    26  DT26       -0.4373
    518  OP2       -7.2930   -9.7180   47.2930 O.2    26  DT26       -0.5172
    519  O5'       -5.2670   -8.3810   47.7760 O.3    26  DT26       -0.3114
    520  C5'       -3.9350   -8.2310   48.1950 C.3    26  DT26        0.1811
    521  C4'       -3.6280   -6.7780   48.4200 C.3    26  DT26        0.1746
    522  O4'       -3.4860   -6.1070   47.1380 O.3    26  DT26       -0.3327
    523  C3'       -4.7150   -6.0330   49.1730 C.3    26  DT26        0.1558
    524  O3'       -4.5110   -6.1540   50.5930 O.3    26  DT26       -0.3138
    525  C2'       -4.5520   -4.6170   48.6390 C.3    26  DT26        0.0866
    526  C1'       -4.1510   -4.8630   47.1810 C.3    26  DT26        0.2106
    527  N1        -5.3370   -4.8870   46.1100 N.ar   26  DT26       -0.2574
    528  C2        -5.4800   -3.7950   45.2760 C.ar   26  DT26        0.3310
    529  O2        -4.6590   -2.8970   45.2090 O.3    26  DT26       -0.3352
    530  N3        -6.6260   -3.7890   44.5180 N.ar   26  DT26       -0.1549
    531  C4        -7.6210   -4.7440   44.5110 C.ar   26  DT26        0.2804
    532  O4        -8.5930   -4.6000   43.7730 O.2    26  DT26       -0.2654
    533  C5        -7.4000   -5.8460   45.4050 C.ar   26  DT26        0.0534
    534  C6        -6.2940   -5.8770   46.1530 C.ar   26  DT26        0.0824
    535  C7        -8.4270   -6.9380   45.4710 C.3    26  DT26        0.0377
    536  P         -5.7560   -6.0020   51.6550 P.3    27  DG27        0.2141
    537  OP1       -5.6990   -6.4100   53.0810 O.3    27  DG27       -0.4373
    538  OP2       -6.8410   -6.5240   50.7890 O.2    27  DG27       -0.5172
    539  O5'       -5.8220   -4.4140   51.5940 O.3    27  DG27       -0.3114
    540  C5'       -6.5960   -3.6510   52.5410 C.3    27  DG27        0.1811
    541  C4'       -5.9690   -2.2910   52.7200 C.3    27  DG27        0.1746
    542  O4'       -4.6880   -2.4600   53.3810 O.3    27  DG27       -0.3327
    543  C3'       -5.6210   -1.5890   51.4130 C.3    27  DG27        0.1558
    544  O3'       -6.7200   -0.8650   50.8750 O.3    27  DG27       -0.3138
    545  C2'       -4.4710   -0.6740   51.8130 C.3    27  DG27        0.0865
    546  C1'       -3.7480   -1.5380   52.8500 C.3    27  DG27        0.2094
    547  N9        -2.6650   -2.3950   52.6630 N.ar   27  DG27       -0.2713
    548  C8        -2.4950   -3.7560   52.7380 C.ar   27  DG27        0.1816
    549  N7        -1.4020   -4.1710   52.1570 N.ar   27  DG27       -0.2173
    550  C5        -0.8130   -3.0190   51.6700 C.ar   27  DG27        0.1748
    551  C6         0.3930   -2.8340   50.9460 C.ar   27  DG27        0.3023
    552  O6         1.2060   -3.6920   50.5810 O.2    27  DG27       -0.2633
    553  N1         0.6190   -1.4940   50.6460 N.ar   27  DG27       -0.1709
    554  C2        -0.2140   -0.4590   50.9990 C.ar   27  DG27        0.2606
    555  N2         0.1730    0.7660   50.6210 N.pl3  27  DG27       -0.0859
    556  N3        -1.3370   -0.6160   51.6710 N.ar   27  DG27       -0.1918
    557  C4        -1.5780   -1.9100   51.9730 C.ar   27  DG27        0.1722
    558  P         -6.8490   -0.6900   49.3410 P.3    28  DG28        0.2141
    559  OP1       -8.2640   -0.6630   49.7730 O.3    28  DG28       -0.4373
    560  OP2       -6.4930   -1.1150   47.9680 O.2    28  DG28       -0.5172
    561  O5'       -6.2230    0.7760   49.4850 O.3    28  DG28       -0.3114
    562  C5'       -4.8390    0.9020   49.7880 C.3    28  DG28        0.1811
    563  C4'       -4.0510    1.5420   48.6730 C.3    28  DG28        0.1746
    564  O4'       -2.6690    1.1560   48.8940 O.3    28  DG28       -0.3327
    565  C3'       -4.4230    1.0920   47.2570 C.3    28  DG28        0.1558
    566  O3'       -4.8420    2.1500   46.4000 O.3    28  DG28       -0.3138
    567  C2'       -3.1650    0.4710   46.6640 C.3    28  DG28        0.0865
    568  C1'       -2.1170    0.5110   47.7660 C.3    28  DG28        0.2094
    569  N9        -1.8500   -0.9150   48.3790 N.ar   28  DG28       -0.2713
    570  C8        -2.7370   -1.8390   48.8750 C.ar   28  DG28        0.1816
    571  N7        -2.3780   -3.0730   48.6480 N.ar   28  DG28       -0.2173
    572  C5        -1.1820   -2.9610   47.9630 C.ar   28  DG28        0.1748
    573  C6        -0.3160   -3.9590   47.4470 C.ar   28  DG28        0.3023
    574  O6        -0.4480   -5.1880   47.5000 O.2    28  DG28       -0.2633
    575  N1         0.7960   -3.4090   46.8160 N.ar   28  DG28       -0.1709
    576  C2         1.0450   -2.0620   46.6980 C.ar   28  DG28        0.2606
    577  N2         2.1710   -1.7230   46.0570 N.pl3  28  DG28       -0.0859
    578  N3         0.2500   -1.1230   47.1720 N.ar   28  DG28       -0.1918
    579  C4        -0.8380   -1.6340   47.7870 C.ar   28  DG28        0.1722
    580  P         -5.9430    1.6230   45.0990 P.3    29  DA29        0.2141
    581  OP1       -6.8180    2.5990   44.4150 O.2    29  DA29       -0.5172
    582  OP2       -6.5040    0.3570   45.6310 O.3    29  DA29       -0.4373
    583  O5'       -4.7510    1.2380   44.1000 O.3    29  DA29       -0.3114
    584  C5'       -3.9380    2.2290   43.4840 C.3    29  DA29        0.1811
    585  C4'       -2.4780    1.8070   43.5130 C.3    29  DA29        0.1744
    586  O4'       -2.1910    0.9750   44.6720 O.3    29  DA29       -0.3349
    587  C3'       -2.0190    0.9450   42.3500 C.3    29  DA29        0.1555
    588  O3'       -1.7830    1.7450   41.2080 O.3    29  DA29       -0.3139
    589  C2'       -0.7290    0.3780   42.9300 C.3    29  DA29        0.0835
    590  C1'       -1.1630    0.0530   44.3580 C.3    29  DA29        0.1973
    591  N9        -1.6630   -1.3390   44.4410 N.pl3  29  DA29       -0.2475
    592  C8        -2.9170   -1.6930   44.8660 C.3    29  DA29        0.2422
    593  N7        -3.0870   -2.9880   44.9920 N.4    29  DA29       -0.1654
    594  C5        -1.8620   -3.5210   44.6240 C.ar   29  DA29        0.1614
    595  C6        -1.3920   -4.8440   44.5440 C.ar   29  DA29        0.1927
    596  N6        -2.1340   -5.9120   44.8450 N.pl3  29  DA29       -0.1054
    597  N1        -0.1180   -5.0320   44.1400 N.ar   29  DA29       -0.2040
    598  C2         0.6260   -3.9610   43.8390 C.ar   29  DA29        0.2014
    599  N3         0.2960   -2.6720   43.8760 N.ar   29  DA29       -0.2072
    600  C4        -0.9760   -2.5180   44.2810 C.ar   29  DA29        0.1582
    601  P         -1.7840    1.1580   39.8790 P.3    30  DT30        0.2141
    602  OP1       -1.7700    2.2760   38.9090 O.2    30  DT30       -0.5172
    603  OP2       -2.9270    0.2090   39.9030 O.3    30  DT30       -0.4373
    604  O5'       -0.4770    0.2670   39.6640 O.3    30  DT30       -0.3114
    605  C5'        0.8450    0.7870   39.8020 C.3    30  DT30        0.1811
    606  C4'        1.8210   -0.3550   40.0220 C.3    30  DT30        0.1746
    607  O4'        1.4220   -1.1790   41.1530 O.3    30  DT30       -0.3327
    608  C3'        1.8950   -1.3370   38.8640 C.3    30  DT30        0.1558
    609  O3'        2.8000   -0.8500   37.8870 O.3    30  DT30       -0.3138
    610  C2'        2.4020   -2.5950   39.5600 C.3    30  DT30        0.0866
    611  C1'        1.5930   -2.5590   40.8550 C.3    30  DT30        0.2106
    612  N1         0.1340   -3.4170   40.7700 N.ar   30  DT30       -0.2559
    613  C2         0.4640   -4.7470   40.9480 C.ar   30  DT30        0.3545
    614  O2         1.5350   -5.2170   40.6070 O.2    30  DT30       -0.2443
    615  N3        -0.5100   -5.5130   41.5410 N.ar   30  DT30       -0.1533
    616  C4        -1.7530   -5.0920   41.9650 C.ar   30  DT30        0.2804
    617  O4        -2.5210   -5.9000   42.4820 O.2    30  DT30       -0.2654
    618  C5        -2.0210   -3.6990   41.7450 C.ar   30  DT30        0.0534
    619  C6        -1.0920   -2.9310   41.1700 C.ar   30  DT30        0.0824
    620  C7        -3.3480   -3.1450   42.1720 C.3    30  DT30        0.0377
    621  P          2.4610   -0.7660   36.4440 P.3    31  DA31        0.2141
    622  OP1        3.6680   -0.3310   35.7690 O.2    31  DA31       -0.5172
    623  OP2        1.1450   -0.4940   35.8170 O.3    31  DA31       -0.4373
    624  O5'        2.4790   -2.3120   36.8230 O.3    31  DA31       -0.3114
    625  C5'        3.6050   -2.8930   37.4490 C.3    31  DA31        0.1811
    626  C4'        3.3050   -4.3170   37.7660 C.3    31  DA31        0.1746
    627  O4'        2.2080   -4.3260   38.7070 O.3    31  DA31       -0.3327
    628  C3'        2.7650   -5.1430   36.5930 C.3    31  DA31        0.1558
    629  O3'        3.8660   -5.4880   35.7270 O.3    31  DA31       -0.3138
    630  C2'        2.0550   -6.2770   37.3310 C.3    31  DA31        0.0865
    631  C1'        1.3880   -5.5090   38.4910 C.3    31  DA31        0.2094
    632  N9         0.0060   -5.0980   38.2300 N.ar   31  DA31       -0.2714
    633  C8        -0.4300   -3.9110   37.7000 C.ar   31  DA31        0.1815
    634  N7        -1.7330   -3.8430   37.5580 N.ar   31  DA31       -0.2193
    635  C5        -2.1820   -5.0680   38.0250 C.ar   31  DA31        0.1518
    636  C6        -3.4690   -5.6210   38.1410 C.ar   31  DA31        0.1919
    637  N6        -4.5840   -4.9820   37.7810 N.pl3  31  DA31       -0.1054
    638  N1        -3.5710   -6.8690   38.6470 N.ar   31  DA31       -0.2040
    639  C2        -2.4530   -7.5090   39.0080 C.ar   31  DA31        0.2016
    640  N3        -1.1900   -7.0940   38.9480 N.ar   31  DA31       -0.2048
    641  C4        -1.1230   -5.8520   38.4410 C.ar   31  DA31        0.1691
    642  P          3.6330   -5.9820   34.1940 P.3    32  DT32        0.2141
    643  OP1        4.6070   -6.5990   33.2600 O.2    32  DT32       -0.5172
    644  OP2        2.6780   -4.9460   33.7340 O.3    32  DT32       -0.4373
    645  O5'        2.7060   -7.1270   34.8140 O.3    32  DT32       -0.3114
    646  C5'        3.3010   -8.2390   35.4620 C.3    32  DT32        0.1811
    647  C4'        2.3550   -9.4080   35.4790 C.3    32  DT32        0.1746
    648  O4'        1.2970   -9.1550   36.4350 O.3    32  DT32       -0.3327
    649  C3'        1.6210   -9.6340   34.1730 C.3    32  DT32        0.1558
    650  O3'        2.3780  -10.3630   33.2310 O.3    32  DT32       -0.3138
    651  C2'        0.3470  -10.3360   34.6070 C.3    32  DT32        0.0866
    652  C1'        0.0630   -9.6130   35.9210 C.3    32  DT32        0.2106
    653  N1        -0.8370   -8.3520   35.7680 N.ar   32  DT32       -0.2559
    654  C2        -2.1880   -8.6340   35.8380 C.ar   32  DT32        0.3545
    655  O2        -2.6230   -9.7160   36.1920 O.2    32  DT32       -0.2443
    656  N3        -3.0170   -7.6000   35.4770 N.ar   32  DT32       -0.1533
    657  C4        -2.6380   -6.3400   35.0620 C.ar   32  DT32        0.2804
    658  O4        -3.5010   -5.5140   34.7710 O.2    32  DT32       -0.2654
    659  C5        -1.2190   -6.1250   35.0140 C.ar   32  DT32        0.0534
    660  C6        -0.3910   -7.1140   35.3600 C.ar   32  DT32        0.0824
    661  C7        -0.7070   -4.7860   34.5740 C.3    32  DT32        0.0377
    662  P          1.9450  -10.1230   31.6700 P.3    33  DT33        0.2141
    663  OP1        3.0200  -10.6720   30.8110 O.2    33  DT33       -0.5172
    664  OP2        1.6560   -8.6710   31.7000 O.3    33  DT33       -0.4373
    665  O5'        0.5430  -10.7880   31.2720 O.3    33  DT33       -0.3114
    666  C5'        0.4800  -12.1690   30.9440 C.3    33  DT33        0.1811
    667  C4'       -0.9240  -12.7030   31.0600 C.3    33  DT33        0.1746
    668  O4'       -1.5350  -12.1500   32.2510 O.3    33  DT33       -0.3327
    669  C3'       -1.8860  -12.3320   29.9400 C.3    33  DT33        0.1558
    670  O3'       -1.7860  -13.1810   28.8120 O.3    33  DT33       -0.3138
    671  C2'       -3.2350  -12.4420   30.6270 C.3    33  DT33        0.0866
    672  C1'       -2.8980  -11.8870   32.0090 C.3    33  DT33        0.2106
    673  N1        -3.1040  -10.4560   32.1690 N.ar   33  DT33       -0.2559
    674  C2        -4.3920   -9.9580   32.2220 C.ar   33  DT33        0.3545
    675  O2        -5.3800  -10.6560   32.0750 O.2    33  DT33       -0.2443
    676  N3        -4.4840   -8.6070   32.4540 N.ar   33  DT33       -0.1533
    677  C4        -3.4410   -7.7230   32.6340 C.ar   33  DT33        0.2804
    678  O4        -3.6820   -6.5360   32.8350 O.2    33  DT33       -0.2654
    679  C5        -2.1350   -8.3160   32.5640 C.ar   33  DT33        0.0534
    680  C6        -2.0160   -9.6270   32.3390 C.ar   33  DT33        0.0824
    681  C7        -0.9340   -7.4360   32.7470 C.3    33  DT33        0.0377
    682  P         -1.9520  -12.6110   27.5410 P.3    34  DA34        0.2141
    683  OP1       -1.5110  -13.4960   26.4390 O.2    34  DA34       -0.5172
    684  OP2       -1.3100  -11.2960   27.7650 O.3    34  DA34       -0.4373
    685  O5'       -3.5000  -12.2610   27.3430 O.3    34  DA34       -0.3114
    686  C5'       -4.4390  -13.3140   27.1870 C.3    34  DA34        0.1811
    687  C4'       -5.8490  -12.7910   27.0810 C.3    34  DA34        0.1746
    688  O4'       -6.2270  -12.1340   28.3170 O.3    34  DA34       -0.3327
    689  C3'       -6.0960  -11.7480   26.0000 C.3    34  DA34        0.1558
    690  O3'       -6.3100  -12.3510   24.7330 O.3    34  DA34       -0.3138
    691  C2'       -7.3090  -10.9970   26.5300 C.3    34  DA34        0.0865
    692  C1'       -7.1060  -11.0650   28.0450 C.3    34  DA34        0.2094
    693  N9        -6.5820   -9.8430   28.6200 N.ar   34  DA34       -0.2714
    694  C8        -5.2850   -9.3980   28.6140 C.ar   34  DA34        0.1815
    695  N7        -5.1530   -8.1480   28.9910 N.ar   34  DA34       -0.2193
    696  C5        -6.4510   -7.7440   29.2620 C.ar   34  DA34        0.1518
    697  C6        -6.9880   -6.5230   29.7060 C.ar   34  DA34        0.1919
    698  N6        -6.2510   -5.4410   29.9640 N.pl3  34  DA34       -0.1054
    699  N1        -8.3260   -6.4530   29.8760 N.ar   34  DA34       -0.2040
    700  C2        -9.0640   -7.5380   29.6180 C.ar   34  DA34        0.2016
    701  N3        -8.6750   -8.7400   29.1980 N.ar   34  DA34       -0.2048
    702  C4        -7.3410   -8.7770   29.0380 C.ar   34  DA34        0.1691
    703  P         -6.6750  -11.4640   23.4040 P.3    35  DT35        0.2141
    704  OP1       -6.8540  -12.1870   22.1250 O.2    35  DT35       -0.5172
    705  OP2       -5.3900  -10.8130   23.7490 O.3    35  DT35       -0.4373
    706  O5'       -7.7400  -10.2700   23.4620 O.3    35  DT35       -0.3114
    707  C5'       -9.1040  -10.5590   23.1920 C.3    35  DT35        0.1811
    708  C4'      -10.0210   -9.4430   23.6210 C.3    35  DT35        0.1746
    709  O4'       -9.7710   -9.1050   25.0090 O.3    35  DT35       -0.3327
    710  C3'       -9.8550   -8.1220   22.8930 C.3    35  DT35        0.1558
    711  O3'      -10.4970   -8.1060   21.6340 O.3    35  DT35       -0.3138
    712  C2'      -10.4580   -7.1370   23.8810 C.3    35  DT35        0.0866
    713  C1'       -9.9660   -7.7200   25.2060 C.3    35  DT35        0.2106
    714  N1        -8.6650   -7.1190   25.6640 N.ar   35  DT35       -0.2559
    715  C2        -8.6180   -5.8140   26.1160 C.ar   35  DT35        0.3545
    716  O2        -9.5530   -5.0400   26.0090 O.2    35  DT35       -0.2443
    717  N3        -7.4300   -5.4440   26.7000 N.ar   35  DT35       -0.1533
    718  C4        -6.3110   -6.2310   26.8730 C.ar   35  DT35        0.2804
    719  O4        -5.3170   -5.7560   27.4180 O.2    35  DT35       -0.2654
    720  C5        -6.4380   -7.5720   26.3770 C.ar   35  DT35        0.0534
    721  C6        -7.5810   -7.9580   25.8050 C.ar   35  DT35        0.0824
    722  C7        -5.2730   -8.5060   26.5180 C.3    35  DT35        0.0377
    723  P         -9.6540   -7.6140   20.4440 P.3    36  DT36        0.2141
    724  OP1      -10.1650   -7.6170   19.0560 O.2    36  DT36       -0.5172
    725  OP2       -8.2100   -7.8170   20.7090 O.3    36  DT36       -0.4373
    726  O5'       -9.9690   -6.2130   21.1470 O.3    36  DT36       -0.3114
    727  C5'      -11.2470   -5.5950   21.0940 C.3    36  DT36        0.1811
    728  C4'      -11.1900   -4.1970   21.6620 C.3    36  DT36        0.1746
    729  O4'      -10.7380   -4.2350   23.0420 O.3    36  DT36       -0.3327
    730  C3'      -10.2260   -3.2390   20.9720 C.3    36  DT36        0.1558
    731  O3'      -10.7760   -2.6840   19.7870 O.3    36  DT36       -0.3138
    732  C2'       -9.9240   -2.2210   22.0710 C.3    36  DT36        0.0866
    733  C1'       -9.9280   -3.1110   23.3160 C.3    36  DT36        0.2106
    734  N1        -8.5450   -3.5640   23.6440 N.ar   36  DT36       -0.2559
    735  C2        -7.7580   -2.6320   24.2930 C.ar   36  DT36        0.3545
    736  O2        -8.1610   -1.5270   24.6100 O.2    36  DT36       -0.2443
    737  N3        -6.4730   -3.0400   24.5590 N.ar   36  DT36       -0.1533
    738  C4        -5.9100   -4.2600   24.2470 C.ar   36  DT36        0.2804
    739  O4        -4.7400   -4.4820   24.5520 O.2    36  DT36       -0.2654
    740  C5        -6.7900   -5.1730   23.5740 C.ar   36  DT36        0.0534
    741  C6        -8.0440   -4.8010   23.3030 C.ar   36  DT36        0.0824
    742  C7        -6.2700   -6.5270   23.1920 C.3    36  DT36        0.0377
    743  P         -9.9380   -1.6860   18.6490 P.3    37  DT37        0.2141
    744  OP1      -10.4960   -1.9180   17.2980 O.2    37  DT37       -0.5172
    745  OP2       -8.4940   -1.4250   18.8320 O.3    37  DT37       -0.4373
    746  O5'      -10.6650   -0.4280   19.3260 O.3    37  DT37       -0.3114
    747  C5'      -10.4190    0.8900   18.8580 C.3    37  DT37        0.1811
    748  C4'      -10.1430    1.8350   20.0020 C.3    37  DT37        0.1746
    749  O4'       -9.6860    1.0740   21.1500 O.3    37  DT37       -0.3327
    750  C3'       -9.0480    2.8610   19.7530 C.3    37  DT37        0.1558
    751  O3'       -9.5090    4.0170   19.0730 O.3    37  DT37       -0.3138
    752  C2'       -8.5130    3.1310   21.1550 C.3    37  DT37        0.0866
    753  C1'       -8.6260    1.7460   21.7910 C.3    37  DT37        0.2106
    754  N1        -7.3480    1.0030   21.6300 N.ar   37  DT37       -0.2559
    755  C2        -6.2400    1.2660   22.4120 C.ar   37  DT37        0.3545
    756  O2        -6.1440    2.2530   23.1200 O.2    37  DT37       -0.2443
    757  N3        -5.2390    0.3270   22.3360 N.ar   37  DT37       -0.1533
    758  C4        -5.2370   -0.8220   21.5730 C.ar   37  DT37        0.2804
    759  O4        -4.2630   -1.5710   21.6100 O.2    37  DT37       -0.2654
    760  C5        -6.4220   -1.0230   20.7880 C.ar   37  DT37        0.0534
    761  C6        -7.4100   -0.1260   20.8430 C.ar   37  DT37        0.0824
    762  C7        -6.5150   -2.2450   19.9230 C.3    37  DT37        0.0377
    763  P         -8.8730    4.3960   17.9520 P.3    38  DT38        0.2141
    764  OP1       -9.8540    5.0820   17.0740 O.2    38  DT38       -0.5172
    765  OP2       -8.1050    3.2430   17.4400 O.3    38  DT38       -0.4373
    766  O5'       -7.8060    5.4590   18.5000 O.3    38  DT38       -0.3114
    767  C5'       -7.8780    6.0860   19.7800 C.3    38  DT38        0.1811
    768  C4'       -6.4880    6.1310   20.3990 C.3    38  DT38        0.1746
    769  O4'       -6.2030    4.9100   21.1170 O.3    38  DT38       -0.3327
    770  C3'       -5.3200    6.1950   19.4280 C.3    38  DT38        0.1558
    771  O3'       -5.1610    7.5110   18.9190 O.3    38  DT38       -0.3138
    772  C2'       -4.1700    5.7750   20.3240 C.3    38  DT38        0.0866
    773  C1'       -4.8130    4.7050   21.1830 C.3    38  DT38        0.2106
    774  N1        -4.4650    3.4100   20.6900 N.ar   38  DT38       -0.2559
    775  C2        -3.3520    2.7290   21.1430 C.ar   38  DT38        0.3545
    776  O2        -2.5370    3.2200   21.9050 O.2    38  DT38       -0.2443
    777  N3        -3.2230    1.4450   20.6710 N.ar   38  DT38       -0.1533
    778  C4        -4.0770    0.7880   19.8090 C.ar   38  DT38        0.2804
    779  O4        -3.8280   -0.3670   19.4750 O.2    38  DT38       -0.2654
    780  C5        -5.2090    1.5620   19.3820 C.ar   38  DT38        0.0534
    781  C6        -5.3580    2.8130   19.8260 C.ar   38  DT38        0.0824
    782  C7        -6.1970    0.9360   18.4430 C.3    38  DT38        0.0377
    783  P         -4.6790    7.6200   17.4940 P.3    39  DT39        0.2141
    784  OP1       -4.7950    8.9260   16.7970 O.3    39  DT39       -0.4373
    785  OP2       -4.9270    6.3680   16.7530 O.2    39  DT39       -0.5172
    786  O5'       -3.2190    7.5580   18.1470 O.3    39  DT39       -0.3114
    787  C5'       -2.6780    8.7000   18.7890 C.3    39  DT39        0.1811
    788  C4'       -1.3540    8.3590   19.4370 C.3    39  DT39        0.1746
    789  O4'       -1.4400    7.1030   20.1650 O.3    39  DT39       -0.3327
    790  C3'       -0.2270    8.0990   18.4660 C.3    39  DT39        0.1558
    791  O3'        0.3290    9.3060   18.0310 O.3    39  DT39       -0.3138
    792  C2'        0.7440    7.3220   19.3440 C.3    39  DT39        0.0866
    793  C1'       -0.1920    6.4460   20.1630 C.3    39  DT39        0.2106
    794  N1        -0.3870    5.0910   19.5760 N.ar   39  DT39       -0.2559
    795  C2         0.5700    4.1160   19.7820 C.ar   39  DT39        0.3545
    796  O2         1.5860    4.3070   20.4260 O.2    39  DT39       -0.2443
    797  N3         0.2940    2.9000   19.2040 N.ar   39  DT39       -0.1533
    798  C4        -0.8170    2.5700   18.4570 C.ar   39  DT39        0.2804
    799  O4        -0.9250    1.4330   18.0030 O.2    39  DT39       -0.2654
    800  C5        -1.7630    3.6360   18.2870 C.ar   39  DT39        0.0534
    801  C6        -1.5200    4.8280   18.8380 C.ar   39  DT39        0.0824
    802  C7        -3.0060    3.3760   17.4880 C.3    39  DT39        0.0377
    803  P          0.4790    9.4700   16.4380 P.3    40  DG40        0.2141
    804  OP1        0.6990   10.8010   15.8190 O.3    40  DG40       -0.4373
    805  OP2       -0.4220    8.4910   15.7770 O.2    40  DG40       -0.5172
    806  O5'        1.8990    8.7880   16.6480 O.3    40  DG40       -0.3114
    807  C5'        2.9120    9.4490   17.3930 C.3    40  DG40        0.1811
    808  C4'        4.1220    8.5650   17.4970 C.3    40  DG40        0.1746
    809  O4'        3.8380    7.4390   18.3640 O.3    40  DG40       -0.3327
    810  C3'        4.5180    7.9400   16.1780 C.3    40  DG40        0.1558
    811  O3'        5.3210    8.8430   15.4420 O.3    40  DG40       -0.3138
    812  C2'        5.2770    6.7020   16.6270 C.3    40  DG40        0.0865
    813  C1'        4.4540    6.2710   17.8440 C.3    40  DG40        0.2094
    814  N9         3.3790    5.3000   17.5940 N.ar   40  DG40       -0.2713
    815  C8         2.1000    5.4910   17.1310 C.ar   40  DG40        0.1816
    816  N7         1.5450    4.3980   16.6840 N.ar   40  DG40       -0.2173
    817  C5         2.5100    3.4250   16.8620 C.ar   40  DG40        0.1748
    818  C6         2.4900    2.0380   16.5630 C.ar   40  DG40        0.3023
    819  O6         1.5730    1.3760   16.0620 O.2    40  DG40       -0.2633
    820  N1         3.6870    1.4150   16.9050 N.ar   40  DG40       -0.1709
    821  C2         4.7690    2.0480   17.4650 C.ar   40  DG40        0.2606
    822  N2         5.8350    1.2790   17.7260 N.pl3  40  DG40       -0.0859
    823  N3         4.8030    3.3360   17.7480 N.ar   40  DG40       -0.1918
    824  C4         3.6520    3.9620   17.4240 C.ar   40  DG40        0.1722
    825  P          5.0340    8.9940   13.9320 P.3    41  DA41        0.2141
    826  OP1        5.4430   10.2400   13.2360 O.2    41  DA41       -0.5172
    827  OP2        3.6720    8.4370   13.7070 O.3    41  DA41       -0.4373
    828  O5'        6.1000    7.8670   13.5800 O.3    41  DA41       -0.3114
    829  C5'        7.4710    8.0150   13.9390 C.3    41  DA41        0.1811
    830  C4'        8.1730    6.6840   13.8400 C.3    41  DA41        0.1746
    831  O4'        7.5580    5.7590   14.7770 O.3    41  DA41       -0.3327
    832  C3'        8.0420    6.0010   12.4890 C.3    41  DA41        0.1558
    833  O3'        9.0430    6.4650   11.5890 O.3    41  DA41       -0.3138
    834  C2'        8.2110    4.5340   12.8630 C.3    41  DA41        0.0865
    835  C1'        7.4410    4.4770   14.1840 C.3    41  DA41        0.2094
    836  N9         5.9320    4.2110   13.9710 N.ar   41  DA41       -0.2714
    837  C8         4.9340    5.1380   14.1170 C.ar   41  DA41        0.1815
    838  N7         3.7260    4.6360   14.0150 N.ar   41  DA41       -0.2193
    839  C5         3.9460    3.2870   13.7840 C.ar   41  DA41        0.1518
    840  C6         3.0690    2.2060   13.5860 C.ar   41  DA41        0.1919
    841  N6         1.7390    2.3230   13.5900 N.pl3  41  DA41       -0.1054
    842  N1         3.6130    0.9880   13.3810 N.ar   41  DA41       -0.2040
    843  C2         4.9460    0.8720   13.3780 C.ar   41  DA41        0.2016
    844  N3         5.8720    1.8120   13.5530 N.ar   41  DA41       -0.2048
    845  C4         5.2990    3.0110   13.7530 C.ar   41  DA41        0.1691
    846  P          8.6370    6.8770   10.0000 P.3    42  DT42        0.2141
    847  OP1        9.6020    8.0070   10.0080 O.3    42  DT42       -0.4373
    848  OP2        7.3620    6.9950    9.2340 O.2    42  DT42       -0.5172
    849  O5'        9.4340    5.5930    9.5110 O.3    42  DT42       -0.3114
    850  C5'       10.1880    4.8190   10.4290 C.3    42  DT42        0.1811
    851  C4'        9.7210    3.3880   10.3820 C.3    42  DT42        0.1746
    852  O4'        8.3640    3.2680   10.8870 O.3    42  DT42       -0.3327
    853  C3'        9.5230    2.8050    8.9960 C.3    42  DT42        0.1558
    854  O3'       10.7240    2.5990    8.2710 O.3    42  DT42       -0.3138
    855  C2'        8.7370    1.5350    9.3080 C.3    42  DT42        0.0866
    856  C1'        7.8490    2.0110   10.4640 C.3    42  DT42        0.2106
    857  N1         6.5470    2.2110   10.3020 N.ar   42  DT42       -0.2574
    858  C2         5.6800    1.1550   10.0910 C.ar   42  DT42        0.3310
    859  O2         6.0220   -0.0110   10.1710 O.3    42  DT42       -0.3356
    860  N3         4.3910    1.5150    9.7800 N.ar   42  DT42       -0.1549
    861  C4         3.8930    2.7960    9.6610 C.ar   42  DT42        0.2804
    862  O4         2.7100    2.9610    9.3760 O.2    42  DT42       -0.2654
    863  C5         4.8550    3.8370    9.8940 C.ar   42  DT42        0.0534
    864  C6         6.1150    3.5150   10.1980 C.ar   42  DT42        0.0824
    865  C7         4.4110    5.2660    9.7880 C.3    42  DT42        0.0377
    866  P         10.6310    2.4320    6.6590 P.3    43  DA43        0.2141
    867  OP1       11.5730    3.1860    5.7830 O.2    43  DA43       -0.5172
    868  OP2        9.2340    2.9230    6.8370 O.3    43  DA43       -0.4373
    869  O5'       10.5900    0.9160    6.1860 O.3    43  DA43       -0.3114
    870  C5'       11.7700    0.1320    6.2460 C.3    43  DA43        0.1811
    871  C4'       11.4500   -1.2770    6.6610 C.3    43  DA43        0.1741
    872  O4'       10.8640   -1.2930    7.9890 O.3    43  DA43       -0.3381
    873  C3'       10.3880   -1.9710    5.8410 C.3    43  DA43        0.1552
    874  O3'       10.8890   -2.3860    4.5900 O.3    43  DA43       -0.3139
    875  C2'       10.0150   -3.1260    6.7520 C.3    43  DA43        0.0795
    876  C1'        9.9930   -2.4140    8.1030 C.3    43  DA43        0.1820
    877  N9         8.7160   -2.1320    8.3740 N.3    43  DA43       -0.2044
    878  C8         8.3680   -0.8560    8.7300 C.3    43  DA43        0.2237
    879  N7         7.1150   -0.7320    9.0980 N.4    43  DA43       -0.1684
    880  C5         6.6040   -2.0150    8.9740 C.2    43  DA43        0.1969
    881  C6         5.3270   -2.5520    9.2120 C.2    43  DA43        0.4122
    882  N6         4.2910   -1.8300    9.6460 N.pl3  43  DA43        0.2140
    883  N1         5.1510   -3.8710    8.9880 N.pl3  43  DA43       -0.0204
    884  C2         6.1900   -4.5940    8.5550 C.2    43  DA43        0.3066
    885  N3         7.4360   -4.2030    8.2950 N.2    43  DA43       -0.2074
    886  C4         7.5780   -2.8870    8.5270 C.3    43  DA43        0.2188
    887  P         10.3260   -1.6900    3.2460 P.3    44  DC44        0.2141
    888  OP1       11.3910   -1.9700    2.2610 O.2    44  DC44       -0.5172
    889  OP2        9.4500   -0.5090    3.0730 O.3    44  DC44       -0.4373
    890  O5'        9.3180   -2.9320    3.2520 O.3    44  DC44       -0.3114
    891  C5'        9.8500   -4.2360    3.4260 C.3    44  DC44        0.1811
    892  C4'        8.9160   -5.1330    4.2010 C.3    44  DC44        0.1746
    893  O4'        8.5360   -4.5060    5.4540 O.3    44  DC44       -0.3327
    894  C3'        7.5700   -5.4220    3.5600 C.3    44  DC44        0.1558
    895  O3'        7.6290   -6.3350    2.4790 O.3    44  DC44       -0.3138
    896  C2'        6.7600   -5.9040    4.7590 C.3    44  DC44        0.0866
    897  C1'        7.2270   -4.9010    5.8080 C.3    44  DC44        0.2106
    898  N1         6.2430   -3.7700    5.7930 N.ar   44  DC44       -0.2556
    899  C2         4.9790   -3.8960    6.3800 C.ar   44  DC44        0.3531
    900  O2         4.6110   -5.0170    6.7720 O.2    44  DC44       -0.2443
    901  N3         4.1960   -2.7980    6.5030 N.ar   44  DC44       -0.1739
    902  C4         4.6330   -1.6160    6.0670 C.ar   44  DC44        0.1759
    903  N4         3.8260   -0.5610    6.2090 N.pl3  44  DC44       -0.1070
    904  C5         5.9100   -1.4670    5.4690 C.ar   44  DC44        0.0566
    905  C6         6.6800   -2.5540    5.3500 C.ar   44  DC44        0.0849
    906  P          6.7960   -6.0460    1.1100 P.3    45  DC45        0.2141
    907  OP1        7.1030   -7.0120    0.0350 O.2    45  DC45       -0.5172
    908  OP2        6.5520   -4.6200    0.8080 O.3    45  DC45       -0.4373
    909  O5'        5.4240   -6.5110    1.7870 O.3    45  DC45       -0.3114
    910  C5'        5.1910   -7.8750    2.1050 C.3    45  DC45        0.1811
    911  C4'        3.9330   -8.0610    2.9220 C.3    45  DC45        0.1746
    912  O4'        3.9190   -7.2130    4.1050 O.3    45  DC45       -0.3327
    913  C3'        2.6500   -7.6630    2.2270 C.3    45  DC45        0.1558
    914  O3'        2.2580   -8.5790    1.2290 O.3    45  DC45       -0.3138
    915  C2'        1.6900   -7.5680    3.3980 C.3    45  DC45        0.0866
    916  C1'        2.5830   -6.8560    4.4120 C.3    45  DC45        0.2106
    917  N1         2.3960   -5.3530    4.3270 N.ar   45  DC45       -0.2556
    918  C2         1.2810   -4.7850    4.9540 C.ar   45  DC45        0.3531
    919  O2         0.4330   -5.5380    5.4620 O.2    45  DC45       -0.2443
    920  N3         1.1590   -3.4370    4.9880 N.ar   45  DC45       -0.1739
    921  C4         2.0940   -2.6670    4.4290 C.ar   45  DC45        0.1759
    922  N4         1.9300   -1.3440    4.4870 N.pl3  45  DC45       -0.1070
    923  C5         3.2310   -3.2230    3.7890 C.ar   45  DC45        0.0566
    924  C6         3.3480   -4.5550    3.7570 C.ar   45  DC45        0.0849
    925  P          2.1720   -7.9860    0.0230 P.3    46  DC46        0.2141
    926  OP1        2.1730   -9.1480   -0.8960 O.2    46  DC46       -0.5172
    927  OP2        2.8570   -6.7300   -0.3790 O.3    46  DC46       -0.4373
    928  O5'        0.6590   -7.6590    0.3820 O.3    46  DC46       -0.3114
    929  C5'       -0.1940   -8.6750    0.9270 C.3    46  DC46        0.1811
    930  C4'       -1.4890   -8.0710    1.4000 C.3    46  DC46        0.1746
    931  O4'       -1.2300   -7.1550    2.4960 O.3    46  DC46       -0.3327
    932  C3'       -2.2300   -7.2150    0.3890 C.3    46  DC46        0.1558
    933  O3'       -2.9900   -8.0090   -0.5050 O.3    46  DC46       -0.3138
    934  C2'       -3.1190   -6.3740    1.2870 C.3    46  DC46        0.0866
    935  C1'       -2.1790   -6.1050    2.4640 C.3    46  DC46        0.2106
    936  N1        -1.4700   -4.8300    2.3150 N.ar   46  DC46       -0.2556
    937  C2        -2.0590   -3.6630    2.8160 C.ar   46  DC46        0.3531
    938  O2        -3.1690   -3.7440    3.3690 O.2    46  DC46       -0.2443
    939  N3        -1.4050   -2.4850    2.6830 N.ar   46  DC46       -0.1739
    940  C4        -0.2160   -2.4460    2.0810 C.ar   46  DC46        0.1759
    941  N4         0.3910   -1.2620    1.9730 N.pl3  46  DC46       -0.1070
    942  C5         0.3980   -3.6170    1.5670 C.ar   46  DC46        0.0566
    943  C6        -0.2510   -4.7780    1.7000 C.ar   46  DC46        0.0849
    944  P         -3.6070   -7.3330   -1.7620 P.3    47  DC47        0.2141
    945  OP1       -4.2630   -8.6570   -1.7850 O.3    47  DC47       -0.4373
    946  OP2       -2.6700   -6.9690   -2.8530 O.2    47  DC47       -0.5172
    947  O5'       -4.7260   -6.2050   -1.7060 O.3    47  DC47       -0.3114
    948  C5'       -5.9960   -6.4880   -1.1500 C.3    47  DC47        0.1811
    949  C4'       -6.4760   -5.3510   -0.2750 C.3    47  DC47        0.1746
    950  O4'       -5.4490   -4.8960    0.6480 O.3    47  DC47       -0.3327
    951  C3'       -6.9770   -4.0680   -0.9140 C.3    47  DC47        0.1558
    952  O3'       -8.3130   -4.2200   -1.3290 O.3    47  DC47       -0.3138
    953  C2'       -6.9910   -3.1260    0.2780 C.3    47  DC47        0.0866
    954  C1'       -5.7470   -3.5670    1.0480 C.3    47  DC47        0.2106
    955  N1        -4.6220   -2.6140    0.6270 N.ar   47  DC47       -0.2556
    956  C2        -4.6050   -1.2740    1.0310 C.ar   47  DC47        0.3531
    957  O2        -5.6090   -0.8080    1.5970 O.2    47  DC47       -0.2443
    958  N3        -3.5000   -0.5280    0.7940 N.ar   47  DC47       -0.1739
    959  C4        -2.4470   -1.0710    0.1830 C.ar   47  DC47        0.1759
    960  N4        -1.3810   -0.2960   -0.0300 N.pl3  47  DC47       -0.1070
    961  C5        -2.4440   -2.4260   -0.2350 C.ar   47  DC47        0.0566
    962  C6        -3.5370   -3.1600    0.0020 C.ar   47  DC47        0.0849
    963  P         -8.8490   -3.3920   -2.4850 P.3    48  DT48        0.2141
    964  OP1       -9.9660   -4.2630   -2.9290 O.3    48  DT48       -0.4373
    965  OP2       -7.4960   -3.5830   -3.0520 O.2    48  DT48       -0.5172
    966  O5'       -9.2430   -1.8510   -2.6250 O.3    48  DT48       -0.3114
    967  C5'      -10.4410   -1.3480   -2.0290 C.3    48  DT48        0.1811
    968  C4'      -10.2830    0.1090   -1.6270 C.3    48  DT48        0.1746
    969  O4'       -9.2130    0.2360   -0.6570 O.3    48  DT48       -0.3327
    970  C3'       -9.9380    1.1090   -2.7250 C.3    48  DT48        0.1558
    971  O3'      -11.1100    1.5430   -3.4310 O.3    48  DT48       -0.3138
    972  C2'       -9.2960    2.2490   -1.9320 C.3    48  DT48        0.0866
    973  C1'       -8.5940    1.5020   -0.7930 C.3    48  DT48        0.2106
    974  N1        -7.2090    1.3790   -1.0600 N.ar   48  DT48       -0.2559
    975  C2        -6.5750    2.6050   -0.9880 C.ar   48  DT48        0.3545
    976  O2        -7.1270    3.6170   -0.5920 O.2    48  DT48       -0.2443
    977  N3        -5.2640    2.6060   -1.3990 N.ar   48  DT48       -0.1533
    978  C4        -4.5390    1.5290   -1.8640 C.ar   48  DT48        0.2804
    979  O4        -3.3670    1.6860   -2.1960 O.2    48  DT48       -0.2654
    980  C5        -5.2670    0.2920   -1.9100 C.ar   48  DT48        0.0534
    981  C6        -6.5430    0.2630   -1.5160 C.ar   48  DT48        0.0824
    982  C7        -4.5650   -0.9390   -2.4030 C.3    48  DT48        0.0377
    983  P        -11.6370    1.0040   -5.2870 P.3    49  DT49        0.2141
    984  OP1      -12.5990    0.8110   -6.3960 O.2    49  DT49       -0.5172
    985  OP2      -10.4580    0.1220   -5.1340 O.3    49  DT49       -0.4373
    986  O5'      -10.9870    2.4590   -5.4290 O.3    49  DT49       -0.3114
    987  C5'      -11.7390    3.5550   -5.9290 C.3    49  DT49        0.1811
    988  C4'      -11.2650    4.8460   -5.3110 C.3    49  DT49        0.1746
    989  O4'      -10.4380    4.5200   -4.1650 O.3    49  DT49       -0.3327
    990  C3'      -10.3700    5.7380   -6.1610 C.3    49  DT49        0.1558
    991  O3'      -11.0970    6.5690   -7.0490 O.3    49  DT49       -0.3138
    992  C2'       -9.6270    6.5330   -5.1010 C.3    49  DT49        0.0866
    993  C1'       -9.4140    5.4740   -4.0230 C.3    49  DT49        0.2106
    994  N1        -8.0330    4.6060   -4.2260 N.ar   49  DT49       -0.2559
    995  C2        -6.8610    5.2780   -3.9340 C.ar   49  DT49        0.3545
    996  O2        -6.8280    6.4610   -3.6450 O.2    49  DT49       -0.2443
    997  N3        -5.7220    4.5120   -3.9940 N.ar   49  DT49       -0.1533
    998  C4        -5.6380    3.1720   -4.3100 C.ar   49  DT49        0.2804
    999  O4        -4.5410    2.6210   -4.3220 O.2    49  DT49       -0.2654
   1000  C5        -6.8970    2.5460   -4.6010 C.ar   49  DT49        0.0534
   1001  C6        -8.0200    3.2670   -4.5500 C.ar   49  DT49        0.0824
   1002  C7        -6.9110    1.0890   -4.9560 C.3    49  DT49        0.0377
   1003  P        -10.2460    7.4980   -8.3820 P.3    50  DT50        0.2141
   1004  OP1      -11.4440    7.7970   -9.1990 O.2    50  DT50       -0.5172
   1005  OP2       -9.4370    6.2860   -8.6450 O.3    50  DT50       -0.4373
   1006  O5'       -9.1980    8.7030   -8.4880 O.3    50  DT50       -0.3114
   1007  C5'       -9.4790    9.9010   -7.7810 C.3    50  DT50        0.1811
   1008  C4'       -8.2500   10.4310   -7.0890 C.3    50  DT50        0.1746
   1009  O4'       -7.6120    9.3670   -6.3390 O.3    50  DT50       -0.3327
   1010  C3'       -7.1500   10.9350   -8.0060 C.3    50  DT50        0.1558
   1011  O3'       -7.3990   12.2420   -8.4880 O.3    50  DT50       -0.3138
   1012  C2'       -5.9170   10.8250   -7.1200 C.3    50  DT50        0.0866
   1013  C1'       -6.2110    9.5280   -6.3690 C.3    50  DT50        0.2106
   1014  N1        -5.5660    8.2790   -6.9670 N.ar   50  DT50       -0.2559
   1015  C2        -4.1900    8.1740   -7.0260 C.ar   50  DT50        0.3545
   1016  O2        -3.4410    9.0890   -6.7350 O.2    50  DT50       -0.2443
   1017  N3        -3.7170    6.9520   -7.4410 N.ar   50  DT50       -0.1533
   1018  C4        -4.4670    5.8490   -7.7950 C.ar   50  DT50        0.2804
   1019  O4        -3.8980    4.8190   -8.1470 O.2    50  DT50       -0.2654
   1020  C5        -5.8870    6.0380   -7.7090 C.ar   50  DT50        0.0534
   1021  C6        -6.3740    7.2150   -7.3080 C.ar   50  DT50        0.0824
   1022  C7        -6.7880    4.8960   -8.0750 C.3    50  DT50        0.0377
   1023  P         -7.5510   12.4560   -9.5310 P.3    51  DG51        0.2141
   1024  OP1       -8.0440   13.7810   -9.9750 O.3    51  DG51       -0.4373
   1025  OP2       -8.1420   11.2040  -10.0570 O.2    51  DG51       -0.5172
   1026  O5'       -5.9980   12.3210   -9.8830 O.3    51  DG51       -0.3114
   1027  C5'       -5.0790   13.3640   -9.5970 C.3    51  DG51        0.1811
   1028  C4'       -3.7760   13.1130  -10.3110 C.3    51  DG51        0.1746
   1029  O4'       -3.0110   12.1060   -9.5980 O.3    51  DG51       -0.3327
   1030  C3'       -3.9350   12.5590  -11.7170 C.3    51  DG51        0.1558
   1031  O3'       -4.1560   13.5850  -12.6740 O.3    51  DG51       -0.3138
   1032  C2'       -2.6590   11.7490  -11.9240 C.3    51  DG51        0.0865
   1033  C1'       -2.3480   11.2590  -10.5070 C.3    51  DG51        0.2094
   1034  N9        -2.7460    9.8700  -10.1510 N.ar   51  DG51       -0.2713
   1035  C8        -3.9540    9.3760   -9.7220 C.ar   51  DG51        0.1816
   1036  N7        -3.9940    8.0720   -9.6900 N.ar   51  DG51       -0.2173
   1037  C5        -2.7410    7.6780  -10.1200 C.ar   51  DG51        0.1748
   1038  C6        -2.1890    6.3830  -10.2950 C.ar   51  DG51        0.3023
   1039  O6        -2.7280    5.2870  -10.0930 O.2    51  DG51       -0.2633
   1040  N1        -0.8760    6.4340  -10.7530 N.ar   51  DG51       -0.1709
   1041  C2        -0.1790    7.5910  -11.0100 C.ar   51  DG51        0.2606
   1042  N2         1.0790    7.4390  -11.4460 N.pl3  51  DG51       -0.0859
   1043  N3        -0.6780    8.8010  -10.8530 N.ar   51  DG51       -0.1918
   1044  C4        -1.9530    8.7760  -10.4100 C.ar   51  DG51        0.1722
   1045  P         -5.2150   13.1960  -13.8660 P.3    52  DG52        0.2141
   1046  OP1       -6.4470   14.0220  -13.8790 O.2    52  DG52       -0.5172
   1047  OP2       -5.3220   11.7190  -13.8190 O.3    52  DG52       -0.4373
   1048  O5'       -4.3550   13.5860  -15.1480 O.3    52  DG52       -0.3114
   1049  C5'       -3.7850   14.8990  -15.2690 C.3    52  DG52        0.1811
   1050  C4'       -2.6190   14.8830  -16.2280 C.3    52  DG52        0.1746
   1051  O4'       -1.6770   13.8460  -15.8370 O.3    52  DG52       -0.3327
   1052  C3'       -2.9180   14.5300  -17.6740 C.3    52  DG52        0.1558
   1053  O3'       -3.4710   15.6420  -18.3750 O.3    52  DG52       -0.3138
   1054  C2'       -1.5300   14.1590  -18.1860 C.3    52  DG52        0.0865
   1055  C1'       -0.9600   13.4090  -16.9830 C.3    52  DG52        0.2094
   1056  N9        -1.1440   12.0010  -17.2050 N.ar   52  DG52       -0.2713
   1057  C8        -2.0800   11.1940  -16.6060 C.ar   52  DG52        0.1816
   1058  N7        -1.9780    9.9400  -16.9550 N.ar   52  DG52       -0.2173
   1059  C5        -0.9130    9.9140  -17.8350 C.ar   52  DG52        0.1748
   1060  C6        -0.3280    8.8340  -18.5460 C.ar   52  DG52        0.3023
   1061  O6        -0.6560    7.6410  -18.5310 O.2    52  DG52       -0.2633
   1062  N1         0.7400    9.2490  -19.3360 N.ar   52  DG52       -0.1709
   1063  C2         1.1910   10.5440  -19.4290 C.ar   52  DG52        0.2606
   1064  N2         2.2360   10.7490  -20.2430 N.pl3  52  DG52       -0.0859
   1065  N3         0.6580   11.5570  -18.7760 N.ar   52  DG52       -0.1918
   1066  C4        -0.3820   11.1790  -18.0030 C.ar   52  DG52        0.1722
   1067  P         -3.9170   15.3140  -19.2810 P.3    53  DG53        0.2141
   1068  OP1       -4.3380   16.7110  -19.5390 O.2    53  DG53       -0.5172
   1069  OP2       -4.8990   14.2090  -19.1690 O.3    53  DG53       -0.4373
   1070  O5'       -2.9650   14.8620  -20.4850 O.3    53  DG53       -0.3114
   1071  C5'       -1.9360   15.7280  -20.9390 C.3    53  DG53        0.1811
   1072  C4'       -0.9550   15.0040  -21.8280 C.3    53  DG53        0.1746
   1073  O4'       -0.2330   14.0010  -21.0640 O.3    53  DG53       -0.3327
   1074  C3'       -1.5580   14.2020  -22.9690 C.3    53  DG53        0.1558
   1075  O3'       -1.9550   14.9910  -24.0720 O.3    53  DG53       -0.3138
   1076  C2'       -0.4410   13.2220  -23.2890 C.3    53  DG53        0.0865
   1077  C1'        0.0210   12.8760  -21.8770 C.3    53  DG53        0.2094
   1078  N9        -0.8290   11.7010  -21.3790 N.ar   53  DG53       -0.2713
   1079  C8        -1.8700   11.7810  -20.4850 C.ar   53  DG53        0.1816
   1080  N7        -2.4080   10.6230  -20.2150 N.ar   53  DG53       -0.2173
   1081  C5        -1.6820    9.7220  -20.9720 C.ar   53  DG53        0.1748
   1082  C6        -1.8020    8.3140  -21.0980 C.ar   53  DG53        0.3023
   1083  O6        -2.6080    7.5610  -20.5390 O.2    53  DG53       -0.2633
   1084  N1        -0.8600    7.7890  -21.9790 N.ar   53  DG53       -0.1709
   1085  C2         0.0810    8.5280  -22.6540 C.ar   53  DG53        0.2606
   1086  N2         0.9050    7.8430  -23.4590 N.pl3  53  DG53       -0.0859
   1087  N3         0.2040    9.8360  -22.5480 N.ar   53  DG53       -0.1918
   1088  C4        -0.7010   10.3690  -21.6990 C.ar   53  DG53        0.1722
   1089  P         -3.2230   14.4880  -24.7830 P.3    54  DG54        0.2141
   1090  OP1       -3.5930   15.7000  -25.5550 O.2    54  DG54       -0.5172
   1091  OP2       -4.1380   13.9810  -23.7330 O.3    54  DG54       -0.4373
   1092  O5'       -2.9670   13.3100  -25.8220 O.3    54  DG54       -0.3114
   1093  C5'       -1.8640   13.3770  -26.7400 C.3    54  DG54        0.1811
   1094  C4'       -1.4930   11.9960  -27.2240 C.3    54  DG54        0.1746
   1095  O4'       -1.2810   11.1180  -26.0840 O.3    54  DG54       -0.3327
   1096  C3'       -2.5350   11.2430  -28.0320 C.3    54  DG54        0.1558
   1097  O3'       -2.5720   11.7000  -29.3820 O.3    54  DG54       -0.3138
   1098  C2'       -2.0240    9.8110  -27.9220 C.3    54  DG54        0.0865
   1099  C1'       -1.5450    9.7770  -26.4710 C.3    54  DG54        0.2094
   1100  N9        -2.4600    9.2070  -25.5470 N.ar   54  DG54       -0.2713
   1101  C8        -3.2500    9.8860  -24.6520 C.ar   54  DG54        0.1816
   1102  N7        -4.0040    9.1010  -23.9320 N.ar   54  DG54       -0.2173
   1103  C5        -3.6950    7.8280  -24.3730 C.ar   54  DG54        0.1748
   1104  C6        -4.1940    6.5630  -23.9680 C.ar   54  DG54        0.3023
   1105  O6        -5.0420    6.3170  -23.1010 O.2    54  DG54       -0.2633
   1106  N1        -3.6090    5.5200  -24.6800 N.ar   54  DG54       -0.1709
   1107  C2        -2.6590    5.6760  -25.6610 C.ar   54  DG54        0.2606
   1108  N2        -2.2120    4.5500  -26.2340 N.pl3  54  DG54       -0.0859
   1109  N3        -2.1870    6.8440  -26.0490 N.ar   54  DG54       -0.1918
   1110  C4        -2.7420    7.8720  -25.3720 C.ar   54  DG54        0.1722
   1111  P         -3.7440   11.3710  -30.1710 P.3    55  DA55        0.2141
   1112  OP1       -3.5720   12.1460  -31.4210 O.2    55  DA55       -0.5172
   1113  OP2       -4.8060   11.7280  -29.2050 O.3    55  DA55       -0.4373
   1114  O5'       -4.0360    9.8490  -30.5570 O.3    55  DA55       -0.3114
   1115  C5'       -3.1950    9.2370  -31.5220 C.3    55  DA55        0.1811
   1116  C4'       -3.5950    7.8080  -31.7670 C.3    55  DA55        0.1746
   1117  O4'       -3.1880    6.9910  -30.6390 O.3    55  DA55       -0.3327
   1118  C3'       -5.0890    7.5470  -31.8630 C.3    55  DA55        0.1558
   1119  O3'       -5.6570    7.8890  -33.1100 O.3    55  DA55       -0.3138
   1120  C2'       -5.1630    6.0630  -31.5490 C.3    55  DA55        0.0865
   1121  C1'       -4.1540    5.9880  -30.4060 C.3    55  DA55        0.2094
   1122  N9        -4.9740    6.3260  -29.1610 N.ar   55  DA55       -0.2714
   1123  C8        -5.2090    7.5630  -28.6200 C.ar   55  DA55        0.1815
   1124  N7        -5.8650    7.5270  -27.4840 N.ar   55  DA55       -0.2193
   1125  C5        -6.0760    6.1750  -27.2650 C.ar   55  DA55        0.1518
   1126  C6        -6.7170    5.4730  -26.2290 C.ar   55  DA55        0.1919
   1127  N6        -7.2840    6.0660  -25.1750 N.pl3  55  DA55       -0.1054
   1128  N1        -6.7530    4.1260  -26.3140 N.ar   55  DA55       -0.2040
   1129  C2        -6.1840    3.5340  -27.3690 C.ar   55  DA55        0.2016
   1130  N3        -5.5530    4.0840  -28.4040 N.ar   55  DA55       -0.2048
   1131  C4        -5.5340    5.4230  -28.2900 C.ar   55  DA55        0.1691
   1132  P         -7.2130    8.5650  -33.0610 P.3    56  DG56        0.2141
   1133  OP1       -6.7960    8.6030  -34.4820 O.2    56  DG56       -0.5172
   1134  OP2       -7.6300    9.8130  -32.3790 O.3    56  DG56       -0.4373
   1135  O5'       -8.3560    7.4740  -32.9060 O.3    56  DG56       -0.3114
   1136  C5'       -7.9980    6.0830  -32.9770 C.3    56  DG56        0.1811
   1137  C4'       -8.2010    5.3900  -31.6450 C.3    56  DG56        0.1746
   1138  O4'       -7.5360    6.0830  -30.5530 O.3    56  DG56       -0.3327
   1139  C3'       -9.6250    5.3030  -31.1500 C.3    56  DG56        0.1558
   1140  O3'      -10.3420    4.3360  -31.8890 O.3    56  DG56       -0.3138
   1141  C2'       -9.4150    4.9080  -29.6920 C.3    56  DG56        0.0865
   1142  C1'       -8.2040    5.7700  -29.3310 C.3    56  DG56        0.2094
   1143  N9        -8.8440    6.5420  -28.5610 N.ar   56  DG56       -0.2713
   1144  C8        -8.4510    7.8310  -28.8310 C.ar   56  DG56        0.1816
   1145  N7        -8.8780    8.6950  -27.9510 N.ar   56  DG56       -0.2173
   1146  C5        -9.5930    7.9350  -27.0440 C.ar   56  DG56        0.1748
   1147  C6       -10.2930    8.3160  -25.8700 C.ar   56  DG56        0.3023
   1148  O6       -10.4190    9.4480  -25.3860 O.2    56  DG56       -0.2633
   1149  N1       -10.8850    7.2250  -25.2400 N.ar   56  DG56       -0.1709
   1150  C2       -10.8110    5.9270  -25.6850 C.ar   56  DG56        0.2606
   1151  N2       -11.4460    5.0100  -24.9420 N.pl3  56  DG56       -0.0859
   1152  N3       -10.1660    5.5580  -26.7740 N.ar   56  DG56       -0.1918
   1153  C4        -9.5840    6.6010  -27.4030 C.ar   56  DG56        0.1722
   1154  P        -12.0560    4.4840  -32.2230 P.3    57  DA57        0.2141
   1155  OP1      -12.2360    3.3910  -33.2100 O.2    57  DA57       -0.5172
   1156  OP2      -12.1960    5.8910  -32.6620 O.3    57  DA57       -0.4373
   1157  O5'      -13.1230    4.2390  -31.0710 O.3    57  DA57       -0.3114
   1158  C5'      -13.4390    2.9180  -30.6880 C.3    57  DA57        0.1811
   1159  C4'      -13.4910    2.8030  -29.1920 C.3    57  DA57        0.1746
   1160  O4'      -12.4760    3.6400  -28.5960 O.3    57  DA57       -0.3327
   1161  C3'      -14.7660    3.2900  -28.5570 C.3    57  DA57        0.1558
   1162  O3'      -15.7480    2.3110  -28.7060 O.3    57  DA57       -0.3138
   1163  C2'      -14.3310    3.5860  -27.1320 C.3    57  DA57        0.0865
   1164  C1'      -12.9610    4.2050  -27.3830 C.3    57  DA57        0.2094
   1165  N9       -13.3640    5.7920  -27.6070 N.ar   57  DA57       -0.2714
   1166  C8       -12.8400    6.4560  -28.6850 C.ar   57  DA57        0.1815
   1167  N7       -12.8720    7.7620  -28.5680 N.ar   57  DA57       -0.2193
   1168  C5       -13.4580    7.9700  -27.3300 C.ar   57  DA57        0.1518
   1169  C6       -13.7750    9.1400  -26.6180 C.ar   57  DA57        0.1919
   1170  N6       -13.5330   10.3720  -27.0740 N.pl3  57  DA57       -0.1054
   1171  N1       -14.3550    8.9990  -25.4070 N.ar   57  DA57       -0.2040
   1172  C2       -14.5960    7.7650  -24.9500 C.ar   57  DA57        0.2016
   1173  N3       -14.3430    6.5910  -25.5250 N.ar   57  DA57       -0.2048
   1174  C4       -13.7680    6.7660  -26.7270 C.ar   57  DA57        0.1691
   1175  P        -16.6750    2.5570  -29.5220 P.3    58  DC58        0.2141
   1176  OP1      -17.1310    1.4980  -30.4520 O.2    58  DC58       -0.5172
   1177  OP2      -16.6590    3.9770  -29.9710 O.3    58  DC58       -0.4373
   1178  O5'      -17.5830    2.4380  -28.2190 O.3    58  DC58       -0.3114
   1179  C5'      -17.5610    3.4640  -27.2160 C.3    58  DC58        0.1811
   1180  C4'      -18.1870    2.9660  -25.9380 C.3    58  DC58        0.1746
   1181  O4'      -19.5870    2.6640  -26.1850 O.3    58  DC58       -0.3327
   1182  C3'      -17.5700    1.7020  -25.3400 C.3    58  DC58        0.1558
   1183  O3'      -17.6570    1.7650  -23.9230 O.3    58  DC58       -0.3138
   1184  C2'      -18.4990    0.6090  -25.8560 C.3    58  DC58        0.0866
   1185  C1'      -19.8480    1.3200  -25.8330 C.3    58  DC58        0.2106
   1186  N1       -20.8860    0.8670  -26.8750 N.ar   58  DC58       -0.2556
   1187  C2       -22.1880    1.3640  -26.7470 C.ar   58  DC58        0.3531
   1188  O2       -22.4280    2.1890  -25.8490 O.2    58  DC58       -0.2443
   1189  N3       -23.1450    0.9320  -27.6030 N.ar   58  DC58       -0.1739
   1190  C4       -22.8420    0.0450  -28.5510 C.ar   58  DC58        0.1759
   1191  N4       -23.8190   -0.3510  -29.3710 N.pl3  58  DC58       -0.1070
   1192  C5       -21.5290   -0.4710  -28.6970 C.ar   58  DC58        0.0566
   1193  C6       -20.5860   -0.0420  -27.8500 C.ar   58  DC58        0.0849
   1194  P        -16.3090    1.8720  -22.9900 P.3    59  DA59        0.2141
   1195  OP1      -17.0800    1.7680  -21.7320 O.3    59  DA59       -0.4373
   1196  OP2      -15.4300    3.0390  -23.2270 O.2    59  DA59       -0.5172
   1197  O5'      -15.3210    0.6220  -23.1450 O.3    59  DA59       -0.3114
   1198  C5'      -15.8360   -0.6980  -23.2610 C.3    59  DA59        0.1811
   1199  C4'      -14.8280   -1.6400  -23.8730 C.3    59  DA59        0.1746
   1200  O4'      -14.5520   -1.2720  -25.2490 O.3    59  DA59       -0.3327
   1201  C3'      -13.4680   -1.6620  -23.2010 C.3    59  DA59        0.1558
   1202  O3'      -13.4780   -2.5110  -22.0670 O.3    59  DA59       -0.3138
   1203  C2'      -12.5370   -2.1130  -24.3200 C.3    59  DA59        0.0865
   1204  C1'      -13.1980   -1.5100  -25.5610 C.3    59  DA59        0.2094
   1205  N9       -12.7070   -0.1980  -26.0120 N.ar   59  DA59       -0.2714
   1206  C8       -13.1140    1.0670  -25.6780 C.ar   59  DA59        0.1815
   1207  N7       -12.3360    2.0140  -26.1470 N.ar   59  DA59       -0.2193
   1208  C5       -11.3500    1.3230  -26.8350 C.ar   59  DA59        0.1518
   1209  C6       -10.2250    1.7520  -27.5600 C.ar   59  DA59        0.1919
   1210  N6        -9.8930    3.0350  -27.7190 N.pl3  59  DA59       -0.1054
   1211  N1        -9.4440    0.8060  -28.1240 N.ar   59  DA59       -0.2040
   1212  C2        -9.7790   -0.4800  -27.9650 C.ar   59  DA59        0.2016
   1213  N3       -10.8100   -1.0060  -27.3080 N.ar   59  DA59       -0.2048
   1214  C4       -11.5650   -0.0400  -26.7590 C.ar   59  DA59        0.1691
   1215  P        -12.0410   -2.7360  -21.1480 P.3    60  DT60        0.2141
   1216  OP1      -12.0720   -3.5270  -19.8940 O.3    60  DT60       -0.4373
   1217  OP2      -12.4900   -1.3300  -21.1300 O.2    60  DT60       -0.5172
   1218  O5'      -10.5560   -2.7410  -21.7360 O.3    60  DT60       -0.3114
   1219  C5'       -9.8580   -3.9600  -22.0140 C.3    60  DT60        0.1811
   1220  C4'       -8.9240   -3.7730  -23.1930 C.3    60  DT60        0.1746
   1221  O4'       -9.5470   -2.8590  -24.1350 O.3    60  DT60       -0.3348
   1222  C3'       -7.5620   -3.1410  -22.9530 C.3    60  DT60        0.1600
   1223  O3'       -6.6050   -4.0870  -22.4870 O.3    60  DT60       -0.2710
   1224  C2'       -7.1980   -2.6720  -24.3520 C.3    60  DT60        0.0838
   1225  C1'       -8.5460   -2.1500  -24.8440 C.3    60  DT60        0.1993
   1226  N1        -8.7100   -0.7190  -24.5900 N.am   60  DT60       -0.2202
   1227  C2        -8.1290    0.2160  -25.4250 C.2    60  DT60        0.3329
   1228  O2        -7.2930   -0.0700  -26.2630 O.2    60  DT60       -0.2502
   1229  N3        -8.5640    1.5070  -25.2430 N.am   60  DT60       -0.1273
   1230  C4        -9.5000    1.9460  -24.3300 C.2    60  DT60        0.2523
   1231  O4        -9.7890    3.1400  -24.2860 O.2    60  DT60       -0.2727
   1232  C5       -10.0560    0.9160  -23.4990 C.3    60  DT60        0.1211
   1233  C6        -9.6510   -0.3480  -23.6550 C.3    60  DT60        0.2028
   1234  C7       -11.0830    1.2940  -22.4730 C.3    60  DT60        0.0135
   1235  P         -5.2000   -3.6360  -21.5840 P.3    61  DC61        0.5147
   1236  OP1       -4.3500   -4.8480  -21.4510 O.2    61  DC61       -0.2240
   1237  OP2       -5.2440   -2.6440  -20.4760 O.3    61  DC61       -0.0687
   1238  O5'       -4.7580   -2.8670  -22.9040 O.3    61  DC61       -0.2685
   1239  C5'       -4.5710   -3.5670  -24.1280 C.3    61  DC61        0.1856
   1240  C4'       -3.8330   -2.6920  -25.1030 C.3    61  DC61        0.1748
   1241  O4'       -4.7110   -1.6380  -25.5930 O.3    61  DC61       -0.3327
   1242  C3'       -2.6830   -1.9370  -24.4710 C.3    61  DC61        0.1558
   1243  O3'       -1.5270   -2.7480  -24.3340 O.3    61  DC61       -0.3138
   1244  C2'       -2.5140   -0.7720  -25.4330 C.3    61  DC61        0.0866
   1245  C1'       -3.9780   -0.4260  -25.7240 C.3    61  DC61        0.2106
   1246  N1        -4.4330    0.6020  -24.8240 N.ar   61  DC61       -0.2556
   1247  C2        -4.0760    1.9330  -25.0710 C.ar   61  DC61        0.3531
   1248  O2        -3.3830    2.1900  -26.0690 O.2    61  DC61       -0.2443
   1249  N3        -4.4950    2.8970  -24.2160 N.ar   61  DC61       -0.1739
   1250  C4        -5.2370    2.5730  -23.1570 C.ar   61  DC61        0.1759
   1251  N4        -5.6260    3.5570  -22.3430 N.pl3  61  DC61       -0.1070
   1252  C5        -5.6090    1.2310  -22.8890 C.ar   61  DC61        0.0566
   1253  C6        -5.1940    0.2820  -23.7350 C.ar   61  DC61        0.0849
   1254  P         -0.3870   -2.4220  -23.1540 P.3    62  DC62        0.2141
   1255  OP1        0.5670   -3.5410  -23.3220 O.2    62  DC62       -0.5172
   1256  OP2       -1.0390   -2.1080  -21.8670 O.3    62  DC62       -0.4373
   1257  O5'        0.3710   -1.0890  -23.6080 O.3    62  DC62       -0.3114
   1258  C5'        1.2670   -1.0410  -24.7000 C.3    62  DC62        0.1811
   1259  C4'        1.5370    0.3950  -25.1570 C.3    62  DC62        0.1746
   1260  O4'        0.2870    1.1280  -25.2760 O.3    62  DC62       -0.3327
   1261  C3'        2.3730    1.3010  -24.2540 C.3    62  DC62        0.1558
   1262  O3'        3.7830    1.0900  -24.3900 O.3    62  DC62       -0.3138
   1263  C2'        1.9730    2.6630  -24.8020 C.3    62  DC62        0.0866
   1264  C1'        0.4740    2.5000  -24.9850 C.3    62  DC62        0.2106
   1265  N1        -0.2240    2.9720  -23.7840 N.ar   62  DC62       -0.2556
   1266  C2        -0.2890    4.3370  -23.4810 C.ar   62  DC62        0.3531
   1267  O2         0.3640    5.1350  -24.1750 O.2    62  DC62       -0.2443
   1268  N3        -1.0570    4.7470  -22.4440 N.ar   62  DC62       -0.1739
   1269  C4        -1.7400    3.8540  -21.7260 C.ar   62  DC62        0.1759
   1270  N4        -2.4830    4.3040  -20.7130 N.pl3  62  DC62       -0.1070
   1271  C5        -1.6880    2.4670  -22.0170 C.ar   62  DC62        0.0566
   1272  C6        -0.9280    2.0660  -23.0420 C.ar   62  DC62        0.0849
   1273  P          4.7850    1.3140  -23.1200 P.3    63  DT63        0.2141
   1274  OP1        5.9280    0.4180  -22.8420 O.2    63  DT63       -0.5172
   1275  OP2        3.9370    1.8050  -21.9900 O.3    63  DT63       -0.4373
   1276  O5'        5.3390    2.5860  -23.8940 O.3    63  DT63       -0.3114
   1277  C5'        6.2660    3.4420  -23.2630 C.3    63  DT63        0.1811
   1278  C4'        5.6800    4.8220  -23.0740 C.3    63  DT63        0.1746
   1279  O4'        4.2390    4.8460  -23.1730 O.3    63  DT63       -0.3327
   1280  C3'        5.8900    5.3570  -21.6820 C.3    63  DT63        0.1558
   1281  O3'        7.1950    5.8270  -21.5280 O.3    63  DT63       -0.3138
   1282  C2'        4.8760    6.4810  -21.5780 C.3    63  DT63        0.0866
   1283  C1'        3.7390    5.9430  -22.4300 C.3    63  DT63        0.2106
   1284  N1         2.7530    5.5280  -21.5310 N.ar   63  DT63       -0.2559
   1285  C2         2.0340    6.4300  -20.7700 C.ar   63  DT63        0.3545
   1286  O2         2.2310    7.6320  -20.8020 O.2    63  DT63       -0.2443
   1287  N3         1.0720    5.8720  -19.9640 N.ar   63  DT63       -0.1533
   1288  C4         0.7630    4.5330  -19.8460 C.ar   63  DT63        0.2804
   1289  O4        -0.1310    4.1840  -19.0780 O.2    63  DT63       -0.2654
   1290  C5         1.5530    3.6600  -20.6670 C.ar   63  DT63        0.0534
   1291  C6         2.4960    4.1760  -21.4600 C.ar   63  DT63        0.0824
   1292  C7         1.2930    2.1840  -20.6090 C.3    63  DT63        0.0377
   1293  P          7.7510    5.8990  -20.1230 P.3    64  DA64        0.2141
   1294  OP1        9.2040    5.6140  -20.0570 O.2    64  DA64       -0.5172
   1295  OP2        6.9170    5.8110  -18.9040 O.3    64  DA64       -0.4373
   1296  O5'        7.5010    7.3900  -20.6640 O.3    64  DA64       -0.3114
   1297  C5'        6.2610    8.0640  -20.4870 C.3    64  DA64        0.1811
   1298  C4'        6.3870    9.5280  -20.8360 C.3    64  DA64        0.1746
   1299  O4'        7.7160    9.9730  -20.4520 O.3    64  DA64       -0.3327
   1300  C3'        6.2600    9.8960  -22.3140 C.3    64  DA64        0.1558
   1301  O3'        4.9190   10.1200  -22.7310 O.3    64  DA64       -0.3138
   1302  C2'        7.1490   11.1300  -22.4490 C.3    64  DA64        0.0865
   1303  C1'        8.2430   10.8580  -21.4150 C.3    64  DA64        0.2094
   1304  N9         9.4350   10.2090  -22.0020 N.ar   64  DA64       -0.2714
   1305  C8        10.0130    9.0500  -21.5540 C.ar   64  DA64        0.1815
   1306  N7        11.0640    8.6800  -22.2480 N.ar   64  DA64       -0.2193
   1307  C5        11.1820    9.6620  -23.2190 C.ar   64  DA64        0.1518
   1308  C6        12.0990    9.8490  -24.2680 C.ar   64  DA64        0.1919
   1309  N6        13.1120    9.0180  -24.5220 N.pl3  64  DA64       -0.1054
   1310  N1        11.9360   10.9330  -25.0560 N.ar   64  DA64       -0.2040
   1311  C2        10.9210   11.7670  -24.8010 C.ar   64  DA64        0.2016
   1312  N3         9.9970   11.6980  -23.8450 N.ar   64  DA64       -0.2048
   1313  C4        10.1860   10.6100  -23.0800 C.ar   64  DA64        0.1691
   1314  P          4.3100    9.4170  -24.2100 P.3    65  DT65        0.2141
   1315  OP1        2.8910    9.2610  -24.6110 O.2    65  DT65       -0.5172
   1316  OP2        5.1280    8.2220  -23.9030 O.3    65  DT65       -0.4373
   1317  O5'        5.1390   10.1540  -25.3680 O.3    65  DT65       -0.3114
   1318  C5'        4.9680   11.5370  -25.6510 C.3    65  DT65        0.1811
   1319  C4'        5.9500   12.0280  -26.6890 C.3    65  DT65        0.1746
   1320  O4'        7.2850   12.1320  -26.1210 O.3    65  DT65       -0.3327
   1321  C3'        6.1550   11.1320  -27.9020 C.3    65  DT65        0.1558
   1322  O3'        5.1170   11.2080  -28.8620 O.3    65  DT65       -0.3138
   1323  C2'        7.5040   11.6050  -28.4220 C.3    65  DT65        0.0866
   1324  C1'        8.2520   11.8350  -27.1100 C.3    65  DT65        0.2106
   1325  N1         9.0170   10.6670  -26.6880 N.ar   65  DT65       -0.2559
   1326  C2        10.2670   10.5020  -27.2520 C.ar   65  DT65        0.3545
   1327  O2        10.7540   11.3000  -28.0340 O.2    65  DT65       -0.2443
   1328  N3        10.9320    9.3620  -26.8680 N.ar   65  DT65       -0.1533
   1329  C4        10.4810    8.3940  -25.9960 C.ar   65  DT65        0.2804
   1330  O4        11.1940    7.4240  -25.7470 O.2    65  DT65       -0.2654
   1331  C5         9.1740    8.6370  -25.4530 C.ar   65  DT65        0.0534
   1332  C6         8.5060    9.7370  -25.8100 C.ar   65  DT65        0.0824
   1333  C7         8.5950    7.6400  -24.4940 C.3    65  DT65        0.0377
   1334  P          4.7780    9.8690  -29.7290 P.3    66  DG66        0.2141
   1335  OP1        3.6820   10.3610  -30.5810 O.2    66  DG66       -0.5172
   1336  OP2        4.6530    8.5770  -29.0310 O.3    66  DG66       -0.4373
   1337  O5'        6.1120    9.8470  -30.6050 O.3    66  DG66       -0.3114
   1338  C5'        6.1880   10.6260  -31.7920 C.3    66  DG66        0.1811
   1339  C4'        7.5170   10.4420  -32.5250 C.3    66  DG66        0.1746
   1340  O4'        8.6420   10.6270  -31.6320 O.3    66  DG66       -0.3327
   1341  C3'        7.7760    9.0680  -33.1140 C.3    66  DG66        0.1558
   1342  O3'        7.1290    8.9280  -34.3350 O.3    66  DG66       -0.3138
   1343  C2'        9.2650    9.1420  -33.3470 C.3    66  DG66        0.0865
   1344  C1'        9.6910    9.7570  -32.0290 C.3    66  DG66        0.2093
   1345  N9         9.9060    8.6530  -30.9680 N.ar   66  DG66       -0.2728
   1346  C8         9.1130    8.3940  -29.8770 C.ar   66  DG66        0.1814
   1347  N7         9.6170    7.4970  -29.0740 N.ar   66  DG66       -0.2177
   1348  C5        10.8150    7.1420  -29.6660 C.ar   66  DG66        0.1711
   1349  C6        11.8050    6.2100  -29.2600 C.2    66  DG66        0.2985
   1350  O6        11.8110    5.4880  -28.2550 O.2    66  DG66       -0.2655
   1351  N1        12.8680    6.1570  -30.1570 N.am   66  DG66       -0.1042
   1352  C2        12.9670    6.9100  -31.3020 C.1    66  DG66        0.1460
   1353  N2        14.0690    6.7210  -32.0400 N.2    66  DG66       -0.0024
   1354  N3        12.0560    7.7790  -31.6920 N.pl3  66  DG66       -0.1259
   1355  C4        11.0130    7.8460  -30.8380 C.ar   66  DG66        0.1688
   1356  P          6.5930    7.6230  -34.6250 P.3    67  DC67        0.2141
   1357  OP1        5.4360    7.9930  -35.4780 O.2    67  DC67       -0.5172
   1358  OP2        6.3610    6.8550  -33.3570 O.3    67  DC67       -0.4373
   1359  O5'        7.6100    6.7540  -35.4960 O.3    67  DC67       -0.3114
   1360  C5'        8.3710    7.3520  -36.5430 C.3    67  DC67        0.1811
   1361  C4'        9.8380    7.0880  -36.3320 C.3    67  DC67        0.1744
   1362  O4'       10.1930    7.4180  -34.9630 O.3    67  DC67       -0.3348
   1363  C3'       10.3220    5.6510  -36.4230 C.3    67  DC67        0.1555
   1364  O3'       10.4480    5.2460  -37.7730 O.3    67  DC67       -0.3139
   1365  C2'       11.6940    5.7790  -35.7790 C.3    67  DC67        0.0836
   1366  C1'       11.3980    6.7490  -34.6350 C.3    67  DC67        0.1999
   1367  N1        11.3490    6.1160  -33.5100 N.pl3  67  DC67       -0.2132
   1368  C2        12.4600    5.6310  -32.8110 C.2    67  DC67        0.4331
   1369  O2        13.5950    5.8320  -33.2770 O.2    67  DC67       -0.2850
   1370  N3        12.2680    4.9580  -31.6510 N.2    67  DC67        0.0237
   1371  C4        11.0320    4.7650  -31.1890 C.2    67  DC67        0.4172
   1372  N4        10.8910    4.0950  -30.0430 N.pl3  67  DC67        0.2162
   1373  C5         9.8930    5.2480  -31.8830 C.2    67  DC67        0.0937
   1374  C6        10.0870    5.9130  -33.0270 C.3    67  DC67        0.1340
   1375  P         10.6590    3.6580  -38.1660 P.3    68  DG68        0.2141
   1376  OP1        9.8910    3.3500  -39.4010 O.2    68  DG68       -0.5172
   1377  OP2       10.2840    2.9900  -36.8870 O.3    68  DG68       -0.4373
   1378  O5'       12.1900    3.3770  -38.4600 O.3    68  DG68       -0.3114
   1379  C5'       12.7840    2.1710  -38.0600 C.3    68  DG68        0.1811
   1380  C4'       14.1420    2.4430  -37.5020 C.3    68  DG68        0.1746
   1381  O4'       14.0380    3.3380  -36.3600 O.3    68  DG68       -0.3327
   1382  C3'       14.7900    1.2110  -36.9240 C.3    68  DG68        0.1558
   1383  O3'       15.3230    0.4170  -37.9590 O.3    68  DG68       -0.3138
   1384  C2'       15.7990    1.8170  -35.9760 C.3    68  DG68        0.0865
   1385  C1'       14.9400    2.9190  -35.3490 C.3    68  DG68        0.2094
   1386  N9        14.1430    2.4630  -34.2040 N.ar   68  DG68       -0.2713
   1387  C8        12.7780    2.5350  -34.0710 C.ar   68  DG68        0.1816
   1388  N7        12.3470    2.0750  -32.9280 N.ar   68  DG68       -0.2173
   1389  C5        13.4930    1.6770  -32.2640 C.ar   68  DG68        0.1748
   1390  C6        13.6630    1.0970  -30.9810 C.ar   68  DG68        0.3023
   1391  O6        12.7930    0.8120  -30.1480 O.2    68  DG68       -0.2633
   1392  N1        15.0020    0.8450  -30.6960 N.ar   68  DG68       -0.1709
   1393  C2        16.0490    1.1190  -31.5430 C.ar   68  DG68        0.2606
   1394  N2        17.2710    0.8070  -31.0920 N.pl3  68  DG68       -0.0859
   1395  N3        15.9070    1.6570  -32.7380 N.ar   68  DG68       -0.1918
   1396  C4        14.6150    1.9090  -33.0370 C.ar   68  DG68        0.1722
   1397  P         14.7960   -1.5320  -38.3110 P.3    69  DT69        0.2141
   1398  OP1       15.3120   -2.3470  -39.4600 O.2    69  DT69       -0.5172
   1399  OP2       13.3720   -1.6560  -37.8880 O.3    69  DT69       -0.4373
   1400  O5'       15.7540   -1.8490  -37.0830 O.3    69  DT69       -0.3114
   1401  C5'       16.4040   -3.1190  -37.0090 C.3    69  DT69        0.1811
   1402  C4'       17.0970   -3.2840  -35.6870 C.3    69  DT69        0.1746
   1403  O4'       16.9420   -2.1360  -34.7910 O.3    69  DT69       -0.3327
   1404  C3'       16.5030   -4.4140  -34.9000 C.3    69  DT69        0.1558
   1405  O3'       16.9380   -5.6230  -35.4620 O.3    69  DT69       -0.3138
   1406  C2'       17.0260   -4.1280  -33.5080 C.3    69  DT69        0.0866
   1407  C1'       16.8620   -2.6020  -33.4480 C.3    69  DT69        0.2106
   1408  N1        15.5290   -2.1500  -32.8870 N.ar   69  DT69       -0.2559
   1409  C2        15.3090   -2.2030  -31.5240 C.ar   69  DT69        0.3545
   1410  O2        16.0980   -2.7040  -30.7430 O.2    69  DT69       -0.2443
   1411  N3        14.1240   -1.6470  -31.1050 N.ar   69  DT69       -0.1533
   1412  C4        13.1600   -1.0560  -31.8950 C.ar   69  DT69        0.2804
   1413  O4        12.1460   -0.5990  -31.3720 O.2    69  DT69       -0.2654
   1414  C5        13.4610   -1.0410  -33.2980 C.ar   69  DT69        0.0534
   1415  C6        14.6060   -1.5750  -33.7330 C.ar   69  DT69        0.0824
   1416  C7        12.4730   -0.4200  -34.2400 C.3    69  DT69        0.0377
   1417  P         15.8760   -6.8560  -35.6420 P.3    70  DG70        0.2141
   1418  OP1       16.2440   -7.7720  -36.7450 O.2    70  DG70       -0.5172
   1419  OP2       14.4800   -6.3940  -35.4610 O.3    70  DG70       -0.4373
   1420  O5'       16.2710   -7.5160  -34.2340 O.3    70  DG70       -0.3114
   1421  C5'       17.6420   -7.7040  -33.9070 C.3    70  DG70        0.1811
   1422  C4'       17.8850   -7.9280  -32.4300 C.3    70  DG70        0.1746
   1423  O4'       17.5490   -6.7440  -31.6550 O.3    70  DG70       -0.3327
   1424  C3'       17.0990   -9.0500  -31.7630 C.3    70  DG70        0.1558
   1425  O3'       17.6620  -10.3330  -31.9890 O.3    70  DG70       -0.3138
   1426  C2'       17.1100   -8.6530  -30.2910 C.3    70  DG70        0.0865
   1427  C1'       17.1820   -7.1230  -30.3450 C.3    70  DG70        0.2094
   1428  N9        15.8350   -6.5690  -30.0950 N.ar   70  DG70       -0.2713
   1429  C8        14.9870   -6.0120  -31.0210 C.ar   70  DG70        0.1816
   1430  N7        13.8830   -5.5520  -30.4990 N.ar   70  DG70       -0.2173
   1431  C5        14.0060   -5.8180  -29.1480 C.ar   70  DG70        0.1748
   1432  C6        13.1220   -5.5530  -28.0700 C.ar   70  DG70        0.3023
   1433  O6        12.0130   -5.0070  -28.1060 O.2    70  DG70       -0.2633
   1434  N1        13.6380   -5.9910  -26.8540 N.ar   70  DG70       -0.1709
   1435  C2        14.8560   -6.6090  -26.6950 C.ar   70  DG70        0.2606
   1436  N2        15.1820   -6.9590  -25.4430 N.pl3  70  DG70       -0.0859
   1437  N3        15.6870   -6.8630  -27.6860 N.ar   70  DG70       -0.1918
   1438  C4        15.2060   -6.4470  -28.8770 C.ar   70  DG70        0.1722
   1439  P         16.7150  -11.7430  -31.7760 P.3    71  DC71        0.2141
   1440  OP1       17.3510  -13.0290  -32.1380 O.3    71  DC71       -0.4373
   1441  OP2       15.7590  -11.1100  -32.7190 O.2    71  DC71       -0.5172
   1442  O5'       15.9940  -11.9290  -30.3740 O.3    71  DC71       -0.3114
   1443  C5'       16.7320  -12.3670  -29.2380 C.3    71  DC71        0.1812
   1444  C4'       15.9230  -12.1660  -27.9850 C.3    71  DC71        0.1775
   1445  O4'       15.5930  -10.7600  -27.8390 O.3    71  DC71       -0.3326
   1446  C3'       14.5680  -12.8460  -27.9440 C.3    71  DC71        0.1864
   1447  O3'       14.6800  -14.2180  -27.5980 O.3    71  DC71       -0.2133
   1448  C2'       13.8600  -12.0540  -26.8570 C.3    71  DC71        0.0895
   1449  C1'       14.3600  -10.6380  -27.1500 C.3    71  DC71        0.2107
   1450  N1        13.4160   -9.8170  -27.9660 N.ar   71  DC71       -0.2556
   1451  C2        12.4360   -9.0740  -27.2980 C.ar   71  DC71        0.3531
   1452  O2        12.3700   -9.1490  -26.0590 O.2    71  DC71       -0.2443
   1453  N3        11.5910   -8.2990  -28.0180 N.ar   71  DC71       -0.1739
   1454  C4        11.6980   -8.2500  -29.3460 C.ar   71  DC71        0.1759
   1455  N4        10.8430   -7.4730  -30.0140 N.pl3  71  DC71       -0.1070
   1456  C5        12.6840   -8.9950  -30.0420 C.ar   71  DC71        0.0566
   1457  C6        13.5170   -9.7600  -29.3270 C.ar   71  DC71        0.0849
   1458  P         13.2660  -15.1290  -27.5870 P.3    72  DT72        0.3939
   1459  OP1       13.3790  -16.6080  -27.3970 O.3    72  DT72       -0.1425
   1460  OP2       13.7230  -14.4940  -28.8720 O.3    72  DT72       -0.1496
   1461  O5'       11.7430  -14.7300  -27.3280 O.3    72  DT72       -0.2925
   1462  C5'       11.1320  -15.0410  -26.0930 C.3    72  DT72        0.1854
   1463  C4'       10.3760  -13.8510  -25.5960 C.3    72  DT72        0.1992
   1464  O4'       10.9180  -12.6570  -26.2120 O.3    72  DT72       -0.3301
   1465  C3'        8.9070  -13.8310  -25.9650 C.3    72  DT72        0.2381
   1466  O3'        8.1690  -14.5350  -24.9900 O.3    72  DT72       -0.2491
   1467  C2'        8.5760  -12.3480  -25.9320 C.3    72  DT72        0.1137
   1468  C1'        9.8680  -11.7400  -26.4800 C.3    72  DT72        0.2132
   1469  N1         9.7300  -11.4630  -27.9300 N.ar   72  DT72       -0.2558
   1470  C2         8.8470  -10.5470  -28.4710 C.ar   72  DT72        0.3545
   1471  O2         7.9940   -9.9780  -27.8130 O.2    72  DT72       -0.2443
   1472  N3         8.9980  -10.3190  -29.8170 N.ar   72  DT72       -0.1533
   1473  C4         9.9230  -10.9020  -30.6590 C.ar   72  DT72        0.2804
   1474  O4         9.9360  -10.5950  -31.8480 O.2    72  DT72       -0.2654
   1475  C5        10.8030  -11.8420  -30.0230 C.ar   72  DT72        0.0534
   1476  C6        10.6780  -12.0820  -28.7150 C.ar   72  DT72        0.0824
   1477  C7        11.8440  -12.5300  -30.8550 C.3    72  DT72        0.0377
   1478  P          7.0300  -15.1610  -25.4300 P.3    73  DA73        0.4833
   1479  OP1        6.2460  -16.3720  -25.7600 O.2    73  DA73       -0.2269
   1480  OP2        7.6960  -14.3890  -26.5020 O.3    73  DA73       -0.2491
   1481  O5'        6.0850  -14.0980  -24.6990 O.3    73  DA73       -0.2704
   1482  C5'        4.8590  -13.7130  -25.3040 C.3    73  DA73        0.1856
   1483  C4'        3.9500  -12.9830  -24.3470 C.3    73  DA73        0.1748
   1484  O4'        3.5510  -13.9250  -23.3140 O.3    73  DA73       -0.3327
   1485  C3'        4.5830  -11.7920  -23.6280 C.3    73  DA73        0.1558
   1486  O3'        4.1080  -10.5250  -24.0700 O.3    73  DA73       -0.3138
   1487  C2'        4.2370  -11.9680  -22.1520 C.3    73  DA73        0.0865
   1488  C1'        3.7390  -13.4010  -22.0150 C.3    73  DA73        0.2094
   1489  N9         4.7810  -14.2760  -21.4270 N.ar   73  DA73       -0.2714
   1490  C8         5.9030  -14.8120  -22.0010 C.ar   73  DA73        0.1815
   1491  N7         6.6720  -15.4580  -21.1570 N.ar   73  DA73       -0.2193
   1492  C5         6.0100  -15.3380  -19.9460 C.ar   73  DA73        0.1518
   1493  C6         6.3070  -15.8060  -18.6540 C.ar   73  DA73        0.1919
   1494  N6         7.3960  -16.5210  -18.3600 N.pl3  73  DA73       -0.1054
   1495  N1         5.4370  -15.5120  -17.6650 N.ar   73  DA73       -0.2040
   1496  C2         4.3460  -14.7960  -17.9610 C.ar   73  DA73        0.2016
   1497  N3         3.9580  -14.3020  -19.1340 N.ar   73  DA73       -0.2048
   1498  C4         4.8440  -14.6110  -20.0960 C.ar   73  DA73        0.1691
   1499  P          5.3010   -9.5490  -24.3290 P.3    74  DC74        0.2141
   1500  OP1        4.5230   -8.5160  -25.0480 O.2    74  DC74       -0.5172
   1501  OP2        6.7230   -9.7680  -24.6570 O.3    74  DC74       -0.4373
   1502  O5'        5.2410   -9.2650  -22.7670 O.3    74  DC74       -0.3114
   1503  C5'        4.0720   -8.6940  -22.1940 C.3    74  DC74        0.1811
   1504  C4'        4.2210   -8.6330  -20.6870 C.3    74  DC74        0.1746
   1505  O4'        4.0780   -9.9710  -20.1600 O.3    74  DC74       -0.3327
   1506  C3'        5.5560   -8.1030  -20.1620 C.3    74  DC74        0.1558
   1507  O3'        5.2780   -7.2200  -19.0880 O.3    74  DC74       -0.3138
   1508  C2'        6.3070   -9.3600  -19.7170 C.3    74  DC74        0.0866
   1509  C1'        5.1500  -10.2520  -19.2800 C.3    74  DC74        0.2106
   1510  N1         5.5610  -11.4880  -19.2950 N.ar   74  DC74       -0.2556
   1511  C2         5.7290  -12.2830  -18.1550 C.ar   74  DC74        0.3531
   1512  O2         4.9620  -12.1180  -17.1920 O.2    74  DC74       -0.2443
   1513  N3         6.7210  -13.2060  -18.1360 N.ar   74  DC74       -0.1739
   1514  C4         7.5210  -13.3480  -19.1930 C.ar   74  DC74        0.1759
   1515  N4         8.4850  -14.2690  -19.1280 N.pl3  74  DC74       -0.1070
   1516  C5         7.3670  -12.5520  -20.3570 C.ar   74  DC74        0.0566
   1517  C6         6.3860  -11.6420  -20.3720 C.ar   74  DC74        0.0849
   1518  P          6.1370   -5.4790  -18.8980 P.3    75  DC75        0.2141
   1519  OP1        5.6550   -4.9710  -17.5910 O.3    75  DC75       -0.4373
   1520  OP2        6.0030   -4.6320  -20.1020 O.2    75  DC75       -0.5172
   1521  O5'        7.6570   -5.9140  -18.7300 O.3    75  DC75       -0.3114
   1522  C5'        8.7270   -5.0810  -19.1720 C.3    75  DC75        0.1811
   1523  C4'        9.9190   -5.9320  -19.5130 C.3    75  DC75        0.1746
   1524  O4'        9.6050   -6.7910  -20.6380 O.3    75  DC75       -0.3327
   1525  C3'       11.1460   -5.1750  -19.9780 C.3    75  DC75        0.1558
   1526  O3'       11.8620   -4.7080  -18.8510 O.3    75  DC75       -0.3138
   1527  C2'       11.9230   -6.2450  -20.7350 C.3    75  DC75        0.0866
   1528  C1'       10.7880   -7.0530  -21.3730 C.3    75  DC75        0.2106
   1529  N1        10.5110   -6.7750  -22.7310 N.ar   75  DC75       -0.2556
   1530  C2        11.5100   -7.0260  -23.6780 C.ar   75  DC75        0.3531
   1531  O2        12.5750   -7.5450  -23.3010 O.2    75  DC75       -0.2443
   1532  N3        11.2900   -6.6960  -24.9730 N.ar   75  DC75       -0.1739
   1533  C4        10.1320   -6.1390  -25.3310 C.ar   75  DC75        0.1759
   1534  N4         9.9600   -5.8310  -26.6190 N.pl3  75  DC75       -0.1070
   1535  C5         9.1070   -5.8770  -24.3870 C.ar   75  DC75        0.0566
   1536  C6         9.3290   -6.2040  -23.1090 C.ar   75  DC75        0.0849
   1537  P         12.7910   -3.4500  -19.0450 P.3    76  DG76        0.2141
   1538  OP1       12.9420   -3.2130  -17.5880 O.3    76  DG76       -0.4373
   1539  OP2       12.4920   -2.3370  -19.9790 O.2    76  DG76       -0.5172
   1540  O5'       14.0870   -4.1630  -19.6600 O.3    76  DG76       -0.3114
   1541  C5'       15.4060   -3.6770  -19.5020 C.3    76  DG76        0.1811
   1542  C4'       16.2950   -4.2380  -20.5730 C.3    76  DG76        0.1746
   1543  O4'       15.4910   -4.8450  -21.6140 O.3    76  DG76       -0.3327
   1544  C3'       17.0850   -3.1850  -21.3180 C.3    76  DG76        0.1558
   1545  O3'       18.2280   -2.7580  -20.6150 O.3    76  DG76       -0.3138
   1546  C2'       17.3820   -3.8480  -22.6510 C.3    76  DG76        0.0865
   1547  C1'       16.0730   -4.5950  -22.8800 C.3    76  DG76        0.2094
   1548  N9        15.2510   -3.9240  -23.7810 N.ar   76  DG76       -0.2713
   1549  C8        13.9940   -3.4970  -23.4270 C.ar   76  DG76        0.1816
   1550  N7        13.2720   -3.1180  -24.4470 N.ar   76  DG76       -0.2173
   1551  C5        14.0970   -3.3070  -25.5400 C.ar   76  DG76        0.1748
   1552  C6        13.8690   -3.0720  -26.9200 C.ar   76  DG76        0.3023
   1553  O6        12.8490   -2.6320  -27.4640 O.2    76  DG76       -0.2633
   1554  N1        14.9790   -3.4000  -27.6940 N.ar   76  DG76       -0.1709
   1555  C2        16.1620   -3.8950  -27.2000 C.ar   76  DG76        0.2606
   1556  N2        17.1180   -4.1530  -28.1020 N.pl3  76  DG76       -0.0859
   1557  N3        16.3890   -4.1180  -25.9200 N.ar   76  DG76       -0.1918
   1558  C4        15.3250   -3.8060  -25.1490 C.ar   76  DG76        0.1722
   1559  P         18.2350   -1.6690  -20.7680 P.3    77  DT77        0.2141
   1560  OP1       19.4570   -1.4350  -19.9590 O.3    77  DT77       -0.4373
   1561  OP2       17.0290   -0.8530  -20.5060 O.2    77  DT77       -0.5172
   1562  O5'       18.6170   -1.5130  -22.3080 O.3    77  DT77       -0.3114
   1563  C5'       19.8260   -2.0690  -22.8060 C.3    77  DT77        0.1811
   1564  C4'       20.0010   -1.7520  -24.2720 C.3    77  DT77        0.1746
   1565  O4'       18.9120   -2.3440  -25.0260 O.3    77  DT77       -0.3327
   1566  C3'       19.9780   -0.2790  -24.6490 C.3    77  DT77        0.1558
   1567  O3'       21.2750    0.2970  -24.5020 O.3    77  DT77       -0.3138
   1568  C2'       19.5590   -0.3340  -26.1140 C.3    77  DT77        0.0866
   1569  C1'       18.5650   -1.4980  -26.1080 C.3    77  DT77        0.2106
   1570  N1        17.1680   -1.1060  -25.9500 N.ar   77  DT77       -0.2559
   1571  C2        16.5240   -0.5620  -27.0450 C.ar   77  DT77        0.3545
   1572  O2        17.0710   -0.3920  -28.1210 O.2    77  DT77       -0.2443
   1573  N3        15.2100   -0.2190  -26.8360 N.ar   77  DT77       -0.1533
   1574  C4        14.4910   -0.3630  -25.6680 C.ar   77  DT77        0.2804
   1575  O4        13.3150   -0.0100  -25.6340 O.2    77  DT77       -0.2654
   1576  C5        15.2290   -0.9340  -24.5770 C.ar   77  DT77        0.0534
   1577  C6        16.5080   -1.2760  -24.7520 C.ar   77  DT77        0.0824
   1578  C7        14.5340   -1.1310  -23.2620 C.3    77  DT77        0.0377
   1579  P         21.4150    1.8270  -24.2780 P.3    78  DG78        0.2141
   1580  OP1       22.8360    2.1670  -24.0320 O.2    78  DG78       -0.5172
   1581  OP2       20.3740    2.3400  -23.3620 O.3    78  DG78       -0.4373
   1582  O5'       20.9690    2.3920  -25.7080 O.3    78  DG78       -0.3114
   1583  C5'       21.7580    2.0660  -26.8400 C.3    78  DG78        0.1811
   1584  C4'       21.1850    2.6170  -28.1200 C.3    78  DG78        0.1746
   1585  O4'       19.8890    2.0260  -28.4090 O.3    78  DG78       -0.3327
   1586  C3'       20.9210    4.1110  -28.1470 C.3    78  DG78        0.1558
   1587  O3'       22.1090    4.8670  -28.3280 O.3    78  DG78       -0.3138
   1588  C2'       19.9310    4.2230  -29.3040 C.3    78  DG78        0.0865
   1589  C1'       19.1170    2.9330  -29.1680 C.3    78  DG78        0.2094
   1590  N9        17.7460    3.1680  -28.6030 N.ar   78  DG78       -0.2713
   1591  C8        17.3680    2.8480  -27.3220 C.ar   78  DG78        0.1816
   1592  N7        16.0760    2.9000  -27.1380 N.ar   78  DG78       -0.2173
   1593  C5        15.5690    3.2720  -28.3690 C.ar   78  DG78        0.1748
   1594  C6        14.2320    3.4920  -28.7890 C.ar   78  DG78        0.3023
   1595  O6        13.1940    3.3940  -28.1220 O.2    78  DG78       -0.2633
   1596  N1        14.1610    3.8620  -30.1290 N.ar   78  DG78       -0.1709
   1597  C2        15.2440    4.0010  -30.9630 C.ar   78  DG78        0.2606
   1598  N2        14.9760    4.3640  -32.2240 N.pl3  78  DG78       -0.0859
   1599  N3        16.4920    3.8010  -30.5870 N.ar   78  DG78       -0.1918
   1600  C4        16.5860    3.4430  -29.2890 C.ar   78  DG78        0.1722
   1601  P         22.3080    6.4890  -27.7840 P.3    79  DA79        0.2141
   1602  OP1       23.7620    6.7490  -27.9800 O.2    79  DA79       -0.5172
   1603  OP2       21.7150    6.6330  -26.4280 O.3    79  DA79       -0.4373
   1604  O5'       21.4670    7.4030  -28.7790 O.3    79  DA79       -0.3113
   1605  C5'       21.9060    7.6070  -30.1070 C.3    79  DA79        0.1836
   1606  C4'       20.8570    8.3300  -30.8990 C.3    79  DA79        0.1992
   1607  O4'       19.6700    7.5070  -30.9600 O.3    79  DA79       -0.3301
   1608  C3'       20.3380    9.6290  -30.3120 C.3    79  DA79        0.2381
   1609  O3'       21.1740   10.7320  -30.5430 O.3    79  DA79       -0.2491
   1610  C2'       18.9860    9.7700  -30.9820 C.3    79  DA79        0.1137
   1611  C1'       18.5100    8.3290  -30.9520 C.3    79  DA79        0.2120
   1612  N9        17.7190    8.1220  -29.7260 N.ar   79  DA79       -0.2714
   1613  C8        18.0780    7.3190  -28.6750 C.ar   79  DA79        0.1815
   1614  N7        17.1260    7.1550  -27.7860 N.ar   79  DA79       -0.2193
   1615  C5        16.0720    7.9010  -28.2880 C.ar   79  DA79        0.1518
   1616  C6        14.7700    8.1380  -27.8120 C.ar   79  DA79        0.1919
   1617  N6        14.2920    7.6230  -26.6770 N.pl3  79  DA79       -0.1054
   1618  N1        13.9670    8.9320  -28.5530 N.ar   79  DA79       -0.2040
   1619  C2        14.4460    9.4470  -29.6910 C.ar   79  DA79        0.2016
   1620  N3        15.6490    9.2970  -30.2410 N.ar   79  DA79       -0.2048
   1621  C4        16.4220    8.5040  -29.4810 C.ar   79  DA79        0.1691
   1622  P         21.5950   11.6620  -29.4720 P.3    80  DA80        0.4833
   1623  OP1       22.0210   12.6180  -28.4150 O.2    80  DA80       -0.2269
   1624  OP2       21.1080   10.3080  -29.0880 O.3    80  DA80       -0.2491
   1625  O5'       20.4720   12.3400  -30.3790 O.3    80  DA80       -0.2704
   1626  C5'       19.2950   12.8620  -29.7840 C.3    80  DA80        0.1856
   1627  C4'       18.5930   13.8140  -30.7220 C.3    80  DA80        0.1755
   1628  O4'       17.8250   13.0590  -31.7020 O.3    80  DA80       -0.3510
   1629  C3'       17.5560   14.6600  -30.0030 C.3    80  DA80        0.1839
   1630  O3'       18.1500   15.8070  -29.4140 O.3    80  DA80       -0.2204
   1631  C2'       16.5390   14.9610  -31.0950 C.3    80  DA80        0.0676
   1632  C1'       16.5400   13.6420  -31.8680 C.3    80  DA80        0.1450
   1633  N9        16.1890   12.2830  -29.4850 N.ar   80  DA80       -0.2032
   1634  C8        17.1610   11.9100  -28.5940 C.ar   80  DA80        0.2005
   1635  N7        16.7070   11.2210  -27.5730 N.ar   80  DA80       -0.2179
   1636  C5        15.3440   11.1380  -27.8090 C.ar   80  DA80        0.1534
   1637  C6        14.2950   10.5340  -27.0930 C.ar   80  DA80        0.1919
   1638  N6        14.4680    9.8720  -25.9470 N.pl3  80  DA80       -0.1054
   1639  N1        13.0490   10.6350  -27.6030 N.ar   80  DA80       -0.2040
   1640  C2        12.8780   11.2980  -28.7530 C.ar   80  DA80        0.2016
   1641  N3        13.7830   11.9060  -29.5160 N.ar   80  DA80       -0.2031
   1642  C4        15.0100   11.7880  -28.9820 C.ar   80  DA80        0.1862
@<TRIPOS>BOND
     1  1398  1397    2
     2  1376  1375    2
     3  1378  1375    1
     4  1378  1379    1
     5  1397  1383    1
     6  1397  1399    1
     7  1397  1400    1
     8  1375  1364    1
     9  1375  1377    1
    10  1379  1380    1
    11  1383  1382    1
    12  1364  1363    1
    13  1380  1382    1
    14  1380  1381    1
    15  1400  1401    1
    16  1401  1402    1
    17  1382  1384    1
    18  1418  1417    2
    19  1360  1361    1
    20  1360  1359    1
    21  1363  1361    1
    22  1363  1365    1
    23  1381  1385    1
    24  1361  1362    1
    25  1384  1385    1
    26  1365  1366    1
    27  1402  1404    1
    28  1402  1403    1
    29  1417  1405    1
    30  1417  1419    1
    31  1417  1420    1
    32  1359  1356    1
    33  1357  1356    2
    34  1405  1404    1
    35  1385  1386    1
    36  1362  1366    1
    37  1404  1406    1
    38  1403  1407    1
    39  1366  1367    1
    40  1356  1342    1
    41  1356  1358    1
    42  1133  1132    2
    43  1342  1341    1
    44  1416  1414    1
    45  1420  1421    1
    46  1386  1387   ar
    47  1386  1396   ar
    48  1387  1388   ar
    49  1421  1422    1
    50  1415  1414   ar
    51  1415  1408   ar
    52  1367  1374    1
    53  1367  1368    1
    54  1406  1407    1
    55  1407  1408    1
    56  1343  1341    1
    57  1343  1344    1
    58  1414  1412   ar
    59  1369  1368    1
    60  1369  1353    1
    61  1155  1154    2
    62  1341  1339    1
    63  1119  1132    1
    64  1119  1118    1
    65  1132  1135    1
    66  1132  1134    1
    67  1396  1395   ar
    68  1396  1389   ar
    69  1374  1373    1
    70  1136  1135    1
    71  1136  1137    1
    72  1388  1389   ar
    73  1408  1409   ar
    74  1368  1370    2
    75  1395  1393   ar
    76  1441  1439    2
    77  1156  1154    1
    78  1339  1338    1
    79  1339  1340    1
    80  1422  1424    1
    81  1422  1423    1
    82  1389  1390   ar
    83  1598  1597    1
    84  1154  1140    1
    85  1154  1157    1
    86  1440  1439    1
    87  1353  1352    2
    88  1344  1340    1
    89  1344  1345    1
    90  1425  1439    1
    91  1425  1424    1
    92  1412  1413    2
    93  1412  1411   ar
    94  1140  1139    1
    95  1373  1371    2
    96  1632  1628    1
    97  1632  1631    1
    98  1118  1116    1
    99  1118  1120    1
   100  1474  1473    2
   101  1338  1337    1
   102  1439  1442    1
   103  1116  1115    1
   104  1116  1117    1
   105  1424  1426    1
   106  1628  1627    1
   107  1354  1352    1
   108  1354  1355    1
   109  1423  1427    1
   110  1370  1371    1
   111  1137  1139    1
   112  1137  1138    1
   113  1120  1121    1
   114  1393  1394    1
   115  1393  1392   ar
   116  1409  1411   ar
   117  1409  1410    2
   118  1115  1114    1
   119  1112  1111    2
   120  1352  1351    2
   121  1371  1372    1
   122  1139  1141    1
   123  1631  1629    1
   124  1157  1158    1
   125  1429  1430   ar
   126  1429  1428   ar
   127  1610  1611    1
   128  1610  1608    1
   129  1390  1392   ar
   130  1390  1391    2
   131  1345  1355   ar
   132  1345  1346   ar
   133  1597  1599   ar
   134  1597  1596   ar
   135  1607  1611    1
   136  1607  1606    1
   137  1611  1612    1
   138  1606  1608    1
   139  1606  1605    1
   140  1477  1475    1
   141  1355  1348   ar
   142  1627  1629    1
   143  1627  1626    1
   144  1158  1159    1
   145  1473  1475   ar
   146  1473  1472   ar
   147  1117  1121    1
   148  1337  1334    1
   149  1599  1600   ar
   150  1335  1334    2
   151  1114  1111    1
   152  1138  1142    1
   153  1609  1608    1
   154  1609  1622    1
   155  1430  1431   ar
   156  1176  1175    2
   157  1121  1122    1
   158  1625  1626    1
   159  1625  1622    1
   160  1442  1443    1
   161  1427  1426    1
   162  1427  1428    1
   163  1608  1624    1
   164  1620  1619   ar
   165  1620  1621   ar
   166  1111  1097    1
   167  1111  1113    1
   168  1351  1349    1
   169  1596  1594   ar
   170  1605  1604    1
   171  1428  1438   ar
   172  1456  1454   ar
   173  1456  1457   ar
   174  1475  1476   ar
   175  1455  1454    1
   176  1629  1630    1
   177  1177  1175    1
   178  1346  1347   ar
   179  1472  1470   ar
   180  1334  1336    1
   181  1334  1322    1
   182  1612  1621   ar
   183  1612  1613   ar
   184  1141  1142    1
   185  1619  1618   ar
   186  1348  1349    1
   187  1348  1347   ar
   188  1175  1162    1
   189  1175  1178    1
   190  1641  1642   ar
   191  1641  1640   ar
   192  1633  1642   ar
   193  1633  1634   ar
   194  1621  1615   ar
   195  1622  1624    1
   196  1622  1623    2
   197  1097  1096    1
   198  1191  1190    1
   199  1454  1453   ar
   200  1142  1143    1
   201  1457  1450   ar
   202  1588  1589    1
   203  1588  1586    1
   204  1600  1590   ar
   205  1600  1593   ar
   206  1349  1350    2
   207  1443  1444    1
   208  1159  1160    1
   209  1159  1161    1
   210  1589  1590    1
   211  1589  1585    1
   212  1122  1123   ar
   213  1122  1131   ar
   214  1431  1438   ar
   215  1431  1432   ar
   216  1642  1636   ar
   217  1438  1437   ar
   218  1460  1447    1
   219  1460  1458    1
   220  1322  1321    1
   221  1144  1143   ar
   222  1144  1145   ar
   223  1594  1593   ar
   224  1594  1595    2
   225  1604  1601    1
   226  1640  1639   ar
   227  1476  1469   ar
   228  1162  1161    1
   229  1192  1190   ar
   230  1192  1193   ar
   231  1166  1167   ar
   232  1166  1165   ar
   233  1613  1614   ar
   234  1123  1124   ar
   235  1590  1591   ar
   236  1160  1164    1
   237  1634  1635   ar
   238  1167  1168   ar
   239  1143  1153   ar
   240  1161  1163    1
   241  1618  1616   ar
   242  1190  1189   ar
   243  1470  1469   ar
   244  1470  1471    2
   245  1323  1321    1
   246  1323  1324    1
   247  1585  1584    1
   248  1130  1131   ar
   249  1130  1129   ar
   250  1593  1592   ar
   251  1587  1586    1
   252  1587  1601    1
   253  1131  1125   ar
   254  1615  1616   ar
   255  1615  1614   ar
   256  1178  1179    1
   257  1586  1584    1
   258  1211  1212   ar
   259  1211  1209   ar
   260  1572  1571    2
   261  1584  1583    1
   262  1433  1432    2
   263  1556  1555    1
   264  1432  1434   ar
   265  1327  1326    2
   266  1096  1098    1
   267  1096  1094    1
   268  1453  1451   ar
   269  1444  1446    1
   270  1444  1445    1
   271  1602  1601    2
   272  1450  1451   ar
   273  1450  1449    1
   274  1212  1213   ar
   275  1145  1146   ar
   276  1446  1447    1
   277  1446  1448    1
   278  1469  1468    1
   279  1098  1099    1
   280  1321  1319    1
   281  1193  1186   ar
   282  1445  1449    1
   283  1616  1617    1
   284  1636  1635   ar
   285  1636  1637   ar
   286  1601  1603    1
   287  1210  1209    1
   288  1554  1555   ar
   289  1554  1552   ar
   290  1437  1435   ar
   291  1165  1164    1
   292  1165  1174   ar
   293  1639  1637   ar
   294  1189  1187   ar
   295  1458  1459    1
   296  1458  1461    1
   297  1209  1208   ar
   298  1124  1125   ar
   299  1553  1552    2
   300  1153  1146   ar
   301  1153  1152   ar
   302  1164  1163    1
   303  1129  1128   ar
   304  1168  1174   ar
   305  1168  1169   ar
   306  1461  1462    1
   307  1591  1592   ar
   308  1213  1214   ar
   309  1451  1452    2
   310  1125  1126   ar
   311  1326  1328   ar
   312  1326  1325   ar
   313  1094  1093    1
   314  1094  1095    1
   315  1179  1180    1
   316  1555  1557   ar
   317  1449  1448    1
   318  1324  1325    1
   319  1324  1320    1
   320  1637  1638    1
   321  1170  1169    1
   322  1571  1573   ar
   323  1571  1570   ar
   324  1146  1147   ar
   325  1552  1551   ar
   326  1186  1187   ar
   327  1186  1185    1
   328  1328  1329   ar
   329  1434  1435   ar
   330  1583  1582    1
   331  1573  1574   ar
   332  1208  1214   ar
   333  1208  1207   ar
   334  1152  1150   ar
   335  1214  1205   ar
   336  1187  1188    2
   337  1093  1092    1
   338  1174  1173   ar
   339  1435  1436    1
   340  1319  1320    1
   341  1319  1318    1
   342  1325  1332   ar
   343  1534  1533    1
   344  1169  1171   ar
   345  1480  1465    1
   346  1480  1478    1
   347  1468  1464    1
   348  1468  1467    1
   349  1099  1095    1
   350  1099  1100    1
   351  1128  1126   ar
   352  1228  1227    2
   353  1108  1107    1
   354  1126  1127    1
   355  1464  1463    1
   356  1181  1180    1
   357  1181  1185    1
   358  1207  1206   ar
   359  1568  1569    1
   360  1568  1566    1
   361  1569  1570    1
   362  1569  1565    1
   363  1462  1463    1
   364  1248  1247    2
   365  1109  1107   ar
   366  1109  1110   ar
   367  1205  1206   ar
   368  1205  1204    1
   369  1329  1330    2
   370  1329  1331   ar
   371  1465  1467    1
   372  1465  1463    1
   373  1465  1466    1
   374  1570  1577   ar
   375  1180  1182    1
   376  1557  1558   ar
   377  1147  1148    2
   378  1147  1149   ar
   379  1184  1185    1
   380  1184  1182    1
   381  1092  1089    1
   382  1332  1331   ar
   383  1479  1478    2
   384  1245  1241    1
   385  1245  1244    1
   386  1245  1246    1
   387  1582  1579    1
   388  1150  1149   ar
   389  1150  1151    1
   390  1574  1575    2
   391  1574  1576   ar
   392  1107  1106   ar
   393  1318  1317    1
   394  1241  1240    1
   395  1204  1200    1
   396  1204  1203    1
   397  1090  1089    2
   398  1100  1110   ar
   399  1100  1101   ar
   400  1551  1558   ar
   401  1551  1550   ar
   402  1173  1172   ar
   403  1331  1333    1
   404  1244  1242    1
   405  1478  1466    1
   406  1478  1481    1
   407  1227  1229   am
   408  1227  1226   am
   409  1171  1172   ar
   410  1110  1103   ar
   411  1317  1314    1
   412  1182  1183    1
   413  1533  1532   ar
   414  1533  1535   ar
   415  1482  1481    1
   416  1482  1483    1
   417  1260  1259    1
   418  1260  1264    1
   419  1200  1199    1
   420  1229  1230   am
   421  1259  1258    1
   422  1259  1261    1
   423  1558  1548   ar
   424  1240  1242    1
   425  1240  1239    1
   426  1247  1246   ar
   427  1247  1249   ar
   428  1310  1311   ar
   429  1310  1308   ar
   430  1500  1499    2
   431  1565  1564    1
   432  1264  1263    1
   433  1264  1265    1
   434  1532  1530   ar
   435  1225  1226    1
   436  1225  1224    1
   437  1225  1221    1
   438  1246  1253   ar
   439  1263  1261    1
   440  1311  1312   ar
   441  1089  1075    1
   442  1089  1091    1
   443  1577  1576   ar
   444  1258  1257    1
   445  1106  1104   ar
   446  1501  1499    1
   447  1101  1102   ar
   448  1566  1567    1
   449  1566  1564    1
   450  1315  1314    2
   451  1226  1233    1
   452  1576  1578    1
   453  1309  1308    1
   454  1567  1579    1
   455  1242  1243    1
   456  1550  1549   ar
   457  1262  1261    1
   458  1262  1273    1
   459  1535  1536   ar
   460  1103  1104   ar
   461  1103  1102   ar
   462  1224  1222    1
   463  1483  1485    1
   464  1483  1484    1
   465  1243  1254    1
   466  1230  1231    2
   467  1230  1232    1
   468  1499  1486    1
   469  1499  1502    1
   470  1203  1201    1
   471  1579  1580    2
   472  1579  1581    1
   473  1564  1563    1
   474  1308  1307   ar
   475  1249  1250   ar
   476  1314  1316    1
   477  1314  1301    1
   478  1267  1266    2
   479  1221  1220    1
   480  1239  1238    1
   481  1075  1074    1
   482  1486  1485    1
   483  1104  1105    2
   484  1183  1194    1
   485  1276  1277    1
   486  1276  1273    1
   487  1199  1198    1
   488  1199  1201    1
   489  1312  1313   ar
   490  1265  1266   ar
   491  1265  1272   ar
   492  1548  1549   ar
   493  1548  1547    1
   494  1253  1252   ar
   495  1530  1531    2
   496  1530  1529   ar
   497  1233  1232    1
   498  1233    38    1
   499  1485  1487    1
   500  1257  1254    1
   501  1232  1234    1
   502  1266  1268   ar
   503  1086  1085    1
   504  1255  1254    2
   505  1484  1488    1
   506  1076  1074    1
   507  1076  1077    1
   508  1277  1278    1
   509  1198  1197    1
   510  1196  1194    2
   511  1307  1313   ar
   512  1307  1306   ar
   513  1201  1202    1
   514  1220  1222    1
   515  1220  1219    1
   516  1279  1278    1
   517  1279  1283    1
   518  1250  1252   ar
   519  1250  1251    1
   520  1254  1256    1
   521  1197  1194    1
   522    14    13    1
   523  1273  1274    2
   524  1273  1275    1
   525  1536  1529   ar
   526  1313  1304   ar
   527  1278  1280    1
   528  1272  1271   ar
   529  1194  1195    1
   530  1074  1072    1
   531  1222  1223    1
   532  1238  1235    1
   533  1547  1546    1
   534  1547  1543    1
   535  1563  1562    1
   536  1502  1503    1
   537  1529  1528    1
   538  1301  1300    1
   539    15    13   ar
   540    15    16   ar
   541  1085  1087   ar
   542  1085  1084   ar
   543  1546  1544    1
   544  1087  1088   ar
   545  1223  1235    1
   546    13    12   ar
   547  1302  1300    1
   548  1302  1303    1
   549  1268  1269   ar
   550  1283  1282    1
   551  1283  1284    1
   552    38    37    2
   553  1300  1298    1
   554  1562  1559    1
   555  1306  1305   ar
   556  1503  1504    1
   557  1487  1488    1
   558  1202  1215    1
   559    16    17   ar
   560  1271  1269   ar
   561  1488  1489    1
   562  1219  1218    1
   563  1304  1305   ar
   564  1304  1303    1
   565  1490  1489   ar
   566  1490  1491   ar
   567  1084  1082   ar
   568  1077  1078    1
   569  1077  1073    1
   570  1072  1073    1
   571  1072  1071    1
   572  1218  1215    1
   573  1269  1270    1
   574    36    37    2
   575    36    34    1
   576  1088  1078   ar
   577  1088  1081   ar
   578  1280  1282    1
   579  1280  1281    1
   580  1543  1542    1
   581  1235  1236    2
   582  1235  1237    1
   583    37    39    1
   584  1284  1291   ar
   585  1284  1285   ar
   586  1281  1293    1
   587    12    11   ar
   588    12    18   ar
   589  1291  1290   ar
   590  1489  1498   ar
   591  1303  1299    1
   592  1078  1079   ar
   593  1528  1527    1
   594  1528  1524    1
   595  1544  1545    1
   596  1544  1542    1
   597    35    34    2
   598  1491  1492   ar
   599  1215  1217    2
   600  1215  1216    1
   601    17    18   ar
   602  1082  1081   ar
   603  1082  1083    2
   604    11    10   ar
   605    34    33    1
   606  1081  1080   ar
   607  1071  1070    1
   608    18     9   ar
   609  1298  1297    1
   610  1298  1299    1
   611  1286  1285    2
   612  1285  1287   ar
   613  1559  1545    1
   614  1559  1561    2
   615  1559  1560    1
   616    39    40    1
   617  1527  1525    1
   618  1504  1506    1
   619  1504  1505    1
   620  1290  1292    1
   621  1290  1288   ar
   622  1296  1297    1
   623  1296  1293    1
   624  1524  1523    1
   625  1542  1541    1
   626  1070  1067    1
   627  1079  1080   ar
   628  1237    54    1
   629    54    53    1
   630  1517  1516   ar
   631  1517  1510   ar
   632  1516  1514   ar
   633  1064  1063    1
   634    10     9   ar
   635  1506  1508    1
   636  1506  1507    1
   637  1505  1509    1
   638    33    40   ar
   639    33    32   ar
   640  1293  1294    2
   641  1293  1295    1
   642  1520  1518    2
   643  1498  1492   ar
   644  1498  1497   ar
   645    40    30   ar
   646     9     8    1
   647  1539  1537    2
   648  1525  1523    1
   649  1525  1526    1
   650  1287  1288   ar
   651  1492  1493   ar
   652  1288  1289    2
   653    55    53    2
   654    55    56    1
   655    53    52    1
   656  1508  1509    1
   657  1540  1541    1
   658  1540  1537    1
   659  1068  1067    2
   660  1523  1522    1
   661  1063  1062   ar
   662  1063  1065   ar
   663    78    79   ar
   664    78    77   ar
   665  1062  1060   ar
   666  1510  1509    1
   667  1510  1511   ar
   668    32    31   ar
   669  1067  1069    1
   670  1067  1053    1
   671  1514  1515    1
   672  1514  1513   ar
   673  1522  1521    1
   674    30    31   ar
   675    30    29    1
   676     8     4    1
   677     8     7    1
   678    79    80   ar
   679  1497  1496   ar
   680  1507  1518    1
   681  1537  1526    1
   682  1537  1538    1
   683    57    56    1
   684    56    58    2
   685    77    75   ar
   686  1518  1521    1
   687  1518  1519    1
   688    51    52    1
   689    51    50    1
   690    51    47    1
   691    52    59    1
   692  1065  1066   ar
   693    29    25    1
   694    29    28    1
   695  1493  1494    1
   696  1493  1495   ar
   697  1060  1061    2
   698  1060  1059   ar
   699  1053  1052    1
   700     4     3    1
   701    80    71   ar
   702    80    74   ar
   703     7     5    1
   704  1054  1052    1
   705  1054  1055    1
   706    50    48    1
   707  1511  1513   ar
   708  1511  1512    2
   709    47    46    1
   710    25    24    1
   711    75    74   ar
   712    75    76    1
   713    58    59    1
   714  1066  1059   ar
   715  1066  1056   ar
   716  1496  1495   ar
   717    70    66    1
   718    70    71    1
   719    70    69    1
   720    66    65    1
   721  1059  1058   ar
   722    71    72   ar
   723    28    26    1
   724    74    73   ar
   725  1052  1050    1
   726  1056  1055    1
   727  1056  1057   ar
   728  1055  1051    1
   729    72    73   ar
   730    46    48    1
   731    46    45    1
   732  1058  1057   ar
   733     3     5    1
   734     3     2    1
   735     5     6    1
   736    69    67    1
   737    24    26    1
   738    24    23    1
   739    48    49    1
   740    65    64    1
   741    65    67    1
   742     1     2    1
   743    26    27    1
   744  1050  1051    1
   745  1050  1049    1
   746    64    63    1
   747    49    60    1
   748     6    19    1
   749    45    44    1
   750    67    68    1
   751    23    22    1
   752   100    99    1
   753    87    91    1
   754    87    86    1
   755    63    60    1
   756    22    19    1
   757    27    41    1
   758    44    41    1
   759   101    99   ar
   760   101   102   ar
   761    99    98   ar
   762  1049  1048    1
   763    91    92    1
   764    91    90    1
   765  1048  1045    1
   766    92   102   ar
   767    92    93   ar
   768   102    95   ar
   769    68    81    1
   770    98    96   ar
   771    60    62    2
   772    60    61    1
   773    86    85    1
   774    86    88    1
   775    93    94   ar
   776    95    96   ar
   777    95    94   ar
   778    85    84    1
   779    96    97    2
   780    19    21    2
   781    19    20    1
   782    41    43    2
   783    41    42    1
   784    90    88    1
   785  1046  1045    2
   786  1045  1047    1
   787  1045  1031    1
   788    84    81    1
   789    81    83    2
   790    81    82    1
   791    88    89    1
   792  1031  1030    1
   793    89   103    1
   794   109   113    1
   795   109   108    1
   796  1032  1030    1
   797  1032  1033    1
   798   113   114    1
   799   113   112    1
   800  1030  1028    1
   801   116   115    2
   802   108   107    1
   803   108   110    1
   804   114   115   ar
   805   114   121   ar
   806   107   106    1
   807   115   117   ar
   808  1042  1041    1
   809   121   120   ar
   810   117   118   ar
   811   120   118   ar
   812   118   119    1
   813  1041  1043   ar
   814  1041  1040   ar
   815   106   103    1
   816   103   105    2
   817   103   104    1
   818  1043  1044   ar
   819  1040  1038   ar
   820   112   110    1
   821  1033  1034    1
   822  1033  1029    1
   823  1044  1034   ar
   824  1044  1037   ar
   825  1028  1029    1
   826  1028  1027    1
   827  1038  1037   ar
   828  1038  1039    2
   829   110   111    1
   830  1034  1035   ar
   831  1037  1036   ar
   832  1025  1023    2
   833  1024  1023    1
   834  1026  1027    1
   835  1026  1023    1
   836  1035  1036   ar
   837  1023  1011    1
   838   111   122    1
   839  1004  1003    2
   840  1005  1003    1
   841   128   132    1
   842   128   127    1
   843  1006  1003    1
   844  1006  1007    1
   845  1011  1010    1
   846  1003   991    1
   847   132   133    1
   848   132   131    1
   849  1019  1018    2
   850   122   124    2
   851   122   123    1
   852   122   125    1
   853  1022  1020    1
   854  1010  1012    1
   855  1010  1008    1
   856   133   134   ar
   857   133   142   ar
   858   134   135   ar
   859  1018  1020   ar
   860  1018  1017   ar
   861  1007  1008    1
   862  1020  1021   ar
   863   135   136   ar
   864   142   141   ar
   865   142   136   ar
   866   141   140   ar
   867   127   126    1
   868   127   129    1
   869   136   137   ar
   870   126   125    1
   871   140   139   ar
   872   137   139   ar
   873   137   138    1
   874  1017  1015   ar
   875  1021  1014   ar
   876  1012  1013    1
   877  1008  1009    1
   878   991   990    1
   879  1015  1014   ar
   880  1015  1016    2
   881  1014  1013    1
   882   131   129    1
   883   984   983    2
   884   129   130    1
   885  1013  1009    1
   886   990   988    1
   887   990   992    1
   888   987   986    1
   889   987   988    1
   890   986   983    1
   891   130   143    1
   892   988   989    1
   893   983   985    1
   894   983   971    1
   895   992   993    1
   896  1002  1000    1
   897  1000  1001   ar
   898  1000   998   ar
   899  1001   994   ar
   900   999   998    2
   901   149   153    1
   902   149   148    1
   903   153   154    1
   904   153   152    1
   905   998   997   ar
   906   143   145    2
   907   143   144    1
   908   143   146    1
   909   994   993    1
   910   994   995   ar
   911   156   155    2
   912   157   155   ar
   913   157   158   ar
   914   989   993    1
   915   159   158    1
   916   155   154   ar
   917   158   160   ar
   918   997   995   ar
   919   154   161   ar
   920   160   161   ar
   921   995   996    2
   922   146   147    1
   923   971   970    1
   924   152   150    1
   925   148   147    1
   926   148   150    1
   927   965   963    2
   928   964   963    1
   929   946   944    2
   930   970   972    1
   931   970   968    1
   932   966   963    1
   933   966   967    1
   934   963   952    1
   935   982   980    1
   936   150   151    1
   937   979   978    2
   938   967   968    1
   939   972   973    1
   940   980   978   ar
   941   980   981   ar
   942   978   977   ar
   943   945   944    1
   944   944   947    1
   945   944   933    1
   946   947   948    1
   947   968   969    1
   948   981   974   ar
   949   178   177    1
   950   977   975   ar
   951   952   951    1
   952   177   176   ar
   953   177   179   ar
   954   175   176   ar
   955   175   174   ar
   956   151   162    1
   957   168   172    1
   958   168   167    1
   959   176   182   ar
   960   179   180   ar
   961   948   949    1
   962   174   173   ar
   963   974   975   ar
   964   974   973    1
   965   182   173   ar
   966   182   181   ar
   967   180   181   ar
   968   975   976    2
   969   173   172    1
   970   951   949    1
   971   951   953    1
   972   926   925    2
   973   973   969    1
   974   172   171    1
   975   933   932    1
   976   927   925    1
   977   166   167    1
   978   166   165    1
   979   949   950    1
   980   961   962   ar
   981   961   959   ar
   982   167   169    1
   983   165   162    1
   984   960   959    1
   985   962   955   ar
   986   925   928    1
   987   925   914    1
   988   907   906    2
   989   162   164    2
   990   162   163    1
   991   959   958   ar
   992   953   954    1
   993   928   929    1
   994   932   934    1
   995   932   930    1
   996   955   956   ar
   997   955   954    1
   998   950   954    1
   999   958   956   ar
  1000   171   169    1
  1001   908   906    1
  1002   199   198    2
  1003   929   930    1
  1004   956   957    2
  1005   906   909    1
  1006   906   895    1
  1007   169   170    1
  1008   914   913    1
  1009   934   935    1
  1010   930   931    1
  1011   198   200   ar
  1012   198   197   ar
  1013   200   201   ar
  1014   942   943   ar
  1015   942   940   ar
  1016   943   936   ar
  1017   909   910    1
  1018   941   940    1
  1019   940   939   ar
  1020   910   911    1
  1021   202   201    1
  1022   197   196   ar
  1023   197   204   ar
  1024   201   203   ar
  1025   913   911    1
  1026   913   915    1
  1027   888   887    2
  1028   170   183    1
  1029   196   195   ar
  1030   936   935    1
  1031   936   937   ar
  1032   935   931    1
  1033   895   894    1
  1034   939   937   ar
  1035   204   203   ar
  1036   204   194   ar
  1037   937   938    2
  1038   911   912    1
  1039   195   194   ar
  1040   889   887    1
  1041   185   183    2
  1042   887   890    1
  1043   887   874    1
  1044   890   891    1
  1045   194   193    1
  1046   222   223   ar
  1047   222   220   ar
  1048   915   916    1
  1049   891   892    1
  1050   223   224   ar
  1051   894   892    1
  1052   894   896    1
  1053   221   220    1
  1054   924   923   ar
  1055   924   917   ar
  1056   923   921   ar
  1057   220   219   ar
  1058   183   186    1
  1059   183   184    1
  1060   189   193    1
  1061   189   188    1
  1062   193   192    1
  1063   912   916    1
  1064   224   225   ar
  1065   892   893    1
  1066   917   916    1
  1067   917   918   ar
  1068   921   922    1
  1069   921   920   ar
  1070   219   225   ar
  1071   219   218   ar
  1072   186   187    1
  1073   225   216   ar
  1074   874   873    1
  1075   896   897    1
  1076   918   920   ar
  1077   918   919    2
  1078   218   217   ar
  1079   245   244    1
  1080   216   215    1
  1081   216   217   ar
  1082   215   211    1
  1083   215   214    1
  1084   905   904   ar
  1085   905   898   ar
  1086   187   188    1
  1087   188   190    1
  1088   893   897    1
  1089   904   902   ar
  1090   192   190    1
  1091   244   243   ar
  1092   244   246   ar
  1093   243   241   ar
  1094   867   866    2
  1095   898   897    1
  1096   898   899   ar
  1097   873   871    1
  1098   873   875    1
  1099   246   247   ar
  1100   211   210    1
  1101   902   903    1
  1102   902   901   ar
  1103   241   242    2
  1104   241   240   ar
  1105   214   212    1
  1106   190   191    1
  1107   869   870    1
  1108   869   866    1
  1109   870   871    1
  1110   247   240   ar
  1111   247   237   ar
  1112   899   901   ar
  1113   899   900    2
  1114   240   239   ar
  1115   866   868    1
  1116   866   854    1
  1117   871   872    1
  1118   237   236    1
  1119   237   238   ar
  1120   875   876    1
  1121   236   232    1
  1122   236   235    1
  1123   239   238   ar
  1124   232   231    1
  1125   210   212    1
  1126   210   209    1
  1127   207   205    2
  1128   212   213    1
  1129   191   205    1
  1130   208   209    1
  1131   208   205    1
  1132   235   233    1
  1133   872   876    1
  1134   876   877    1
  1135   231   230    1
  1136   231   233    1
  1137   854   853    1
  1138   885   886    1
  1139   885   884    2
  1140   877   886    1
  1141   877   878    1
  1142   205   206    1
  1143   213   226    1
  1144   886   880    1
  1145   884   883    1
  1146   878   879    1
  1147   254   258    1
  1148   254   253    1
  1149   230   229    1
  1150   258   259    1
  1151   258   257    1
  1152   880   879    1
  1153   880   881    2
  1154   883   267    1
  1155   883   881    1
  1156   853   855    1
  1157   853   851    1
  1158   233   234    1
  1159   267   266    2
  1160   268   266    1
  1161   268   269    1
  1162   879   859    1
  1163   266   265    2
  1164   259   269   ar
  1165   259   260   ar
  1166   269   262   ar
  1167   881   882    1
  1168   848   846    2
  1169   265   263    1
  1170   260   261   ar
  1171   262   263    1
  1172   262   261   ar
  1173   855   856    1
  1174   263   264    2
  1175   862   861    2
  1176   229   226    1
  1177   849   846    1
  1178   849   850    1
  1179   861   860   ar
  1180   861   863   ar
  1181   226   228    2
  1182   226   227    1
  1183   860   858   ar
  1184   865   863    1
  1185   863   864   ar
  1186   253   252    1
  1187   253   255    1
  1188   846   847    1
  1189   846   833    1
  1190   234   248    1
  1191   257   255    1
  1192   858   859    1
  1193   858   857   ar
  1194   864   857   ar
  1195   857   856    1
  1196   851   850    1
  1197   851   852    1
  1198   252   251    1
  1199   856   852    1
  1200   251   248    1
  1201   255   256    1
  1202   248   250    2
  1203   248   249    1
  1204   276   280    1
  1205   276   275    1
  1206   833   832    1
  1207   256   270    1
  1208   280   281    1
  1209   280   279    1
  1210   283   282    2
  1211   275   274    1
  1212   275   277    1
  1213   274   273    1
  1214   832   834    1
  1215   832   830    1
  1216   281   282   ar
  1217   281   288   ar
  1218   282   284   ar
  1219   288   287   ar
  1220   834   835    1
  1221   284   285   ar
  1222   273   270    1
  1223   270   271    2
  1224   270   272    1
  1225   279   277    1
  1226   287   285   ar
  1227   287   289    1
  1228   826   825    2
  1229   285   286    2
  1230   843   842   ar
  1231   843   844   ar
  1232   842   840   ar
  1233   844   845   ar
  1234   828   825    1
  1235   828   829    1
  1236   840   841    1
  1237   840   839   ar
  1238   277   278    1
  1239   827   825    1
  1240   845   839   ar
  1241   845   836   ar
  1242   839   838   ar
  1243   830   829    1
  1244   830   831    1
  1245   825   811    1
  1246   836   837   ar
  1247   836   835    1
  1248   838   837   ar
  1249   835   831    1
  1250   278   290    1
  1251   296   300    1
  1252   296   295    1
  1253   811   810    1
  1254   308   307   ar
  1255   308   301   ar
  1256   307   305   ar
  1257   300   301    1
  1258   300   299    1
  1259   294   295    1
  1260   294   293    1
  1261   301   302   ar
  1262   805   803    2
  1263   804   803    1
  1264   305   306    1
  1265   305   304   ar
  1266   295   297    1
  1267   302   304   ar
  1268   302   303    2
  1269   293   290    1
  1270   819   818    2
  1271   290   292    2
  1272   290   291    1
  1273   810   812    1
  1274   810   808    1
  1275   803   806    1
  1276   803   791    1
  1277   818   817   ar
  1278   818   820   ar
  1279   812   813    1
  1280   806   807    1
  1281   816   817   ar
  1282   816   815   ar
  1283   785   783    2
  1284   784   783    1
  1285   817   824   ar
  1286   820   821   ar
  1287   299   297    1
  1288   764   763    2
  1289   815   814   ar
  1290   297   298    1
  1291   744   743    2
  1292   807   808    1
  1293   824   814   ar
  1294   824   823   ar
  1295   765   763    1
  1296   821   822    1
  1297   821   823   ar
  1298   802   800    1
  1299   783   786    1
  1300   783   771    1
  1301   808   809    1
  1302   814   813    1
  1303   813   809    1
  1304   763   766    1
  1305   763   751    1
  1306   799   798    2
  1307   791   790    1
  1308   786   787    1
  1309   800   798   ar
  1310   800   801   ar
  1311   298   309    1
  1312   325   324    1
  1313   782   780    1
  1314   798   797   ar
  1315   790   792    1
  1316   790   788    1
  1317   766   767    1
  1318   743   745    1
  1319   743   746    1
  1320   743   731    1
  1321   787   788    1
  1322   322   323   ar
  1323   322   321   ar
  1324   801   794   ar
  1325   747   746    1
  1326   747   748    1
  1327   771   770    1
  1328   324   323   ar
  1329   324   326   ar
  1330   724   723    2
  1331   751   750    1
  1332   323   329   ar
  1333   797   795   ar
  1334   321   320   ar
  1335   792   793    1
  1336   309   311    2
  1337   309   310    1
  1338   309   312    1
  1339   780   778   ar
  1340   780   781   ar
  1341   770   772    1
  1342   770   768    1
  1343   788   789    1
  1344   326   327   ar
  1345   779   778    2
  1346   794   795   ar
  1347   794   793    1
  1348   750   748    1
  1349   750   752    1
  1350   767   768    1
  1351   795   796    2
  1352   731   730    1
  1353   329   320   ar
  1354   329   328   ar
  1355   778   777   ar
  1356   781   774   ar
  1357   320   319    1
  1358   315   319    1
  1359   315   314    1
  1360   762   760    1
  1361   748   749    1
  1362   327   328   ar
  1363   312   313    1
  1364   793   789    1
  1365   772   773    1
  1366   313   314    1
  1367   768   769    1
  1368   723   725    1
  1369   723   726    1
  1370   723   711    1
  1371   319   318    1
  1372   777   775   ar
  1373   774   775   ar
  1374   774   773    1
  1375   760   761   ar
  1376   760   758   ar
  1377   761   754   ar
  1378   314   316    1
  1379   730   728    1
  1380   730   732    1
  1381   727   726    1
  1382   727   728    1
  1383   769   773    1
  1384   775   776    2
  1385   749   753    1
  1386   752   753    1
  1387   758   759    2
  1388   758   757   ar
  1389   754   753    1
  1390   754   755   ar
  1391   711   710    1
  1392   728   729    1
  1393   346   345    2
  1394   318   316    1
  1395   732   733    1
  1396   316   317    1
  1397   704   703    2
  1398   345   347   ar
  1399   345   344   ar
  1400   757   755   ar
  1401   755   756    2
  1402   347   348   ar
  1403   343   344   ar
  1404   343   342   ar
  1405   344   351   ar
  1406   710   708    1
  1407   710   712    1
  1408   348   349    1
  1409   348   350   ar
  1410   342   341   ar
  1411   729   733    1
  1412   351   350   ar
  1413   351   341   ar
  1414   742   740    1
  1415   707   706    1
  1416   707   708    1
  1417   741   740   ar
  1418   741   734   ar
  1419   733   734    1
  1420   317   330    1
  1421   341   340    1
  1422   703   706    1
  1423   703   705    1
  1424   703   690    1
  1425   740   738   ar
  1426   708   709    1
  1427   734   735   ar
  1428   712   713    1
  1429   368   367    1
  1430   340   336    1
  1431   340   339    1
  1432   336   335    1
  1433   369   367   ar
  1434   369   370   ar
  1435   738   739    2
  1436   738   737   ar
  1437   735   737   ar
  1438   735   736    2
  1439   367   366   ar
  1440   332   330    2
  1441   370   371   ar
  1442   330   331    1
  1443   330   333    1
  1444   690   689    1
  1445   709   713    1
  1446   366   372   ar
  1447   366   365   ar
  1448   713   714    1
  1449   371   372   ar
  1450   333   334    1
  1451   339   337    1
  1452   335   334    1
  1453   335   337    1
  1454   372   363   ar
  1455   365   364   ar
  1456   714   721   ar
  1457   714   715   ar
  1458   721   720   ar
  1459   689   691    1
  1460   689   687    1
  1461   716   715    2
  1462   364   363   ar
  1463   715   717   ar
  1464   363   362    1
  1465   337   338    1
  1466   720   722    1
  1467   720   718   ar
  1468   683   682    2
  1469   691   692    1
  1470   717   718   ar
  1471   362   358    1
  1472   362   361    1
  1473   386   385    2
  1474   718   719    2
  1475   358   357    1
  1476   687   686    1
  1477   687   688    1
  1478   387   385   ar
  1479   387   388   ar
  1480   686   685    1
  1481   385   384   ar
  1482   685   682    1
  1483   389   388    2
  1484   682   684    1
  1485   682   670    1
  1486   338   352    1
  1487   412   411    1
  1488   388   390   ar
  1489   384   383    1
  1490   384   391   ar
  1491   692   688    1
  1492   692   693    1
  1493   361   359    1
  1494   410   411   ar
  1495   410   408   ar
  1496   411   413   ar
  1497   383   379    1
  1498   383   382    1
  1499   357   356    1
  1500   357   359    1
  1501   390   391   ar
  1502   390   392    1
  1503   379   378    1
  1504   409   408    2
  1505   694   693   ar
  1506   694   695   ar
  1507   693   702   ar
  1508   408   407   ar
  1509   354   352    2
  1510   413   414   ar
  1511   356   355    1
  1512   670   669    1
  1513   352   355    1
  1514   352   353    1
  1515   695   696   ar
  1516   359   360    1
  1517   702   701   ar
  1518   702   696   ar
  1519   701   700   ar
  1520   414   407   ar
  1521   414   404   ar
  1522   407   406   ar
  1523   696   697   ar
  1524   428   427    2
  1525   382   380    1
  1526   700   699   ar
  1527   697   699   ar
  1528   697   698    1
  1529   378   377    1
  1530   378   380    1
  1531   404   403    1
  1532   404   405   ar
  1533   406   405   ar
  1534   669   671    1
  1535   669   667    1
  1536   403   399    1
  1537   403   402    1
  1538   427   429   ar
  1539   427   426   ar
  1540   360   373    1
  1541   377   376    1
  1542   376   373    1
  1543   425   426    1
  1544   425   421    1
  1545   425   424    1
  1546   429   430   ar
  1547   380   381    1
  1548   671   672    1
  1549   399   398    1
  1550   426   433   ar
  1551   453   452    1
  1552   663   662    2
  1553   421   420    1
  1554   666   667    1
  1555   666   665    1
  1556   402   400    1
  1557   667   668    1
  1558   375   373    2
  1559   665   662    1
  1560   430   431    1
  1561   430   432   ar
  1562   452   454   ar
  1563   452   451   ar
  1564   373   374    1
  1565   424   422    1
  1566   454   455   ar
  1567   433   432   ar
  1568   440   444    1
  1569   440   439    1
  1570   662   664    1
  1571   662   650    1
  1572   381   393    1
  1573   398   400    1
  1574   398   397    1
  1575   444   445    1
  1576   444   443    1
  1577   672   673    1
  1578   672   668    1
  1579   451   449   ar
  1580   675   674    2
  1581   420   422    1
  1582   420   419    1
  1583   673   674   ar
  1584   673   680   ar
  1585   674   676   ar
  1586   455   445   ar
  1587   455   448   ar
  1588   400   401    1
  1589   680   679   ar
  1590   676   677   ar
  1591   393   394    2
  1592   393   396    1
  1593   393   395    1
  1594   445   446   ar
  1595   679   677   ar
  1596   679   681    1
  1597   439   438    1
  1598   439   441    1
  1599   677   678    2
  1600   422   423    1
  1601   397   396    1
  1602   449   448   ar
  1603   449   450    2
  1604   448   447   ar
  1605   419   418    1
  1606   443   441    1
  1607   438   437    1
  1608   650   649    1
  1609   401   415    1
  1610   643   642    2
  1611   446   447   ar
  1612   418   415    1
  1613   423   434    1
  1614   644   642    1
  1615   441   442    1
  1616   437   434    1
  1617   415   417    2
  1618   415   416    1
  1619   649   651    1
  1620   649   647    1
  1621   642   645    1
  1622   642   629    1
  1623   442   456    1
  1624   661   659    1
  1625   651   652    1
  1626   434   436    2
  1627   434   435    1
  1628   658   657    2
  1629   645   646    1
  1630   659   657   ar
  1631   659   660   ar
  1632   657   656   ar
  1633   462   466    1
  1634   462   461    1
  1635   660   653   ar
  1636   646   647    1
  1637   656   654   ar
  1638   647   648    1
  1639   469   468   ar
  1640   469   470   ar
  1641   468   467   ar
  1642   456   458    2
  1643   456   459    1
  1644   456   457    1
  1645   467   466    1
  1646   467   476   ar
  1647   472   471    1
  1648   470   471   ar
  1649   470   476   ar
  1650   466   465    1
  1651   471   473   ar
  1652   629   628    1
  1653   476   475   ar
  1654   653   654   ar
  1655   653   652    1
  1656   622   621    2
  1657   473   474   ar
  1658   475   474   ar
  1659   623   621    1
  1660   654   655    2
  1661   460   459    1
  1662   460   461    1
  1663   652   648    1
  1664   461   463    1
  1665   621   624    1
  1666   621   609    1
  1667   628   630    1
  1668   628   626    1
  1669   624   625    1
  1670   465   463    1
  1671   630   631    1
  1672   625   626    1
  1673   463   464    1
  1674   634   633   ar
  1675   634   635   ar
  1676   633   632   ar
  1677   626   627    1
  1678   637   636    1
  1679   609   608    1
  1680   635   636   ar
  1681   635   641   ar
  1682   636   638   ar
  1683   493   492    2
  1684   632   641   ar
  1685   632   631    1
  1686   641   640   ar
  1687   496   494    1
  1688   631   627    1
  1689   492   494   ar
  1690   492   491   ar
  1691   464   477    1
  1692   638   639   ar
  1693   494   495   ar
  1694   491   489   ar
  1695   608   610    1
  1696   608   606    1
  1697   602   601    2
  1698   640   639   ar
  1699   495   488   ar
  1700   489   488   ar
  1701   489   490    2
  1702   488   487    1
  1703   483   487    1
  1704   483   482    1
  1705   610   611    1
  1706   604   605    1
  1707   604   601    1
  1708   605   606    1
  1709   487   486    1
  1710   601   603    1
  1711   601   588    1
  1712   479   477    2
  1713   477   480    1
  1714   477   478    1
  1715   606   607    1
  1716   481   480    1
  1717   481   482    1
  1718   482   484    1
  1719   614   613    2
  1720   612   611    1
  1721   612   613   ar
  1722   612   619   ar
  1723   513   512    1
  1724   611   607    1
  1725   613   615   ar
  1726   619   618   ar
  1727   588   587    1
  1728   486   484    1
  1729   512   511   ar
  1730   512   514   ar
  1731   615   616   ar
  1732   484   485    1
  1733   618   616   ar
  1734   618   620    1
  1735   511   509   ar
  1736   514   515   ar
  1737   616   617    2
  1738   587   589    1
  1739   587   585    1
  1740   509   510    2
  1741   509   508   ar
  1742   515   508   ar
  1743   508   507    1
  1744   485   497    1
  1745   589   590    1
  1746   584   585    1
  1747   584   583    1
  1748   585   586    1
  1749   503   507    1
  1750   503   502    1
  1751   507   506    1
  1752   532   531    2
  1753   598   599   ar
  1754   598   597   ar
  1755   599   600   ar
  1756   499   497    2
  1757   583   580    1
  1758   597   595   ar
  1759   600   591    1
  1760   600   594   ar
  1761   497   500    1
  1762   497   498    1
  1763   590   591    1
  1764   590   586    1
  1765   581   580    2
  1766   591   592    1
  1767   531   530   ar
  1768   531   533   ar
  1769   530   528   ar
  1770   595   594   ar
  1771   595   596    1
  1772   594   593    1
  1773   500   501    1
  1774   501   502    1
  1775   592   593    1
  1776   502   504    1
  1777   593   529    1
  1778   506   504    1
  1779   580   582    1
  1780   580   566    1
  1781   529   528    1
  1782   528   527   ar
  1783   533   535    1
  1784   533   534   ar
  1785   504   505    1
  1786   577   576    1
  1787   527   534   ar
  1788   527   526    1
  1789   566   565    1
  1790   567   565    1
  1791   567   568    1
  1792   576   575   ar
  1793   576   578   ar
  1794   575   573   ar
  1795   505   516    1
  1796   522   526    1
  1797   522   521    1
  1798   578   579   ar
  1799   526   525    1
  1800   565   563    1
  1801   518   516    2
  1802   573   574    2
  1803   573   572   ar
  1804   568   569    1
  1805   568   564    1
  1806   519   516    1
  1807   519   520    1
  1808   579   572   ar
  1809   579   569   ar
  1810   516   517    1
  1811   572   571   ar
  1812   560   558    2
  1813   520   521    1
  1814   569   570   ar
  1815   521   523    1
  1816   525   523    1
  1817   571   570   ar
  1818   563   564    1
  1819   563   562    1
  1820   523   524    1
  1821   558   561    1
  1822   558   559    1
  1823   558   544    1
  1824   561   562    1
  1825   552   551    2
  1826   524   536    1
  1827   555   554    1
  1828   553   551   ar
  1829   553   554   ar
  1830   538   536    2
  1831   544   543    1
  1832   551   550   ar
  1833   554   556   ar
  1834   543   545    1
  1835   543   541    1
  1836   539   536    1
  1837   539   540    1
  1838   536   537    1
  1839   550   557   ar
  1840   550   549   ar
  1841   556   557   ar
  1842   545   546    1
  1843   557   547   ar
  1844   549   548   ar
  1845   540   541    1
  1846   547   548   ar
  1847   547   546    1
  1848   541   542    1
  1849   546   542    1
