@<TRIPOS>MOLECULE
dna.pdb
 1573 1759 0 0 0
SMALL
GASTEIGER

@<TRIPOS>ATOM
      1  O5'       -1.4090  -15.6250    6.4260 O.3     1  DA1        -0.2176
      2  C5'       -1.1560  -15.5660    5.0420 C.3     1  DA1         0.2140
      3  C4'       -0.4840  -16.8190    4.5690 C.3     1  DA1         0.1776
      4  O4'       -1.1900  -17.3070    3.4000 O.3     1  DA1        -0.3326
      5  C3'        0.9370  -16.5360    4.1310 C.3     1  DA1         0.1559
      6  O3'        1.7830  -16.8970    5.2180 O.3     1  DA1        -0.3138
      7  C2'        1.1060  -17.4180    2.9030 C.3     1  DA1         0.0865
      8  C1'       -0.3060  -17.3830    2.3090 C.3     1  DA1         0.2094
      9  N9        -0.8370  -16.0820    1.3250 N.ar    1  DA1        -0.2714
     10  C8        -1.0150  -14.7550    1.6140 C.ar    1  DA1         0.1815
     11  N7        -0.9710  -13.9730    0.5610 N.ar    1  DA1        -0.2193
     12  C5        -0.7470  -14.8470   -0.4910 C.ar    1  DA1         0.1518
     13  C6        -0.5990  -14.6440   -1.8750 C.ar    1  DA1         0.1919
     14  N6        -0.6600  -13.4430   -2.4560 N.pl3   1  DA1        -0.1054
     15  N1        -0.3850  -15.7290   -2.6480 N.ar    1  DA1        -0.2040
     16  C2        -0.3260  -16.9320   -2.0650 C.ar    1  DA1         0.2016
     17  N3        -0.4500  -17.2490   -0.7780 N.ar    1  DA1        -0.2048
     18  C4        -0.6610  -16.1490   -0.0360 C.ar    1  DA1         0.1691
     19  P          3.3210  -15.7830    5.7420 P.3     2  DT2         0.2141
     20  OP1        3.9570  -16.0670    7.0520 O.3     2  DT2        -0.4373
     21  OP2        3.4280  -14.4460    5.1080 O.2     2  DT2        -0.5172
     22  O5'        3.8140  -16.8100    4.6160 O.3     2  DT2        -0.3114
     23  C5'        5.1730  -17.0620    4.3170 C.3     2  DT2         0.1811
     24  C4'        5.3000  -17.6430    2.9390 C.3     2  DT2         0.1746
     25  O4'        4.0530  -17.4820    2.2190 O.3     2  DT2        -0.3327
     26  C3'        6.2980  -16.9180    2.0650 C.3     2  DT2         0.1558
     27  O3'        7.6310  -17.2920    2.3280 O.3     2  DT2        -0.3138
     28  C2'        5.8260  -17.2340    0.6570 C.3     2  DT2         0.0866
     29  C1'        4.3170  -17.1850    0.8610 C.3     2  DT2         0.2106
     30  N1         3.9100  -15.8730    0.4130 N.ar    2  DT2        -0.2559
     31  C2         3.9220  -15.4900   -0.9150 C.ar    2  DT2         0.3545
     32  O2         4.4460  -16.1520   -1.7930 O.2     2  DT2        -0.2443
     33  N3         3.2960  -14.2960   -1.1800 N.ar    2  DT2        -0.1533
     34  C4         2.6740  -13.4650   -0.2720 C.ar    2  DT2         0.2804
     35  O4         2.1540  -12.4230   -0.6630 O.2     2  DT2        -0.2654
     36  C5         2.7050  -13.9310    1.0860 C.ar    2  DT2         0.0534
     37  C6         3.3070  -15.0890    1.3720 C.ar    2  DT2         0.0824
     38  C7         2.0550  -13.0960    2.1490 C.3     2  DT2         0.0377
     39  P          8.2780  -16.1770    2.7770 P.3     3  DA3         0.2141
     40  OP1        9.5200  -16.7070    3.3890 O.2     3  DA3        -0.5172
     41  OP2        7.5310  -15.0870    3.4300 O.3     3  DA3        -0.4373
     42  O5'        8.6780  -15.8110    1.2890 O.3     3  DA3        -0.3114
     43  C5'        9.4670  -16.7020    0.5270 C.3     3  DA3         0.1811
     44  C4'        9.7130  -16.0220   -0.8000 C.3     3  DA3         0.1746
     45  O4'        8.4180  -15.7510   -1.4200 O.3     3  DA3        -0.3327
     46  C3'       10.3460  -14.6380   -0.7160 C.3     3  DA3         0.1558
     47  O3'       11.7770  -14.6830   -0.5730 O.3     3  DA3        -0.3138
     48  C2'        9.9550  -14.0630   -2.0720 C.3     3  DA3         0.0865
     49  C1'        8.5500  -14.6450   -2.3120 C.3     3  DA3         0.2094
     50  N9         7.3540  -13.7510   -2.0690 N.ar    3  DA3        -0.2714
     51  C8         6.4580  -13.7090   -1.0320 C.ar    3  DA3         0.1815
     52  N7         5.6230  -12.7000   -1.0950 N.ar    3  DA3        -0.2193
     53  C5         5.9950  -12.0330   -2.2510 C.ar    3  DA3         0.1518
     54  C6         5.4980  -10.8770   -2.8780 C.ar    3  DA3         0.1919
     55  N6         4.4750  -10.1620   -2.4060 N.pl3   3  DA3        -0.1054
     56  N1         6.0960  -10.4770   -4.0210 N.ar    3  DA3        -0.2040
     57  C2         7.1210  -11.1950   -4.4940 C.ar    3  DA3         0.2016
     58  N3         7.6770  -12.2980   -3.9960 N.ar    3  DA3        -0.2048
     59  C4         7.0610  -12.6680   -2.8610 C.ar    3  DA3         0.1691
     60  P         12.6570  -13.5550    0.3740 P.3     4  DC4         0.2141
     61  OP1       14.2380  -13.9480    0.9370 O.2     4  DC4        -0.5172
     62  OP2       11.8270  -13.0640    1.4080 O.3     4  DC4        -0.4373
     63  O5'       12.2990  -12.5510   -1.4130 O.3     4  DC4        -0.3114
     64  C5'       13.5390  -12.6890   -2.1620 C.3     4  DC4         0.1811
     65  C4'       13.6680  -11.3670   -2.9190 C.3     4  DC4         0.1746
     66  O4'       12.4690  -11.2400   -3.7010 O.3     4  DC4        -0.3327
     67  C3'       13.5750  -10.1630   -1.9450 C.3     4  DC4         0.1558
     68  O3'       14.8730   -9.9870   -1.3530 O.3     4  DC4        -0.3138
     69  C2'       13.0960   -9.1010   -2.9560 C.3     4  DC4         0.0866
     70  C1'       12.0080   -9.8810   -3.6990 C.3     4  DC4         0.2106
     71  N1        10.6140   -9.8770   -3.0480 N.ar    4  DC4        -0.2556
     72  C2         9.8470   -8.7710   -3.4300 C.ar    4  DC4         0.3531
     73  O2        10.2370   -8.0720   -4.3810 O.2     4  DC4        -0.2443
     74  N3         8.7060   -8.4940   -2.7540 N.ar    4  DC4        -0.1739
     75  C4         8.3280   -9.2710   -1.7380 C.ar    4  DC4         0.1759
     76  N4         7.1960   -8.9600   -1.1010 N.pl3   4  DC4        -0.1070
     77  C5         9.0910  -10.3970   -1.3360 C.ar    4  DC4         0.0566
     78  C6        10.2170  -10.6660   -2.0060 C.ar    4  DC4         0.0849
     79  P         15.2390   -8.6840   -0.0370 P.3     5  DC5         0.2141
     80  OP1       16.7110   -8.8760   -0.1460 O.2     5  DC5        -0.5172
     81  OP2       14.4730   -9.3950    1.0060 O.3     5  DC5        -0.4373
     82  O5'       14.9420   -7.1320    0.1480 O.3     5  DC5        -0.3114
     83  C5'       15.8900   -6.1370   -0.2970 C.3     5  DC5         0.1811
     84  C4'       15.2040   -5.1180   -1.1870 C.3     5  DC5         0.1746
     85  O4'       13.9440   -5.6580   -1.6750 O.3     5  DC5        -0.3327
     86  C3'       14.8120   -3.7880   -0.5720 C.3     5  DC5         0.1558
     87  O3'       15.9090   -2.8930   -0.5660 O.3     5  DC5        -0.3138
     88  C2'       13.7360   -3.3140   -1.5350 C.3     5  DC5         0.0866
     89  C1'       13.0090   -4.6160   -1.8510 C.3     5  DC5         0.2106
     90  N1        11.8440   -4.7750   -0.8670 N.ar    5  DC5        -0.2556
     91  C2        10.7180   -3.9430   -0.8720 C.ar    5  DC5         0.3531
     92  O2        10.7760   -2.8620   -1.4820 O.2     5  DC5        -0.2443
     93  N3         9.6030   -4.3390   -0.2130 N.ar    5  DC5        -0.1739
     94  C4         9.5870   -5.5070    0.4290 C.ar    5  DC5         0.1759
     95  N4         8.4660   -5.8550    1.0650 N.pl3   5  DC5        -0.1070
     96  C5        10.7170   -6.3640    0.4460 C.ar    5  DC5         0.0566
     97  C6        11.8160   -5.9700   -0.2060 C.ar    5  DC5         0.0849
     98  P         15.8480   -1.5590    0.2770 P.3     6  DA6         0.2141
     99  OP1       16.9760   -0.5950    0.2740 O.2     6  DA6        -0.5172
    100  OP2       15.6960   -2.5580    1.3690 O.3     6  DA6        -0.4373
    101  O5'       14.4790   -0.7490    0.1120 O.3     6  DA6        -0.3114
    102  C5'       14.2800   -0.0260   -1.1020 C.3     6  DA6         0.1811
    103  C4'       12.8110    0.1910   -1.3990 C.3     6  DA6         0.1746
    104  O4'       12.0890   -1.0610   -1.4540 O.3     6  DA6        -0.3327
    105  C3'       12.0510    0.9340   -0.3230 C.3     6  DA6         0.1558
    106  O3'       12.4080    2.2850   -0.3040 O.3     6  DA6        -0.3138
    107  C2'       10.6380    0.6970   -0.8250 C.3     6  DA6         0.0865
    108  C1'       10.7300   -0.7930   -1.1540 C.3     6  DA6         0.2094
    109  N9        10.3600   -1.6560    0.0200 N.ar    6  DA6        -0.2714
    110  C8        11.2400   -2.3900    0.7720 C.ar    6  DA6         0.1815
    111  N7        10.6650   -3.1060    1.7090 N.ar    6  DA6        -0.2193
    112  C5         9.3160   -2.8220    1.5640 C.ar    6  DA6         0.1518
    113  C6         8.1760   -3.2650    2.2570 C.ar    6  DA6         0.1919
    114  N6         8.2190   -4.1260    3.2760 N.pl3   6  DA6        -0.1054
    115  N1         6.9770   -2.7870    1.8610 N.ar    6  DA6        -0.2040
    116  C2         6.9350   -1.9250    0.8390 C.ar    6  DA6         0.2016
    117  N3         7.9360   -1.4360    0.1100 N.ar    6  DA6        -0.2048
    118  C4         9.1130   -1.9290    0.5290 C.ar    6  DA6         0.1691
    119  P         12.4590    2.8960    1.0900 P.3     7  DG7         0.2141
    120  OP1       13.1640    4.1220    0.6510 O.2     7  DG7        -0.5172
    121  OP2       13.0660    2.0010    2.1030 O.3     7  DG7        -0.4373
    122  O5'       10.9910    3.2720    1.5950 O.3     7  DG7        -0.3114
    123  C5'       10.2180    4.2270    0.8900 C.3     7  DG7         0.1811
    124  C4'        8.7550    3.8510    0.9820 C.3     7  DG7         0.1746
    125  O4'        8.6350    2.4170    0.9720 O.3     7  DG7        -0.3327
    126  C3'        8.0860    4.1780    2.2970 C.3     7  DG7         0.1558
    127  O3'        7.7580    5.5410    2.3570 O.3     7  DG7        -0.3138
    128  C2'        6.8550    3.2850    2.2650 C.3     7  DG7         0.0865
    129  C1'        7.4860    2.0230    1.6970 C.3     7  DG7         0.2094
    130  N9         7.9350    1.0120    2.6920 N.ar    7  DG7        -0.2713
    131  C8         9.2040    0.5080    2.8460 C.ar    7  DG7         0.1816
    132  N7         9.2840   -0.4140    3.7660 N.ar    7  DG7        -0.2173
    133  C5         7.9940   -0.5300    4.2490 C.ar    7  DG7         0.1748
    134  C6         7.4580   -1.3690    5.2600 C.ar    7  DG7         0.3023
    135  O6         8.0490   -2.2070    5.9520 O.2     7  DG7        -0.2633
    136  N1         6.0920   -1.1640    5.4370 N.ar    7  DG7        -0.1709
    137  C2         5.3360   -0.2620    4.7270 C.ar    7  DG7         0.2606
    138  N2         4.0340   -0.2080    5.0390 N.pl3   7  DG7        -0.0859
    139  N3         5.8200    0.5240    3.7860 N.ar    7  DG7        -0.1918
    140  C4         7.1440    0.3430    3.5970 C.ar    7  DG7         0.1722
    141  P          7.9890    6.2120    3.6600 P.3     8  DC8         0.2141
    142  OP1        7.4980    7.5670    4.0050 O.2     8  DC8        -0.5172
    143  OP2        9.0060    5.5550    4.5200 O.3     8  DC8        -0.4373
    144  O5'        6.7430    5.2060    3.5400 O.3     8  DC8        -0.3114
    145  C5'        5.4410    5.6820    3.2450 C.3     8  DC8         0.1811
    146  C4'        4.4650    5.1280    4.2490 C.3     8  DC8         0.1746
    147  O4'        4.6570    3.6980    4.3220 O.3     8  DC8        -0.3327
    148  C3'        4.7070    5.5900    5.6700 C.3     8  DC8         0.1558
    149  O3'        4.1110    6.8470    5.9150 O.3     8  DC8        -0.3138
    150  C2'        4.0150    4.4830    6.4540 C.3     8  DC8         0.0866
    151  C1'        4.3740    3.2590    5.6400 C.3     8  DC8         0.2106
    152  N1         5.4550    2.5900    6.2370 N.ar    8  DC8        -0.2556
    153  C2         5.2310    1.6310    7.2330 C.ar    8  DC8         0.3531
    154  O2         4.0600    1.3350    7.5250 O.2     8  DC8        -0.2443
    155  N3         6.2940    1.0580    7.8470 N.ar    8  DC8        -0.1739
    156  C4         7.5330    1.4080    7.5020 C.ar    8  DC8         0.1759
    157  N4         8.5490    0.8170    8.1350 N.pl3   8  DC8        -0.1070
    158  C5         7.7810    2.3770    6.4960 C.ar    8  DC8         0.0566
    159  C6         6.7290    2.9410    5.8910 C.ar    8  DC8         0.0849
    160  P          4.7090    7.8810    7.0290 P.3     9  DT9         0.2141
    161  OP1        3.8100    9.0480    7.2130 O.2     9  DT9        -0.5172
    162  OP2        6.1800    8.0160    7.2550 O.3     9  DT9        -0.4373
    163  O5'        4.1770    6.6670    7.9070 O.3     9  DT9        -0.3114
    164  C5'        2.7890    6.4190    8.0160 C.3     9  DT9         0.1811
    165  C4'        2.5190    5.5810    9.2300 C.3     9  DT9         0.1746
    166  O4'        2.9740    4.2220    8.9980 O.3     9  DT9        -0.3327
    167  C3'        3.2580    6.0120   10.4800 C.3     9  DT9         0.1558
    168  O3'        2.6490    7.1110   11.1460 O.3     9  DT9        -0.3138
    169  C2'        3.2960    4.7260   11.3000 C.3     9  DT9         0.0866
    170  C1'        3.4470    3.6640   10.2110 C.3     9  DT9         0.2106
    171  N1         4.9210    3.3560   10.0880 N.ar    9  DT9        -0.2559
    172  C2         5.4070    2.3850   10.9440 C.ar    9  DT9         0.3545
    173  O2         4.7120    1.8200   11.7700 O.2     9  DT9        -0.2443
    174  N3         6.7420    2.0980   10.7980 N.ar    9  DT9        -0.1533
    175  C4         7.6220    2.6720    9.9040 C.ar    9  DT9         0.2804
    176  O4         8.7950    2.3080    9.8910 O.2     9  DT9        -0.2654
    177  C5         7.0420    3.6710    9.0510 C.ar    9  DT9         0.0534
    178  C6         5.7460    3.9700    9.1710 C.ar    9  DT9         0.0824
    179  C7         7.9180    4.3540    8.0430 C.3     9  DT9         0.0377
    180  P          3.5860    8.2550   11.7510 P.3    10  DT10        0.2141
    181  OP1        2.7920    9.2390   12.5330 O.3    10  DT10       -0.4373
    182  OP2        4.4710    8.7230   10.6550 O.2    10  DT10       -0.5172
    183  O5'        4.4590    7.3850   12.7640 O.3    10  DT10       -0.3114
    184  C5'        3.9320    6.9900   14.0510 C.3    10  DT10        0.1811
    185  C4'        4.9760    6.2280   14.8350 C.3    10  DT10        0.1746
    186  O4'        5.3620    5.0570   14.0730 O.3    10  DT10       -0.3327
    187  C3'        6.2760    6.9730   15.1060 C.3    10  DT10        0.1558
    188  O3'        6.1960    7.7110   16.3220 O.3    10  DT10       -0.3138
    189  C2'        7.2960    5.8470   15.2220 C.3    10  DT10        0.0866
    190  C1'        6.7480    4.8140   14.2350 C.3    10  DT10        0.2106
    191  N1         7.3700    4.9060   12.9150 N.ar   10  DT10       -0.2559
    192  C2         8.6430    4.3840   12.7880 C.ar   10  DT10        0.3545
    193  O2         9.2260    3.8270   13.7010 O.2    10  DT10       -0.2443
    194  N3         9.2150    4.5410   11.5490 N.ar   10  DT10       -0.1533
    195  C4         8.6530    5.1520   10.4470 C.ar   10  DT10        0.2804
    196  O4         9.2910    5.2150    9.3990 O.2    10  DT10       -0.2654
    197  C5         7.3300    5.6690   10.6580 C.ar   10  DT10        0.0534
    198  C6         6.7510    5.5300   11.8540 C.ar   10  DT10        0.0824
    199  C7         6.6340    6.3530    9.5190 C.3    10  DT10        0.0377
    200  P          7.1130    8.8740   16.5760 P.3    11  DA11        0.2141
    201  OP1        6.5230    9.6680   17.6820 O.3    11  DA11       -0.4373
    202  OP2        7.1580    9.4310   15.2030 O.2    11  DA11       -0.5172
    203  O5'        8.6190    8.4840   16.9110 O.3    11  DA11       -0.3114
    204  C5'        8.9050    7.6800   18.0210 C.3    11  DA11        0.1811
    205  C4'       10.3680    7.3220   17.9300 C.3    11  DA11        0.1746
    206  O4'       10.5470    6.3540   16.8710 O.3    11  DA11       -0.3327
    207  C3'       11.2570    8.4780   17.5120 C.3    11  DA11        0.1558
    208  O3'       11.5260    9.3240   18.6350 O.3    11  DA11       -0.3138
    209  C2'       12.4720    7.7030   17.0060 C.3    11  DA11        0.0865
    210  C1'       11.8000    6.5530   16.2540 C.3    11  DA11        0.2094
    211  N9        11.5690    6.9080   14.8550 N.ar   11  DA11       -0.2714
    212  C8        10.4350    7.4540   14.3110 C.ar   11  DA11        0.1815
    213  N7        10.5310    7.7030   13.0270 N.ar   11  DA11       -0.2193
    214  C5        11.8160    7.2940   12.7050 C.ar   11  DA11        0.1518
    215  C6        12.5330    7.2930   11.4950 C.ar   11  DA11        0.1919
    216  N6        12.0330    7.7350   10.3390 N.pl3  11  DA11       -0.1054
    217  N1        13.7960    6.8170   11.5170 N.ar   11  DA11       -0.2040
    218  C2        14.2960    6.3730   12.6760 C.ar   11  DA11        0.2016
    219  N3        13.7200    6.3220   13.8750 N.ar   11  DA11       -0.2048
    220  C4        12.4670    6.8030   13.8200 C.ar   11  DA11        0.1691
    221  P         12.1180   10.8050   18.4900 P.3    12  DT12        0.2141
    222  OP1       12.2630   11.3990   19.8520 O.3    12  DT12       -0.4373
    223  OP2       11.0550   11.2990   17.5500 O.2    12  DT12       -0.5172
    224  O5'       13.5250   10.9110   17.7520 O.3    12  DT12       -0.3114
    225  C5'       14.7360   10.6020   18.4230 C.3    12  DT12        0.1811
    226  C4'       15.8860   10.6480   17.4500 C.3    12  DT12        0.1746
    227  O4'       15.6190    9.7310   16.3600 O.3    12  DT12       -0.3327
    228  C3'       16.1380   11.9830   16.7700 C.3    12  DT12        0.1558
    229  O3'       16.9580   12.8200   17.5810 O.3    12  DT12       -0.3138
    230  C2'       16.8550   11.5780   15.4880 C.3    12  DT12        0.0866
    231  C1'       16.2040   10.2250   15.1690 C.3    12  DT12        0.2106
    232  N1        15.2970   10.2240   14.0800 N.ar   12  DT12       -0.2559
    233  C2        15.8040   10.1100   12.8000 C.ar   12  DT12        0.3545
    234  O2        16.9740    9.8640   12.5680 O.2    12  DT12       -0.2443
    235  N3        14.8870   10.2990   11.7930 N.ar   12  DT12       -0.1533
    236  C4        13.5450   10.5820   11.9360 C.ar   12  DT12        0.2804
    237  O4        12.8470   10.7240   10.9350 O.2    12  DT12       -0.2654
    238  C5        13.0950   10.6850   13.2960 C.ar   12  DT12        0.0534
    239  C6        13.9650   10.5060   14.2930 C.ar   12  DT12        0.0824
    240  C7        11.6500   10.9910   13.5560 C.3    12  DT12        0.0377
    241  P         17.1250   14.5390   17.2420 P.3    13  DT13        0.2141
    242  OP1       17.7750   15.3960   18.2800 O.3    13  DT13       -0.4373
    243  OP2       15.9100   15.0200   16.5340 O.2    13  DT13       -0.5172
    244  O5'       18.2120   14.1490   16.1510 O.3    13  DT13       -0.3114
    245  C5'       19.3570   13.3790   16.4990 C.3    13  DT13        0.1811
    246  C4'       20.0340   12.8790   15.2530 C.3    13  DT13        0.1746
    247  O4'       19.0880   12.0920   14.4860 O.3    13  DT13       -0.3327
    248  C3'       20.4850   13.9350   14.2670 C.3    13  DT13        0.1558
    249  O3'       21.7130   14.5340   14.6080 O.3    13  DT13       -0.3138
    250  C2'       20.5570   13.1590   12.9650 C.3    13  DT13        0.0866
    251  C1'       19.3490   12.2450   13.0990 C.3    13  DT13        0.2106
    252  N1        18.1460   12.8310   12.4630 N.ar   13  DT13       -0.2559
    253  C2        17.9880   12.6690   11.1000 C.ar   13  DT13        0.3545
    254  O2        18.8320   12.1500   10.3900 O.2    13  DT13       -0.2443
    255  N3        16.8010   13.1390   10.5930 N.ar   13  DT13       -0.1533
    256  C4        15.7790   13.7410   11.2960 C.ar   13  DT13        0.2804
    257  O4        14.7700   14.1110   10.7000 O.2    13  DT13       -0.2654
    258  C5        16.0180   13.8740   12.7050 C.ar   13  DT13        0.0534
    259  C6        17.1640   13.4260   13.2250 C.ar   13  DT13        0.0824
    260  C7        14.9640   14.5180   13.5570 C.3    13  DT13        0.0377
    261  P         21.9440   15.9220   14.2870 P.3    14  DC14        0.2141
    262  OP1       23.0130   16.3010   15.2460 O.3    14  DC14       -0.4373
    263  OP2       20.9230   16.9160   13.8730 O.2    14  DC14       -0.5172
    264  O5'       22.6120   15.3650   12.9390 O.3    14  DC14       -0.3114
    265  C5'       23.6840   14.4310   13.0040 C.3    14  DC14        0.1811
    266  C4'       23.7580   13.5880   11.7440 C.3    14  DC14        0.1746
    267  O4'       22.4600   13.0090   11.4500 O.3    14  DC14       -0.3327
    268  C3'       24.1210   14.3390   10.4750 C.3    14  DC14        0.1558
    269  O3'       25.5180   14.4850   10.3820 O.3    14  DC14       -0.3138
    270  C2'       23.6090   13.3610    9.4350 C.3    14  DC14        0.0866
    271  C1'       22.2750   12.9530   10.0510 C.3    14  DC14        0.2106
    272  N1        21.1920   13.8340    9.7260 N.ar   14  DC14       -0.2556
    273  C2        20.5040   13.7270    8.5110 C.ar   14  DC14        0.3531
    274  O2        20.8630   12.8610    7.6950 O.2    14  DC14       -0.2443
    275  N3        19.4720   14.5680    8.2610 N.ar   14  DC14       -0.1739
    276  C4        19.1220   15.4830    9.1660 C.ar   14  DC14        0.1759
    277  N4        18.0990   16.2900    8.8760 N.pl3  14  DC14       -0.1070
    278  C5        19.8060   15.6070   10.4030 C.ar   14  DC14        0.0566
    279  C6        20.8250   14.7750   10.6460 C.ar   14  DC14        0.0849
    280  P         26.0650   15.5010    9.8890 P.3    15  DA15        0.2141
    281  OP1       27.4570   15.2820   10.3480 O.2    15  DA15       -0.5172
    282  OP2       25.2950   16.6370   10.4390 O.3    15  DA15       -0.4373
    283  O5'       26.0820   15.6170    8.2940 O.3    15  DA15       -0.3114
    284  C5'       26.6390   14.5640    7.5120 C.3    15  DA15        0.1811
    285  C4'       25.7320   14.1960    6.3520 C.3    15  DA15        0.1746
    286  O4'       24.3570   14.0210    6.7900 O.3    15  DA15       -0.3327
    287  C3'       25.5860   15.2650    5.2810 C.3    15  DA15        0.1558
    288  O3'       26.7600   15.4120    4.4940 O.3    15  DA15       -0.3138
    289  C2'       24.3540   14.7450    4.5410 C.3    15  DA15        0.0865
    290  C1'       23.4750   14.4320    5.7510 C.3    15  DA15        0.2094
    291  N9        22.7300   15.6240    6.1970 N.ar   15  DA15       -0.2714
    292  C8        22.9640   16.3160    7.3570 C.ar   15  DA15        0.1815
    293  N7        22.0460   17.2120    7.6320 N.ar   15  DA15       -0.2193
    294  C5        21.1480   17.1010    6.5820 C.ar   15  DA15        0.1518
    295  C6        19.9520   17.7770    6.2850 C.ar   15  DA15        0.1919
    296  N6        19.4350   18.7380    7.0540 N.pl3  15  DA15       -0.1054
    297  N1        19.2980   17.4270    5.1570 N.ar   15  DA15       -0.2040
    298  C2        19.8160   16.4630    4.3870 C.ar   15  DA15        0.2016
    299  N3        20.9300   15.7560    4.5610 N.ar   15  DA15       -0.2048
    300  C4        21.5570   16.1280    5.6900 C.ar   15  DA15        0.1691
    301  P         27.4120   16.8720    4.4130 P.3    16  DA16        0.2141
    302  OP1       28.6790   16.3060    3.8880 O.2    16  DA16       -0.5172
    303  OP2       27.4580   17.9750    5.4080 O.3    16  DA16       -0.4373
    304  O5'       26.5340   17.3900    3.1810 O.3    16  DA16       -0.3114
    305  C5'       26.5500   16.6960    1.9310 C.3    16  DA16        0.1811
    306  C4'       25.3140   17.0170    1.1210 C.3    16  DA16        0.1746
    307  O4'       24.1540   16.8440    1.9750 O.3    16  DA16       -0.3327
    308  C3'       25.1880   18.4290    0.5670 C.3    16  DA16        0.1558
    309  O3'       25.7730   18.5320   -0.7340 O.3    16  DA16       -0.3138
    310  C2'       23.6780   18.6290    0.4720 C.3    16  DA16        0.0865
    311  C1'       23.1610   17.7880    1.6330 C.3    16  DA16        0.2094
    312  N9        22.7910   18.4650    2.7750 N.ar   16  DA16       -0.2714
    313  C8        23.5340   18.7270    3.8960 C.ar   16  DA16        0.1815
    314  N7        22.9310   19.5100    4.7590 N.ar   16  DA16       -0.2193
    315  C5        21.7090   19.7810    4.1640 C.ar   16  DA16        0.1518
    316  C6        20.6090   20.5550    4.5730 C.ar   16  DA16        0.1919
    317  N6        20.5640   21.2230    5.7280 N.pl3  16  DA16       -0.1054
    318  N1        19.5450   20.6180    3.7450 N.ar   16  DA16       -0.2040
    319  C2        19.5910   19.9480    2.5880 C.ar   16  DA16        0.2016
    320  N3        20.5670   19.1880    2.0950 N.ar   16  DA16       -0.2048
    321  C4        21.6090   19.1460    2.9410 C.ar   16  DA16        0.1691
    322  P         25.6760   20.0150   -1.5050 P.3    17  DT17        0.2141
    323  OP1       26.1950   20.0270   -2.8940 O.2    17  DT17       -0.5172
    324  OP2       26.4870   20.6070   -0.4080 O.3    17  DT17       -0.4373
    325  O5'       24.2400   20.7180   -1.4670 O.3    17  DT17       -0.3114
    326  C5'       23.2700   20.4970   -2.5150 C.3    17  DT17        0.1811
    327  C4'       21.9690   21.2360   -2.2280 C.3    17  DT17        0.1746
    328  O4'       21.4200   20.8000   -0.9540 O.3    17  DT17       -0.3327
    329  C3'       21.9840   22.7580   -2.1290 C.3    17  DT17        0.1558
    330  O3'       21.8900   23.3840   -3.4050 O.3    17  DT17       -0.3138
    331  C2'       20.7210   23.0490   -1.3300 C.3    17  DT17        0.0866
    332  C1'       20.6430   21.8430   -0.3920 C.3    17  DT17        0.2106
    333  N1        21.1050   22.2090    0.9110 N.ar   17  DT17       -0.2559
    334  C2        20.1840   22.7610    1.7810 C.ar   17  DT17        0.3545
    335  O2        19.0000   22.8670    1.5150 O.2    17  DT17       -0.2443
    336  N3        20.7020   23.1900    2.9790 N.ar   17  DT17       -0.1533
    337  C4        22.0180   23.1230    3.3860 C.ar   17  DT17        0.2804
    338  O4        22.3300   23.5490    4.4950 O.3    17  DT17       -0.2654
    339  C5        22.9120   22.5380    2.4280 C.ar   17  DT17        0.0534
    340  C6        22.4360   22.1130    1.2540 C.ar   17  DT17        0.0824
    341  C7        24.3660   22.4210    2.7780 C.3    17  DT17        0.0377
    342  P         22.1320   25.1340   -3.5500 P.3    18  DT18        0.2141
    343  OP1       21.9310   25.7210   -4.8980 O.2    18  DT18       -0.5172
    344  OP2       23.4300   25.3380   -2.8420 O.3    18  DT18       -0.4373
    345  O5'       20.9500   25.6440   -2.6060 O.3    18  DT18       -0.3114
    346  C5'       19.6760   25.9360   -3.1560 C.3    18  DT18        0.1811
    347  C4'       18.7990   26.6320   -2.1500 C.3    18  DT18        0.1746
    348  O4'       18.5480   25.7170   -1.0410 O.3    18  DT18       -0.3327
    349  C3'       19.3940   27.8560   -1.4610 C.3    18  DT18        0.1558
    350  O3'       19.2980   29.0580   -2.2270 O.3    18  DT18       -0.3138
    351  C2'       18.5570   27.9390   -0.1970 C.3    18  DT18        0.0866
    352  C1'       18.4100   26.4630    0.1590 C.3    18  DT18        0.2106
    353  N1        19.4640   25.9960    1.1580 N.ar   18  DT18       -0.2559
    354  C2        19.1680   26.3080    2.4720 C.ar   18  DT18        0.3545
    355  O2        18.1200   26.8280    2.8110 O.2    18  DT18       -0.2443
    356  N3        20.1490   25.9880    3.3800 N.ar   18  DT18       -0.1533
    357  C4        21.3680   25.4020    3.1120 C.ar   18  DT18        0.2804
    358  O4        22.1460   25.1740    4.0350 O.3    18  DT18       -0.2654
    359  C5        21.6010   25.1100    1.7250 C.ar   18  DT18        0.0534
    360  C6        20.6650   25.4100    0.8220 C.ar   18  DT18        0.0824
    361  C7        22.9000   24.4720    1.3310 C.3    18  DT18        0.0377
    362  P         20.3360   30.2970   -1.9530 P.3    19  DA19        0.2141
    363  OP1       20.5200   30.5390   -3.3990 O.2    19  DA19       -0.5172
    364  OP2       21.4820   29.8200   -1.1530 O.3    19  DA19       -0.4373
    365  O5'       19.7720   31.6030   -1.2140 O.3    19  DA19       -0.3114
    366  C5'       18.4970   31.6280   -0.5640 C.3    19  DA19        0.1812
    367  C4'       18.5420   31.8690    0.9450 C.3    19  DA19        0.1775
    368  O4'       18.6030   30.6280    1.7080 O.3    19  DA19       -0.3326
    369  C3'       19.7160   32.6620    1.4950 C.3    19  DA19        0.1864
    370  O3'       19.5850   34.0340    1.2390 O.3    19  DA19       -0.2133
    371  C2'       19.6040   32.3780    2.9840 C.3    19  DA19        0.0894
    372  C1'       19.2260   30.8960    2.9590 C.3    19  DA19        0.2095
    373  N9        20.4160   30.0770    3.1850 N.ar   19  DA19       -0.2714
    374  C8        21.1710   29.4050    2.2600 C.ar   19  DA19        0.1815
    375  N7        22.1580   28.7170    2.7830 N.ar   19  DA19       -0.2193
    376  C5        22.0440   28.9540    4.1430 C.ar   19  DA19        0.1518
    377  C6        22.7930   28.5100    5.2470 C.ar   19  DA19        0.1919
    378  N6        23.8490   27.6990    5.1460 N.pl3  19  DA19       -0.1054
    379  N1        22.4150   28.9330    6.4720 N.ar   19  DA19       -0.2040
    380  C2        21.3560   29.7450    6.5720 C.ar   19  DA19        0.2016
    381  N3        20.5740   30.2290    5.6110 N.ar   19  DA19       -0.2048
    382  C4        20.9760   29.7910    4.4060 C.ar   19  DA19        0.1691
    383  P         20.8310   34.9160    1.2260 P.3    20  DA20        0.3939
    384  OP1       19.5410   35.0800    0.5250 O.3    20  DA20       -0.1496
    385  OP2       21.8480   35.9810    1.1540 O.3    20  DA20       -0.1425
    386  O5'       20.5790   34.6280    2.7750 O.3    20  DA20       -0.2926
    387  C5'       19.9120   35.6110    3.5500 C.3    20  DA20        0.1828
    388  C4'       20.7260   35.9840    4.7680 C.3    20  DA20        0.1747
    389  O4'       20.7870   34.8270    5.6330 O.3    20  DA20       -0.3327
    390  C3'       22.1850   36.3320    4.5130 C.3    20  DA20        0.1558
    391  O3'       22.3230   37.7010    4.1550 O.3    20  DA20       -0.3138
    392  C2'       22.7850   36.0370    5.8820 C.3    20  DA20        0.0865
    393  C1'       22.0520   34.7550    6.2630 C.3    20  DA20        0.2094
    394  N9        22.7490   33.6330    5.7800 N.ar   20  DA20       -0.2714
    395  C8        22.7800   33.1240    4.5080 C.ar   20  DA20        0.1815
    396  N7        23.5870   32.0990    4.3680 N.ar   20  DA20       -0.2193
    397  C5        24.1230   31.9230    5.6340 C.ar   20  DA20        0.1518
    398  C6        25.0490   30.9990    6.1490 C.ar   20  DA20        0.1919
    399  N6        25.6180   30.0380    5.4190 N.pl3  20  DA20       -0.1054
    400  N1        25.3710   31.0980    7.4570 N.ar   20  DA20       -0.2040
    401  C2        24.7990   32.0620    8.1880 C.ar   20  DA20        0.2016
    402  N3        23.9170   32.9870    7.8170 N.ar   20  DA20       -0.2048
    403  C4        23.6180   32.8620    6.5130 C.ar   20  DA20        0.1691
    404  P         23.6100   38.2130    3.0990 P.3    21  DT21        0.2141
    405  OP1       23.7180   39.3270    2.1290 O.2    21  DT21       -0.5172
    406  OP2       23.3320   36.8370    2.6280 O.3    21  DT21       -0.4373
    407  O5'       24.9850   38.0830    3.9130 O.3    21  DT21       -0.3114
    408  C5'       25.5010   39.1890    4.6430 C.3    21  DT21        0.1811
    409  C4'       26.0650   38.7750    5.9820 C.3    21  DT21        0.1746
    410  O4'       25.5310   37.4780    6.3710 O.3    21  DT21       -0.3327
    411  C3'       27.5720   38.5700    6.0630 C.3    21  DT21        0.1558
    412  O3'       28.3130   39.7770    6.1360 O.3    21  DT21       -0.3138
    413  C2'       27.6950   37.7060    7.3130 C.3    21  DT21        0.0866
    414  C1'       26.4820   36.7870    7.1600 C.3    21  DT21        0.2106
    415  N1        26.8030   35.5280    6.4300 N.ar   21  DT21       -0.2559
    416  C2        27.5910   34.5490    7.0030 C.ar   21  DT21        0.3545
    417  O2        28.1990   34.7120    8.0460 O.2    21  DT21       -0.2443
    418  N3        27.6440   33.3650    6.3090 N.ar   21  DT21       -0.1533
    419  C4        27.0020   33.0690    5.1240 C.ar   21  DT21        0.2804
    420  O4        27.1460   31.9580    4.6200 O.2    21  DT21       -0.2654
    421  C5        26.2040   34.1370    4.5920 C.ar   21  DT21        0.0534
    422  C6        26.1350   35.2990    5.2470 C.ar   21  DT21        0.0824
    423  C7        25.4660   33.9130    3.3050 C.3    21  DT21        0.0377
    424  P         30.0590   39.6850    5.9690 P.3    22  DC22        0.2141
    425  OP1       30.4460   41.1230    5.9910 O.3    22  DC22       -0.4373
    426  OP2       29.9540   38.9810    4.6610 O.2    22  DC22       -0.5172
    427  O5'       31.0520   38.8260    6.8840 O.3    22  DC22       -0.3114
    428  C5'       30.9720   38.9120    8.3030 C.3    22  DC22        0.1811
    429  C4'       31.5670   37.6840    8.9630 C.3    22  DC22        0.1746
    430  O4'       30.8270   36.4870    8.6060 O.3    22  DC22       -0.3327
    431  C3'       33.0100   37.3410    8.6480 C.3    22  DC22        0.1558
    432  O3'       33.8960   38.1260    9.4310 O.3    22  DC22       -0.3138
    433  C2'       33.0900   35.8570    8.9980 C.3    22  DC22        0.0866
    434  C1'       31.6950   35.3660    8.6150 C.3    22  DC22        0.2106
    435  N1        31.6590   34.6810    7.2760 N.ar   22  DC22       -0.2556
    436  C2        32.2910   33.4390    7.1490 C.ar   22  DC22        0.3531
    437  O2        32.8180   32.9310    8.1530 O.2    22  DC22       -0.2443
    438  N3        32.3100   32.8300    5.9390 N.ar   22  DC22       -0.1739
    439  C4        31.7320   33.4140    4.8890 C.ar   22  DC22        0.1759
    440  N4        31.7760   32.7750    3.7170 N.pl3  22  DC22       -0.1070
    441  C5        31.0870   34.6720    4.9970 C.ar   22  DC22        0.0566
    442  C6        31.0700   35.2700    6.1930 C.ar   22  DC22        0.0849
    443  P         35.6020   37.9680    8.9900 P.3    23  DG23        0.2141
    444  OP1       36.0600   39.3790    9.0450 O.3    23  DG23       -0.4373
    445  OP2       35.6830   37.2190    7.7090 O.2    23  DG23       -0.5172
    446  O5'       36.3880   37.1460   10.1020 O.3    23  DG23       -0.3114
    447  C5'       37.4630   36.2850    9.7480 C.3    23  DG23        0.1811
    448  C4'       36.9760   34.8600    9.6810 C.3    23  DG23        0.1746
    449  O4'       35.8450   34.7970    8.7760 O.3    23  DG23       -0.3327
    450  C3'       37.9690   33.8500    9.1320 C.3    23  DG23        0.1558
    451  O3'       38.8130   33.3710   10.1710 O.3    23  DG23       -0.3138
    452  C2'       37.0530   32.7600    8.5850 C.3    23  DG23        0.0865
    453  C1'       35.8840   33.5870    8.0380 C.3    23  DG23        0.2094
    454  N9        35.9520   33.3940    6.7570 N.ar   23  DG23       -0.2713
    455  C8        35.8740   34.5610    6.0360 C.ar   23  DG23        0.1816
    456  N7        35.6770   34.3660    4.7600 N.ar   23  DG23       -0.2173
    457  C5        35.6190   32.9910    4.6290 C.ar   23  DG23        0.1748
    458  C6        35.4270   32.1810    3.4800 C.ar   23  DG23        0.3023
    459  O6        35.2610   32.5410    2.3080 O.2    23  DG23       -0.2633
    460  N1        35.4380   30.8240    3.7920 N.ar   23  DG23       -0.1709
    461  C2        35.6120   30.3110    5.0550 C.ar   23  DG23        0.2606
    462  N2        35.5910   28.9750    5.1580 N.pl3  23  DG23       -0.0859
    463  N3        35.7930   31.0510    6.1310 N.ar   23  DG23       -0.1918
    464  C4        35.7870   32.3720    5.8520 C.ar   23  DG23        0.1722
    465  P         39.4670   31.9670    9.7840 P.3    24  DC24        0.2141
    466  OP1       40.8990   31.8330   10.1610 O.3    24  DC24       -0.4373
    467  OP2       39.0980   32.3420    8.3950 O.2    24  DC24       -0.5172
    468  O5'       38.7380   30.5690   10.0500 O.3    24  DC24       -0.3114
    469  C5'       37.4690   30.2800    9.4470 C.3    24  DC24        0.1811
    470  C4'       37.6570   29.6170    8.0930 C.3    24  DC24        0.1743
    471  O4'       38.9330   30.0420    7.5420 O.3    24  DC24       -0.3372
    472  C3'       37.7320   28.0960    8.0520 C.3    24  DC24        0.1554
    473  O3'       36.4330   27.5220    7.9600 O.3    24  DC24       -0.3139
    474  C2'       38.4950   27.8490    6.7570 C.3    24  DC24        0.0812
    475  C1'       39.5070   28.9920    6.7810 C.3    24  DC24        0.1780
    476  N1        40.0520   29.2530    5.7020 N.am   24  DC24       -0.2173
    477  C2        40.5290   29.0690    4.3990 C.2    24  DC24        0.4391
    478  O2        39.7180   28.7910    3.4990 O.2    24  DC24       -0.2193
    479  N3        41.8560   29.1990    4.1580 N.am   24  DC24        0.0487
    480  C4        42.6890   29.4980    5.1550 C.2    24  DC24        0.3888
    481  N4        43.9880   29.6150    4.8700 N.pl3  24  DC24        0.2089
    482  C5        42.2250   29.6880    6.4820 C.3    24  DC24        0.1481
    483  C6        40.9150   29.5590    6.7160 C.3    24  DC24        0.1360
    484  P         35.7540   25.7680    7.8880 P.3    25  DA25        0.2141
    485  OP1       36.1670   24.7140    6.9280 O.2    25  DA25       -0.5172
    486  OP2       34.5680   26.6100    7.5880 O.3    25  DA25       -0.4373
    487  O5'       35.5420   25.0900    9.3110 O.3    25  DA25       -0.3114
    488  C5'       34.2350   24.8310    9.8080 C.3    25  DA25        0.1811
    489  C4'       33.8280   25.9200   10.7670 C.3    25  DA25        0.1746
    490  O4'       33.9650   27.2010   10.1020 O.3    25  DA25       -0.3327
    491  C3'       32.3830   25.8790   11.2350 C.3    25  DA25        0.1558
    492  O3'       32.2530   25.0220   12.3620 O.3    25  DA25       -0.3138
    493  C2'       32.1150   27.3380   11.5870 C.3    25  DA25        0.0865
    494  C1'       32.9160   28.0670   10.5030 C.3    25  DA25        0.2094
    495  N9        32.2420   28.2940    9.2300 N.ar   25  DA25       -0.2714
    496  C8        32.5590   27.6560    8.0590 C.ar   25  DA25        0.1815
    497  N7        31.9410   28.1420    7.0080 N.ar   25  DA25       -0.2193
    498  C5        31.1650   29.1670    7.5240 C.ar   25  DA25        0.1518
    499  C6        30.2740   30.0740    6.9230 C.ar   25  DA25        0.1919
    500  N6        30.0080   30.0920    5.6150 N.pl3  25  DA25       -0.1054
    501  N1        29.6600   30.9720    7.7230 N.ar   25  DA25       -0.2040
    502  C2        29.9280   30.9540    9.0330 C.ar   25  DA25        0.2016
    503  N3        30.7440   30.1530    9.7140 N.ar   25  DA25       -0.2048
    504  C4        31.3380   29.2720    8.8910 C.ar   25  DA25        0.1691
    505  P         30.7990   24.9310   13.2190 P.3    26  DT26        0.2141
    506  OP1       30.9180   24.3640   14.5800 O.3    26  DT26       -0.4373
    507  OP2       30.2290   24.1000   12.1330 O.2    26  DT26       -0.5172
    508  O5'       29.9380   26.2780   13.2660 O.3    26  DT26       -0.3114
    509  C5'       30.0830   27.2250   14.3530 C.3    26  DT26        0.1811
    510  C4'       29.2500   28.4660   14.1020 C.3    26  DT26        0.1746
    511  O4'       29.7070   29.1270   12.8930 O.3    26  DT26       -0.3327
    512  C3'       27.7600   28.2760   13.8750 C.3    26  DT26        0.1558
    513  O3'       27.0320   28.1610   15.0820 O.3    26  DT26       -0.3138
    514  C2'       27.3790   29.5480   13.1350 C.3    26  DT26        0.0866
    515  C1'       28.6160   29.7920   12.2690 C.3    26  DT26        0.2106
    516  N1        28.4210   29.2910   10.8910 N.ar   26  DT26       -0.2559
    517  C2        27.6360   30.1220   10.1150 C.ar   26  DT26        0.3545
    518  O2        27.2190   31.1980   10.5070 O.2    26  DT26       -0.2443
    519  N3        27.3540   29.6480    8.8570 N.ar   26  DT26       -0.1533
    520  C4        27.7690   28.4520    8.3080 C.ar   26  DT26        0.2804
    521  O4        27.4350   28.1640    7.1620 O.2    26  DT26       -0.2654
    522  C5        28.5790   27.6440    9.1760 C.ar   26  DT26        0.0534
    523  C6        28.8690   28.0820   10.4040 C.ar   26  DT26        0.0824
    524  C7        29.0790   26.3230    8.6710 C.3    26  DT26        0.0377
    525  P         25.6550   27.5610   15.0340 P.3    27  DT27        0.2141
    526  OP1       25.6980   26.5320   16.0990 O.3    27  DT27       -0.4373
    527  OP2       25.1430   27.2340   13.6830 O.2    27  DT27       -0.5172
    528  O5'       24.7730   28.8080   15.5070 O.3    27  DT27       -0.3114
    529  C5'       23.3640   28.7380   15.3880 C.3    27  DT27        0.1811
    530  C4'       22.8150   29.8960   14.5960 C.3    27  DT27        0.1746
    531  O4'       23.7570   30.3100   13.5710 O.3    27  DT27       -0.3327
    532  C3'       21.5540   29.5930   13.8110 C.3    27  DT27        0.1558
    533  O3'       20.3960   29.5630   14.6190 O.3    27  DT27       -0.3138
    534  C2'       21.5670   30.6870   12.7550 C.3    27  DT27        0.0866
    535  C1'       23.0550   30.7150   12.4160 C.3    27  DT27        0.2106
    536  N1        23.4980   29.8290   11.2710 N.ar   27  DT27       -0.2559
    537  C2        23.3360   30.2210    9.9560 C.ar   27  DT27        0.3545
    538  O2        22.6700   31.1870    9.6280 O.2    27  DT27       -0.2443
    539  N3        23.9850   29.4380    9.0320 N.ar   27  DT27       -0.1533
    540  C4        24.7610   28.3260    9.2850 C.ar   27  DT27        0.2804
    541  O4        25.2820   27.7250    8.3490 O.2    27  DT27       -0.2654
    542  C5        24.8800   27.9830   10.6740 C.ar   27  DT27        0.0534
    543  C6        24.2600   28.7270   11.5940 C.ar   27  DT27        0.0824
    544  C7        25.7040   26.7880   11.0520 C.3    27  DT27        0.0377
    545  P         19.4620   28.2440   14.5810 P.3    28  DA28        0.2141
    546  OP1       18.6810   28.3580   15.8370 O.3    28  DA28       -0.4373
    547  OP2       20.2930   27.0390   14.3550 O.2    28  DA28       -0.5172
    548  O5'       18.5230   28.4100   13.2950 O.3    28  DA28       -0.3114
    549  C5'       17.5750   29.4680   13.2130 C.3    28  DA28        0.1811
    550  C4'       16.9560   29.5410   11.8260 C.3    28  DA28        0.1746
    551  O4'       17.9810   29.8280   10.8410 O.3    28  DA28       -0.3327
    552  C3'       16.3220   28.2540   11.3220 C.3    28  DA28        0.1558
    553  O3'       14.9990   28.1160   11.8300 O.3    28  DA28       -0.3138
    554  C2'       16.3200   28.5050    9.8180 C.3    28  DA28        0.0865
    555  C1'       17.6740   29.1760    9.6220 C.3    28  DA28        0.2094
    556  N9        18.7890   28.2050    9.2790 N.ar   28  DA28       -0.2714
    557  C8        19.7340   27.6170   10.0800 C.ar   28  DA28        0.1815
    558  N7        20.5970   26.8780    9.4240 N.ar   28  DA28       -0.2193
    559  C5        20.1910   26.9860    8.1030 C.ar   28  DA28        0.1518
    560  C6        20.6950   26.4370    6.9110 C.ar   28  DA28        0.1919
    561  N6        21.7610   25.6360    6.8590 N.pl3  28  DA28       -0.1054
    562  N1        20.0560   26.7440    5.7620 N.ar   28  DA28       -0.2040
    563  C2        18.9880   27.5470    5.8150 C.ar   28  DA28        0.2016
    564  N3        18.4220   28.1240    6.8730 N.ar   28  DA28       -0.2048
    565  C4        19.0790   27.7990    7.9990 C.ar   28  DA28        0.1691
    566  P         14.4370   26.7370   12.0310 P.3    29  DC29        0.2141
    567  OP1       13.2790   27.0180   12.9210 O.3    29  DC29       -0.4373
    568  OP2       15.5190   25.8190   12.4860 O.2    29  DC29       -0.5172
    569  O5'       13.8880   26.2060   10.6330 O.3    29  DC29       -0.3114
    570  C5'       12.8190   26.8780    9.9820 C.3    29  DC29        0.1811
    571  C4'       12.9380   26.7760    8.4690 C.3    29  DC29        0.1746
    572  O4'       14.3230   26.9360    8.0340 O.3    29  DC29       -0.3327
    573  C3'       12.5190   25.4770    7.7980 C.3    29  DC29        0.1558
    574  O3'       11.1140   25.3510    7.6420 O.3    29  DC29       -0.3138
    575  C2'       13.1910   25.5810    6.4340 C.3    29  DC29        0.0866
    576  C1'       14.5100   26.2790    6.7780 C.3    29  DC29        0.2106
    577  N1        15.5350   25.3420    7.0230 N.ar   29  DC29       -0.2556
    578  C2        16.1200   24.6430    5.9610 C.ar   29  DC29        0.3531
    579  O2        15.7170   24.8640    4.8060 O.2    29  DC29       -0.2443
    580  N3        17.1030   23.7490    6.2210 N.ar   29  DC29       -0.1739
    581  C4        17.5030   23.5440    7.4770 C.ar   29  DC29        0.1759
    582  N4        18.4750   22.6530    7.6860 N.pl3  29  DC29       -0.1070
    583  C5        16.9230   24.2420    8.5670 C.ar   29  DC29        0.0566
    584  C6        15.9520   25.1240    8.3060 C.ar   29  DC29        0.0849
    585  P         10.4770   23.8050    7.0650 P.3    30  DC30        0.2141
    586  OP1        8.9890   23.6850    7.2270 O.2    30  DC30       -0.5172
    587  OP2       11.3900   23.3440    8.1390 O.3    30  DC30       -0.4373
    588  O5'       10.9120   23.1610    5.6730 O.3    30  DC30       -0.3114
    589  C5'       10.2620   23.5770    4.4840 C.3    30  DC30        0.1811
    590  C4'       11.1220   23.3110    3.2910 C.3    30  DC30        0.1746
    591  O4'       12.4320   23.8810    3.5010 O.3    30  DC30       -0.3327
    592  C3'       11.3830   21.8590    2.9730 C.3    30  DC30        0.1558
    593  O3'       10.3060   21.3980    2.1800 O.3    30  DC30       -0.3138
    594  C2'       12.6620   21.9460    2.1560 C.3    30  DC30        0.0866
    595  C1'       13.4010   23.1030    2.8280 C.3    30  DC30        0.2106
    596  N1        14.3920   22.5740    3.8010 N.ar   30  DC30       -0.2556
    597  C2        15.6610   22.2260    3.3250 C.ar   30  DC30        0.3531
    598  O2        15.9210   22.4100    2.1240 O.2    30  DC30       -0.2443
    599  N3        16.5660   21.6990    4.1850 N.ar   30  DC30       -0.1739
    600  C4        16.2430   21.5180    5.4660 C.ar   30  DC30        0.1759
    601  N4        17.1670   20.9960    6.2750 N.pl3  30  DC30       -0.1070
    602  C5        14.9620   21.8640    5.9680 C.ar   30  DC30        0.0566
    603  C6        14.0720   22.3840    5.1160 C.ar   30  DC30        0.0849
    604  P         10.3320   19.9090    1.6360 P.3    31  DT31        0.2141
    605  OP1        9.1130   19.7590    0.8140 O.2    31  DT31       -0.5172
    606  OP2       10.3620   19.3490    3.0050 O.3    31  DT31       -0.4373
    607  O5'       11.5460   19.1600    0.9150 O.3    31  DT31       -0.3114
    608  C5'       11.8350   19.4360   -0.4450 C.3    31  DT31        0.1811
    609  C4'       13.2600   19.0900   -0.7960 C.3    31  DT31        0.1746
    610  O4'       14.1820   19.9100   -0.0330 O.3    31  DT31       -0.3327
    611  C3'       13.7000   17.6850   -0.4430 C.3    31  DT31        0.1558
    612  O3'       13.2050   16.7130   -1.3400 O.3    31  DT31       -0.3138
    613  C2'       15.2140   17.8290   -0.4420 C.3    31  DT31        0.0866
    614  C1'       15.3520   19.1760    0.2570 C.3    31  DT31        0.2106
    615  N1        15.5480   18.9530    1.6560 N.ar   31  DT31       -0.2559
    616  C2        16.8200   18.7150    2.1390 C.ar   31  DT31        0.3545
    617  O2        17.7690   18.4640    1.4160 O.2    31  DT31       -0.2443
    618  N3        16.9450   18.7790    3.5060 N.ar   31  DT31       -0.1533
    619  C4        15.9460   19.0520    4.4170 C.ar   31  DT31        0.2804
    620  O4        16.2120   19.0760    5.6160 O.2    31  DT31       -0.2654
    621  C5        14.6540   19.2870    3.8380 C.ar   31  DT31        0.0534
    622  C6        14.5050   19.2300    2.5120 C.ar   31  DT31        0.0824
    623  C7        13.5010   19.5920    4.7480 C.3    31  DT31        0.0377
    624  P         12.3640   15.4040   -0.6670 P.3    32  DT32        0.2141
    625  OP1       11.8600   14.5400   -1.7720 O.2    32  DT32       -0.5172
    626  OP2       11.8120   15.2570    0.7200 O.3    32  DT32       -0.4373
    627  O5'       13.9410   15.2380   -0.6270 O.3    32  DT32       -0.3114
    628  C5'       14.6290   15.0180   -1.8310 C.3    32  DT32        0.1811
    629  C4'       16.0240   14.6400   -1.5360 C.3    32  DT32        0.1746
    630  O4'       16.5390   15.6080   -0.5910 O.3    32  DT32       -0.3327
    631  C3'       16.1750   13.3340   -0.7990 C.3    32  DT32        0.1558
    632  O3'       16.1160   12.2020   -1.6490 O.3    32  DT32       -0.3138
    633  C2'       17.5340   13.5020   -0.1430 C.3    32  DT32        0.0866
    634  C1'       17.5230   14.9910    0.2150 C.3    32  DT32        0.2106
    635  N1        17.2030   15.1820    1.6090 N.ar   32  DT32       -0.2559
    636  C2        18.2160   15.0410    2.5380 C.ar   32  DT32        0.3545
    637  O2        19.3750   14.8230    2.2290 O.2    32  DT32       -0.2443
    638  N3        17.8240   15.1650    3.8490 N.ar   32  DT32       -0.1533
    639  C4        16.5490   15.4100    4.3130 C.ar   32  DT32        0.2804
    640  O4        16.3520   15.4950    5.5230 O.2    32  DT32       -0.2654
    641  C5        15.5530   15.5430    3.2880 C.ar   32  DT32        0.0534
    642  C6        15.9070   15.4270    2.0050 C.ar   32  DT32        0.0824
    643  C7        14.1340   15.8110    3.6930 C.3    32  DT32        0.0377
    644  P         15.7410   10.2640   -0.9890 P.3    33  DA33        0.2141
    645  OP1       16.0520    9.2580   -2.0330 O.2    33  DA33       -0.5172
    646  OP2       14.3410   10.4180   -0.5250 O.3    33  DA33       -0.4373
    647  O5'       16.6740    9.9660    0.2650 O.3    33  DA33       -0.3114
    648  C5'       18.0970    9.9370    0.1010 C.3    33  DA33        0.1811
    649  C4'       18.7970    9.9180    1.4370 C.3    33  DA33        0.1746
    650  O4'       18.3530   11.0290    2.2500 O.3    33  DA33       -0.3327
    651  C3'       18.5670    8.7150    2.3250 C.3    33  DA33        0.1558
    652  O3'       19.3950    7.6420    1.9250 O.3    33  DA33       -0.3138
    653  C2'       18.9550    9.2440    3.7020 C.3    33  DA33        0.0865
    654  C1'       18.5100   10.7010    3.6180 C.3    33  DA33        0.2094
    655  N9        17.2420   11.0350    4.3030 N.ar   33  DA33       -0.2714
    656  C8        16.0180   11.3080    3.7500 C.ar   33  DA33        0.1815
    657  N7        15.1030   11.6420    4.6300 N.ar   33  DA33       -0.2193
    658  C5        15.7720   11.5830    5.8420 C.ar   33  DA33        0.1518
    659  C6        15.3570   11.8260    7.1630 C.ar   33  DA33        0.1919
    660  N6        14.1170   12.1940    7.4930 N.pl3  33  DA33       -0.1054
    661  N1        16.2730   11.6760    8.1450 N.ar   33  DA33       -0.2040
    662  C2        17.5150   11.3080    7.8130 C.ar   33  DA33        0.2016
    663  N3        18.0230   11.0520    6.6090 N.ar   33  DA33       -0.2048
    664  C4        17.0890   11.2090    5.6570 C.ar   33  DA33        0.1691
    665  P         18.9940    6.2160    2.1900 P.3    34  DT34        0.2141
    666  OP1       20.0640    5.4560    1.4900 O.2    34  DT34       -0.5172
    667  OP2       17.5730    5.9850    1.8220 O.3    34  DT34       -0.4373
    668  O5'       19.1460    5.9970    3.7610 O.3    34  DT34       -0.3114
    669  C5'       20.4490    5.9590    4.3500 C.3    34  DT34        0.1811
    670  C4'       20.3660    5.9750    5.8520 C.3    34  DT34        0.1746
    671  O4'       19.6930    7.1810    6.2940 O.3    34  DT34       -0.3327
    672  C3'       19.5560    4.8860    6.5150 C.3    34  DT34        0.1558
    673  O3'       20.1870    3.6400    6.5670 O.3    34  DT34       -0.3138
    674  C2'       19.2770    5.4740    7.8860 C.3    34  DT34        0.0866
    675  C1'       19.0250    6.9290    7.5270 C.3    34  DT34        0.2106
    676  N1        17.5740    7.0680    7.3410 N.ar   34  DT34       -0.2559
    677  C2        16.7390    7.0980    8.4430 C.ar   34  DT34        0.3545
    678  O2        17.1230    6.8540    9.5730 O.2    34  DT34       -0.2443
    679  N3        15.4320    7.4230    8.1730 N.ar   34  DT34       -0.1533
    680  C4        14.8870    7.7160    6.9400 C.ar   34  DT34        0.2804
    681  O4        13.6930    7.9910    6.8560 O.2    34  DT34       -0.2654
    682  C5        15.8170    7.6630    5.8460 C.ar   34  DT34        0.0534
    683  C6        17.0940    7.3490    6.0810 C.ar   34  DT34        0.0824
    684  C7        15.3210    7.9650    4.4630 C.3    34  DT34        0.0377
    685  P         19.3600    2.3810    6.1480 P.3    35  DA35        0.2141
    686  OP1       19.6060    0.9620    5.8130 O.3    35  DA35       -0.4373
    687  OP2       18.3890    3.1610    5.3500 O.2    35  DA35       -0.5172
    688  O5'       18.9150    2.4510    7.6810 O.3    35  DA35       -0.3114
    689  C5'       19.5050    1.5910    8.6430 C.3    35  DA35        0.1811
    690  C4'       19.0330    1.9530   10.0350 C.3    35  DA35        0.1746
    691  O4'       18.3460    3.2290   10.0350 O.3    35  DA35       -0.3327
    692  C3'       17.9940    0.9930   10.5650 C.3    35  DA35        0.1558
    693  O3'       18.6130   -0.1300   11.1440 O.3    35  DA35       -0.3138
    694  C2'       17.2340    1.8300   11.5810 C.3    35  DA35        0.0865
    695  C1'       17.1760    3.1610   10.8370 C.3    35  DA35        0.2094
    696  N9        15.9130    3.0610    9.9660 N.ar   35  DA35       -0.2714
    697  C8        15.9000    3.1500    8.5990 C.ar   35  DA35        0.1815
    698  N7        14.7100    3.3750    8.0950 N.ar   35  DA35       -0.2193
    699  C5        13.8850    3.4380    9.2070 C.ar   35  DA35        0.1518
    700  C6        12.5030    3.6540    9.3490 C.ar   35  DA35        0.1919
    701  N6        11.6770    3.8560    8.3200 N.pl3  35  DA35       -0.1054
    702  N1        11.9940    3.6560   10.5990 N.ar   35  DA35       -0.2040
    703  C2        12.8230    3.4540   11.6300 C.ar   35  DA35        0.2016
    704  N3        14.1370    3.2410   11.6230 N.ar   35  DA35       -0.2048
    705  C4        14.6120    3.2450   10.3660 C.ar   35  DA35        0.1691
    706  P         18.0390   -1.3850   10.9050 P.3    36  DC36        0.2141
    707  OP1       18.9960   -2.4580   11.2450 O.3    36  DC36       -0.4373
    708  OP2       17.4680   -1.4140    9.5340 O.2    36  DC36       -0.5172
    709  O5'       16.8310   -1.3840   11.9690 O.3    36  DC36       -0.3114
    710  C5'       17.1320   -1.3470   13.3600 C.3    36  DC36        0.1811
    711  C4'       15.9830   -0.8550   14.2230 C.3    36  DC36        0.1746
    712  O4'       15.4060    0.3690   13.6980 O.3    36  DC36       -0.3327
    713  C3'       14.7780   -1.7850   14.3090 C.3    36  DC36        0.1558
    714  O3'       15.0030   -2.8530   15.1790 O.3    36  DC36       -0.3138
    715  C2'       13.7180   -0.8360   14.8370 C.3    36  DC36        0.0866
    716  C1'       13.9980    0.3390   13.9080 C.3    36  DC36        0.2106
    717  N1        13.2700    0.0820   12.5310 N.ar   36  DC36       -0.2556
    718  C2        11.9110    0.3710   12.3620 C.ar   36  DC36        0.3531
    719  O2        11.2050    0.5380   13.3710 O.2    36  DC36       -0.2443
    720  N3        11.4060    0.4580   11.1080 N.ar   36  DC36       -0.1739
    721  C4        12.2010    0.2700   10.0540 C.ar   36  DC36        0.1759
    722  N4        11.6590    0.3660    8.8380 N.pl3  36  DC36       -0.1070
    723  C5        13.5810   -0.0230   10.2040 C.ar   36  DC36        0.0566
    724  C6        14.0750   -0.1090   11.4440 C.ar   36  DC36        0.0849
    725  P         14.9210   -4.3900   14.5880 P.3    37  DC37        0.2141
    726  OP1       15.0990   -5.4770   15.6070 O.3    37  DC37       -0.4373
    727  OP2       15.3590   -4.6190   13.1840 O.2    37  DC37       -0.5172
    728  O5'       13.3680   -4.0590   14.5620 O.3    37  DC37       -0.3114
    729  C5'       12.7770   -3.3500   15.6560 C.3    37  DC37        0.1811
    730  C4'       11.2850   -3.4050   15.5510 C.3    37  DC37        0.1761
    731  O4'       10.8220   -2.4530   14.5660 O.3    37  DC37       -0.3216
    732  C3'       10.7270   -4.7440   15.0930 C.3    37  DC37        0.1575
    733  O3'       10.6670   -5.6210   16.2170 O.3    37  DC37       -0.3138
    734  C2'        9.3660   -4.3380   14.5440 C.3    37  DC37        0.1033
    735  C1'        9.6900   -2.9800   13.9080 C.3    37  DC37        0.2379
    736  N1        10.3070   -3.0720   12.3440 N.ar   37  DC37       -0.2438
    737  C2         9.3030   -3.1020   11.3690 C.ar   37  DC37        0.3542
    738  O2         8.1280   -2.8930   11.7140 O.2    37  DC37       -0.2443
    739  N3         9.6410   -3.3580   10.0820 N.ar   37  DC37       -0.1739
    740  C4        10.9160   -3.5780    9.7580 C.ar   37  DC37        0.1759
    741  N4        11.2010   -3.8260    8.4780 N.pl3  37  DC37       -0.1070
    742  C5        11.9480   -3.5520   10.7310 C.ar   37  DC37        0.0566
    743  C6        11.6100   -3.2990   12.0000 C.ar   37  DC37        0.0864
    744  P         10.0830   -6.5940   16.1380 P.3    38  DA38        0.2141
    745  OP1       10.8480   -6.9120   17.3780 O.3    38  DA38       -0.4373
    746  OP2       10.0200   -7.5860   15.0250 O.2    38  DA38       -0.5172
    747  O5'        8.5730   -6.1840   16.4540 O.3    38  DA38       -0.3114
    748  C5'        8.0890   -6.0800   17.7890 C.3    38  DA38        0.1811
    749  C4'        6.7980   -5.3150   17.7840 C.3    38  DA38        0.1744
    750  O4'        7.0620   -3.8880   17.8040 O.3    38  DA38       -0.3349
    751  C3'        5.9780   -5.5300   16.5230 C.3    38  DA38        0.1555
    752  O3'        5.2390   -6.7450   16.5810 O.3    38  DA38       -0.3139
    753  C2'        5.1290   -4.2670   16.4920 C.3    38  DA38        0.0835
    754  C1'        6.1160   -3.2130   16.9960 C.3    38  DA38        0.1970
    755  N9         7.2670   -2.6100   15.8780 N.pl3  38  DA38       -0.2524
    756  C8         8.6050   -2.8430   15.6920 C.3    38  DA38        0.1946
    757  N7         9.1080   -2.2320   14.6450 N.pl3  38  DA38       -0.2495
    758  C5         8.0260   -1.5530   14.1070 C.ar   38  DA38        0.1193
    759  C6         7.8990   -0.7160   12.9840 C.ar   38  DA38        0.1875
    760  N6         8.9130   -0.4090   12.1720 N.pl3  38  DA38       -0.1057
    761  N1         6.6790   -0.1990   12.7230 N.ar   38  DA38       -0.2043
    762  C2         5.6640   -0.5060   13.5390 C.ar   38  DA38        0.2014
    763  N3         5.6600   -1.2790   14.6220 N.ar   38  DA38       -0.2075
    764  C4         6.8860   -1.7770   14.8540 C.ar   38  DA38        0.1527
    765  P          4.9760   -7.6610   15.1260 P.3    39  DG39        0.2141
    766  OP1        4.1990   -8.8720   15.5100 O.3    39  DG39       -0.4373
    767  OP2        6.0690   -7.7800   14.1250 O.2    39  DG39       -0.5172
    768  O5'        3.9450   -6.5490   14.6320 O.3    39  DG39       -0.3114
    769  C5'        2.8190   -6.1700   15.4530 C.3    39  DG39        0.1811
    770  C4'        2.0350   -5.0510   14.7980 C.3    39  DG39        0.1746
    771  O4'        2.8130   -3.8230   14.7990 O.3    39  DG39       -0.3327
    772  C3'        1.6800   -5.2590   13.3360 C.3    39  DG39        0.1558
    773  O3'        0.5330   -6.0870   13.1860 O.3    39  DG39       -0.3138
    774  C2'        1.4390   -3.8320   12.8640 C.3    39  DG39        0.0865
    775  C1'        2.5430   -3.0840   13.6150 C.3    39  DG39        0.2094
    776  N9         3.8160   -2.9700   12.8780 N.ar   39  DG39       -0.2713
    777  C8         4.9200   -3.7740   13.0260 C.ar   39  DG39        0.1816
    778  N7         5.9020   -3.4520   12.2280 N.ar   39  DG39       -0.2173
    779  C5         5.4220   -2.3720   11.5120 C.ar   39  DG39        0.1748
    780  C6         6.0320   -1.5930   10.4960 C.ar   39  DG39        0.3023
    781  O6         7.1660   -1.7150   10.0140 O.2    39  DG39       -0.2633
    782  N1         5.1890   -0.5860   10.0330 N.ar   39  DG39       -0.1709
    783  C2         3.9140   -0.3580   10.4930 C.ar   39  DG39        0.2606
    784  N2         3.2540    0.6600    9.9260 N.pl3  39  DG39       -0.0859
    785  N3         3.3330   -1.0740   11.4360 N.ar   39  DG39       -0.1918
    786  C4         4.1330   -2.0580   11.8990 C.ar   39  DG39        0.1722
    787  P          0.3070   -6.9080   11.7760 P.3    40  DC40        0.2141
    788  OP1       -0.9650   -7.4830   12.2640 O.3    40  DC40       -0.4373
    789  OP2        1.4340   -7.8140   11.4620 O.2    40  DC40       -0.5172
    790  O5'       -0.0120   -6.0180   10.4810 O.3    40  DC40       -0.3114
    791  C5'       -1.2770   -5.3720   10.3060 C.3    40  DC40        0.1811
    792  C4'       -1.1140   -3.9650    9.7550 C.3    40  DC40        0.1746
    793  O4'        0.1510   -3.4000   10.1830 O.3    40  DC40       -0.3327
    794  C3'       -1.0780   -3.8540    8.2390 C.3    40  DC40        0.1558
    795  O3'       -2.3910   -3.8280    7.7030 O.3    40  DC40       -0.3138
    796  C2'       -0.3420   -2.5370    8.0260 C.3    40  DC40        0.0866
    797  C1'        0.6530   -2.5340    9.1830 C.3    40  DC40        0.2106
    798  N1         1.9730   -3.0340    8.7430 N.ar   40  DC40       -0.2556
    799  C2         2.7860   -2.2730    7.8950 C.ar   40  DC40        0.3531
    800  O2         2.3290   -1.2230    7.4120 O.2    40  DC40       -0.2443
    801  N3         4.0420   -2.7030    7.6260 N.ar   40  DC40       -0.1739
    802  C4         4.4890   -3.8370    8.1660 C.ar   40  DC40        0.1759
    803  N4         5.7340   -4.2200    7.8720 N.pl3  40  DC40       -0.1070
    804  C5         3.6810   -4.6220    9.0280 C.ar   40  DC40        0.0566
    805  C6         2.4410   -4.1940    9.2910 C.ar   40  DC40        0.0849
    806  P         -2.4910   -4.2760    6.4650 P.3    41  DT41        0.2141
    807  OP1       -3.9280   -4.2350    6.0840 O.2    41  DT41       -0.5172
    808  OP2       -1.8160   -5.5900    6.6360 O.3    41  DT41       -0.4373
    809  O5'       -1.5910   -3.3650    5.5040 O.3    41  DT41       -0.3114
    810  C5'       -2.0600   -2.0990    5.0170 C.3    41  DT41        0.1811
    811  C4'       -1.2630   -1.6710    3.7990 C.3    41  DT41        0.1746
    812  O4'        0.0430   -1.1960    4.2270 O.3    41  DT41       -0.3327
    813  C3'       -0.9700   -2.7500    2.7560 C.3    41  DT41        0.1558
    814  O3'       -2.0360   -2.9850    1.8210 O.3    41  DT41       -0.3138
    815  C2'        0.3150   -2.2410    2.1050 C.3    41  DT41        0.0866
    816  C1'        1.0330   -1.5970    3.2910 C.3    41  DT41        0.2106
    817  N1         2.0290   -2.6860    3.9680 N.ar   41  DT41       -0.2559
    818  C2         3.3150   -2.5790    3.4730 C.ar   41  DT41        0.3545
    819  O2         3.6420   -1.7400    2.6520 O.2    41  DT41       -0.2443
    820  N3         4.2090   -3.4940    3.9730 N.ar   41  DT41       -0.1533
    821  C4         3.9520   -4.4840    4.8990 C.ar   41  DT41        0.2804
    822  O4         4.8600   -5.2310    5.2530 O.2    41  DT41       -0.2654
    823  C5         2.5950   -4.5310    5.3650 C.ar   41  DT41        0.0534
    824  C6         1.7050   -3.6530    4.8940 C.ar   41  DT41        0.0824
    825  C7         2.2160   -5.5740    6.3740 C.3    41  DT41        0.0377
    826  P         -2.0640   -4.3690    0.9160 P.3    42  DT42        0.2141
    827  OP1       -3.5270   -4.4430    0.6970 O.2    42  DT42       -0.5172
    828  OP2       -1.4030   -5.2800    1.8850 O.3    42  DT42       -0.4373
    829  O5'       -1.2780   -4.6190   -0.4640 O.3    42  DT42       -0.3114
    830  C5'       -1.4920   -3.7890   -1.5980 C.3    42  DT42        0.1811
    831  C4'       -0.2370   -3.5410   -2.4050 C.3    42  DT42        0.1746
    832  O4'        0.8310   -3.0420   -1.5570 O.3    42  DT42       -0.3327
    833  C3'        0.3810   -4.7490   -3.0840 C.3    42  DT42        0.1558
    834  O3'       -0.3040   -5.1260   -4.2640 O.3    42  DT42       -0.3138
    835  C2'        1.8330   -4.3210   -3.2940 C.3    42  DT42        0.0866
    836  C1'        2.0840   -3.5020   -2.0280 C.3    42  DT42        0.2106
    837  N1         2.8610   -4.2130   -0.9930 N.ar   42  DT42       -0.2559
    838  C2         4.2350   -4.1260   -1.1020 C.ar   42  DT42        0.3545
    839  O2         4.7940   -3.5860   -2.0400 O.2    42  DT42       -0.2443
    840  N3         4.9380   -4.6980   -0.0690 N.ar   42  DT42       -0.1533
    841  C4         4.4140   -5.3350    1.0370 C.ar   42  DT42        0.2804
    842  O4         5.1740   -5.7990    1.8840 O.2    42  DT42       -0.2654
    843  C5         2.9800   -5.3850    1.0770 C.ar   42  DT42        0.0534
    844  C6         2.2730   -4.8370    0.0860 C.ar   42  DT42        0.0824
    845  C7         2.3140   -6.0580    2.2410 C.3    42  DT42        0.0377
    846  P         -0.6750   -6.6580   -4.5290 P.3    43  DA43        0.2141
    847  OP1       -1.8300   -6.1850   -5.3240 O.2    43  DA43       -0.5172
    848  OP2       -0.7270   -7.9430   -3.7930 O.3    43  DA43       -0.4373
    849  O5'        0.5640   -6.8310   -5.5160 O.3    43  DA43       -0.3114
    850  C5'        1.5960   -7.7490   -5.1770 C.3    43  DA43        0.1811
    851  C4'        2.2850   -8.2280   -6.4240 C.3    43  DA43        0.1746
    852  O4'        3.5220   -8.8730   -6.0330 O.3    43  DA43       -0.3327
    853  C3'        1.4800   -9.2430   -7.2260 C.3    43  DA43        0.1558
    854  O3'        0.9940   -8.7330   -8.4640 O.3    43  DA43       -0.3138
    855  C2'        2.4260  -10.4090   -7.4880 C.3    43  DA43        0.0865
    856  C1'        3.6270  -10.1680   -6.5830 C.3    43  DA43        0.2094
    857  N9         3.6370  -10.9440   -5.2450 N.ar   43  DA43       -0.2714
    858  C8         2.8360  -10.8860   -4.1350 C.ar   43  DA43        0.1815
    859  N7         2.6350  -12.0520   -3.5670 N.ar   43  DA43       -0.2193
    860  C5         3.3510  -12.9350   -4.3600 C.ar   43  DA43        0.1518
    861  C6         3.5430  -14.3260   -4.2910 C.ar   43  DA43        0.1919
    862  N6         3.0060  -15.1000   -3.3450 N.pl3  43  DA43       -0.1054
    863  N1         4.3140  -14.9000   -5.2380 N.ar   43  DA43       -0.2040
    864  C2         4.8530  -14.1230   -6.1850 C.ar   43  DA43        0.2016
    865  N3         4.7460  -12.8070   -6.3540 N.ar   43  DA43       -0.2048
    866  C4         3.9730  -12.2670   -5.3980 C.ar   43  DA43        0.1691
    867  P         -0.5690   -9.1240   -8.7700 P.3    44  DT44        0.2141
    868  OP1       -1.2620   -8.3340   -9.8230 O.2    44  DT44       -0.5172
    869  OP2       -1.2670   -9.4280   -7.4920 O.3    44  DT44       -0.4373
    870  O5'       -0.1150  -10.5110   -9.3820 O.3    44  DT44       -0.3114
    871  C5'        0.4750  -10.5850  -10.6600 C.3    44  DT44        0.1812
    872  C4'        0.8580  -12.0080  -10.9540 C.3    44  DT44        0.1775
    873  O4'        1.8360  -12.4310   -9.9670 O.3    44  DT44       -0.3326
    874  C3'       -0.2280  -13.0730  -10.8570 C.3    44  DT44        0.1859
    875  O3'       -1.0340  -13.1860  -12.0070 O.3    44  DT44       -0.2203
    876  C2'        0.5820  -14.3380  -10.6290 C.3    44  DT44        0.0895
    877  C1'        1.6860  -13.8170   -9.7160 C.3    44  DT44        0.2107
    878  N1         1.3410  -14.0030   -8.3100 N.ar   44  DT44       -0.2559
    879  C2         1.7380  -15.1880   -7.7200 C.ar   44  DT44        0.3545
    880  O2         2.3390  -16.0600   -8.3210 O.2    44  DT44       -0.2443
    881  N3         1.4040  -15.3170   -6.3940 N.ar   44  DT44       -0.1533
    882  C4         0.7270  -14.4000   -5.6160 C.ar   44  DT44        0.2804
    883  O4         0.5000  -14.6580   -4.4360 O.2    44  DT44       -0.2654
    884  C5         0.3480  -13.1970   -6.3010 C.ar   44  DT44        0.0534
    885  C6         0.6600  -13.0450   -7.5900 C.ar   44  DT44        0.0824
    886  C7        -0.3940  -12.1380   -5.5400 C.3    44  DT44        0.0377
    887  P         -2.6060  -13.8590  -11.8610 P.3    45  DT45        0.5411
    888  OP1       -3.3210  -13.8930  -13.1490 O.2    45  DT45       -0.2272
    889  OP2       -3.3520  -14.1830  -10.6260 O.2    45  DT45       -0.2272
    890  O5'       -1.3350  -14.7990  -11.9660 O.3    45  DT45       -0.2722
    891  C5'       -1.0110  -15.4700  -13.1240 C.3    45  DT45        0.1850
    892  C4'       -0.5700  -16.8290  -12.7000 C.3    45  DT45        0.1748
    893  O4'        0.2580  -16.7410  -11.5240 O.3    45  DT45       -0.3327
    894  C3'       -1.6850  -17.7000  -12.2090 C.3    45  DT45        0.1558
    895  O3'       -2.4870  -18.1410  -13.2980 O.3    45  DT45       -0.3138
    896  C2'       -0.8900  -18.7960  -11.5090 C.3    45  DT45        0.0866
    897  C1'        0.1690  -17.9650  -10.8180 C.3    45  DT45        0.2106
    898  N1        -0.1070  -17.5650   -9.4690 N.ar   45  DT45       -0.2559
    899  C2         0.2470  -18.4170   -8.4390 C.ar   45  DT45        0.3545
    900  O2         0.9040  -19.4280   -8.6100 O.2    45  DT45       -0.2443
    901  N3        -0.2000  -18.0410   -7.1960 N.ar   45  DT45       -0.1533
    902  C4        -0.9480  -16.9250   -6.8850 C.ar   45  DT45        0.2804
    903  O4        -1.2740  -16.7200   -5.7180 O.2    45  DT45       -0.2654
    904  C5        -1.2760  -16.0910   -8.0080 C.ar   45  DT45        0.0534
    905  C6        -0.8540  -16.4330   -9.2280 C.ar   45  DT45        0.0824
    906  C7        -2.0880  -14.8520   -7.7730 C.3    45  DT45        0.0377
    907  P         -3.8760  -18.7880  -13.0000 P.3    46  DC46        0.2141
    908  OP1       -4.4790  -19.0590  -14.3220 O.2    46  DC46       -0.5172
    909  OP2       -4.5230  -17.7760  -12.1350 O.3    46  DC46       -0.4373
    910  O5'       -3.7130  -20.1620  -12.1920 O.3    46  DC46       -0.3114
    911  C5'       -3.0030  -21.2550  -12.7820 C.3    46  DC46        0.1811
    912  C4'       -2.8980  -22.4520  -11.8500 C.3    46  DC46        0.1746
    913  O4'       -2.0350  -22.1110  -10.7340 O.3    46  DC46       -0.3327
    914  C3'       -4.1890  -22.9260  -11.1840 C.3    46  DC46        0.1558
    915  O3'       -4.9650  -23.7770  -12.0180 O.3    46  DC46       -0.3138
    916  C2'       -3.6260  -23.6880   -9.9920 C.3    46  DC46        0.0866
    917  C1'       -2.5020  -22.7550   -9.5620 C.3    46  DC46        0.2106
    918  N1        -2.9670  -21.7230   -8.5050 N.ar   46  DC46       -0.2556
    919  C2        -2.9800  -22.1420   -7.1690 C.ar   46  DC46        0.3531
    920  O2        -2.6630  -23.3150   -6.9080 O.2    46  DC46       -0.2443
    921  N3        -3.3360  -21.2600   -6.2050 N.ar   46  DC46       -0.1739
    922  C4        -3.6700  -20.0110   -6.5320 C.ar   46  DC46        0.1759
    923  N4        -4.0140  -19.1780   -5.5480 N.pl3  46  DC46       -0.1070
    924  C5        -3.6630  -19.5670   -7.8790 C.ar   46  DC46        0.0566
    925  C6        -3.3110  -20.4400   -8.8290 C.ar   46  DC46        0.0849
    926  P         -6.5750  -23.8320  -11.9540 P.3    47  DA47        0.2141
    927  OP1       -7.1340  -24.5690  -13.1130 O.2    47  DA47       -0.5172
    928  OP2       -6.6930  -22.3500  -11.8920 O.3    47  DA47       -0.4373
    929  O5'       -7.1880  -24.4430  -10.6200 O.3    47  DA47       -0.3114
    930  C5'       -6.9220  -25.7930  -10.2510 C.3    47  DA47        0.1811
    931  C4'       -7.1390  -25.9820   -8.7670 C.3    47  DA47        0.1746
    932  O4'       -6.2450  -25.1070   -8.0330 O.3    47  DA47       -0.3327
    933  C3'       -8.5110  -25.5980   -8.2450 C.3    47  DA47        0.1558
    934  O3'       -9.4470  -26.6540   -8.4260 O.3    47  DA47       -0.3138
    935  C2'       -8.2480  -25.3480   -6.7640 C.3    47  DA47        0.0865
    936  C1'       -6.8450  -24.7440   -6.8010 C.3    47  DA47        0.2094
    937  N9        -6.8020  -23.2890   -6.6380 N.ar   47  DA47       -0.2714
    938  C8        -6.4660  -22.3780   -7.6050 C.ar   47  DA47        0.1815
    939  N7        -6.4540  -21.1360   -7.1810 N.ar   47  DA47       -0.2193
    940  C5        -6.8080  -21.2390   -5.8450 C.ar   47  DA47        0.1518
    941  C6        -6.9750  -20.2760   -4.8340 C.ar   47  DA47        0.1919
    942  N6        -6.7970  -18.9670   -5.0240 N.pl3  47  DA47       -0.1054
    943  N1        -7.3340  -20.7110   -3.6070 N.ar   47  DA47       -0.2040
    944  C2        -7.5110  -22.0240   -3.4180 C.ar   47  DA47        0.2016
    945  N3        -7.3840  -23.0230   -4.2880 N.ar   47  DA47       -0.2048
    946  C4        -7.0270  -22.5580   -5.4970 C.ar   47  DA47        0.1691
    947  P        -11.1570  -26.3430   -8.3520 P.3    48  DA48        0.2141
    948  OP1      -11.6900  -27.5860   -8.9560 O.3    48  DA48       -0.4373
    949  OP2      -11.1780  -25.0570   -9.1240 O.2    48  DA48       -0.5172
    950  O5'      -11.9190  -26.1270   -6.9820 O.3    48  DA48       -0.3114
    951  C5'      -11.5880  -26.9150   -5.8680 C.3    48  DA48        0.1811
    952  C4'      -11.7170  -26.0990   -4.6260 C.3    48  DA48        0.1746
    953  O4'      -10.8000  -24.9810   -4.6190 O.3    48  DA48       -0.3327
    954  C3'      -13.0460  -25.4100   -4.4150 C.3    48  DA48        0.1558
    955  O3'      -13.9610  -26.3760   -3.9420 O.3    48  DA48       -0.3138
    956  C2'      -12.6990  -24.3950   -3.3250 C.3    48  DA48        0.0865
    957  C1'      -11.2270  -24.0950   -3.6130 C.3    48  DA48        0.2094
    958  N9       -10.8650  -22.7790   -4.1330 N.ar   48  DA48       -0.2714
    959  C8       -10.7120  -22.4490   -5.4540 C.ar   48  DA48        0.1815
    960  N7       -10.5140  -21.1680   -5.6600 N.ar   48  DA48       -0.2193
    961  C5       -10.5400  -20.6200   -4.3870 C.ar   48  DA48        0.1518
    962  C6       -10.3900  -19.3020   -3.9220 C.ar   48  DA48        0.1919
    963  N6       -10.1760  -18.2550   -4.7230 N.pl3  48  DA48       -0.1054
    964  N1       -10.4700  -19.0950   -2.5900 N.ar   48  DA48       -0.2040
    965  C2       -10.6840  -20.1440   -1.7890 C.ar   48  DA48        0.2016
    966  N3       -10.8390  -21.4270   -2.1070 N.ar   48  DA48       -0.2048
    967  C4       -10.7560  -21.6000   -3.4370 C.ar   48  DA48        0.1691
    968  P        -15.4390  -26.1000   -3.9190 P.3    49  DT49        0.2141
    969  OP1      -16.5110  -27.0960   -4.1800 O.3    49  DT49       -0.4373
    970  OP2      -15.6370  -24.6910   -4.3280 O.2    49  DT49       -0.5172
    971  O5'      -15.0620  -26.0830   -2.3780 O.3    49  DT49       -0.3114
    972  C5'      -15.9910  -25.5870   -1.4660 C.3    49  DT49        0.1811
    973  C4'      -15.3510  -24.6220   -0.5130 C.3    49  DT49        0.1746
    974  O4'      -14.2360  -23.8660   -1.0760 O.3    49  DT49       -0.3327
    975  C3'      -16.3310  -23.5410   -0.1350 C.3    49  DT49        0.1558
    976  O3'      -17.3870  -24.0250    0.6550 O.3    49  DT49       -0.3138
    977  C2'      -15.4290  -22.4620    0.4400 C.3    49  DT49        0.0866
    978  C1'      -14.2230  -22.5510   -0.5040 C.3    49  DT49        0.2106
    979  N1       -14.3350  -21.4890   -1.5610 N.ar   49  DT49       -0.2559
    980  C2       -14.2780  -20.1350   -1.2870 C.ar   49  DT49        0.3545
    981  O2       -14.3380  -19.6840   -0.1570 O.2    49  DT49       -0.2443
    982  N3       -14.1500  -19.3240   -2.3880 N.ar   49  DT49       -0.1533
    983  C4       -14.0740  -19.7210   -3.7070 C.ar   49  DT49        0.2804
    984  O4       -13.9590  -18.8730   -4.5880 O.2    49  DT49       -0.2654
    985  C5       -14.1410  -21.1410   -3.9100 C.ar   49  DT49        0.0534
    986  C6       -14.2660  -21.9530   -2.8570 C.ar   49  DT49        0.0824
    987  C7       -14.0680  -21.6730   -5.3110 C.3    49  DT49        0.0377
    988  P        -18.9700  -23.4770    0.3370 P.3    50  DT50        0.2141
    989  OP1      -20.1470  -24.1900    0.8880 O.3    50  DT50       -0.4373
    990  OP2      -18.9460  -22.9950   -1.0610 O.2    50  DT50       -0.5172
    991  O5'      -18.6780  -22.1760    1.2110 O.3    50  DT50       -0.3114
    992  C5'      -18.3910  -22.3060    2.5950 C.3    50  DT50        0.1811
    993  C4'      -17.9890  -20.9740    3.1650 C.3    50  DT50        0.1746
    994  O4'      -16.7540  -20.5440    2.5390 O.3    50  DT50       -0.3327
    995  C3'      -18.9940  -19.8610    2.9070 C.3    50  DT50        0.1558
    996  O3'      -19.9530  -19.7940    3.9510 O.3    50  DT50       -0.3138
    997  C2'      -18.1390  -18.6050    2.7610 C.3    50  DT50        0.0866
    998  C1'      -16.7920  -19.1580    2.2690 C.3    50  DT50        0.2106
    999  N1       -16.6090  -19.0230    0.7840 N.ar   50  DT50       -0.2559
   1000  C2       -16.0210  -17.8350    0.3910 C.ar   50  DT50        0.3545
   1001  O2       -15.5720  -17.0230    1.1810 O.2    50  DT50       -0.2443
   1002  N3       -15.9770  -17.6300   -0.9670 N.ar   50  DT50       -0.1533
   1003  C4       -16.4520  -18.4730   -1.9490 C.ar   50  DT50        0.2804
   1004  O4       -16.3400  -18.1510   -3.1290 O.2    50  DT50       -0.2654
   1005  C5       -17.0490  -19.6850   -1.4610 C.ar   50  DT50        0.0534
   1006  C6       -17.1050  -19.9100   -0.1460 C.ar   50  DT50        0.0824
   1007  C7       -17.5960  -20.6690   -2.4530 C.3    50  DT50        0.0377
   1008  P        -21.3890  -18.9040    3.8370 P.3    51  DA51        0.2141
   1009  OP1      -22.3470  -19.1950    4.9270 O.3    51  DA51       -0.4373
   1010  OP2      -21.7050  -19.3160    2.4490 O.2    51  DA51       -0.5172
   1011  O5'      -21.0590  -17.3350    3.7200 O.3    51  DA51       -0.3114
   1012  C5'      -20.7330  -16.6330    4.9110 C.3    51  DA51        0.1811
   1013  C4'      -20.0080  -15.3250    4.6890 C.3    51  DA51        0.1746
   1014  O4'      -18.7960  -15.5090    3.9190 O.3    51  DA51       -0.3327
   1015  C3'      -20.7550  -14.2440    3.9370 C.3    51  DA51        0.1558
   1016  O3'      -21.6770  -13.5710    4.7640 O.3    51  DA51       -0.3138
   1017  C2'      -19.6250  -13.3370    3.4780 C.3    51  DA51        0.0865
   1018  C1'      -18.5310  -14.3510    3.1570 C.3    51  DA51        0.2094
   1019  N9       -18.5290  -14.7970    1.7060 N.ar   51  DA51       -0.2714
   1020  C8       -19.0270  -15.9450    1.1480 C.ar   51  DA51        0.1815
   1021  N7       -18.8620  -16.0160   -0.1520 N.ar   51  DA51       -0.2193
   1022  C5       -18.2120  -14.8340   -0.4680 C.ar   51  DA51        0.1518
   1023  C6       -17.7530  -14.3040   -1.6870 C.ar   51  DA51        0.1919
   1024  N6       -17.8860  -14.9270   -2.8610 N.pl3  51  DA51       -0.1054
   1025  N1       -17.1460  -13.0990   -1.6570 N.ar   51  DA51       -0.2040
   1026  C2       -17.0120  -12.4760   -0.4810 C.ar   51  DA51        0.2016
   1027  N3       -17.4010  -12.8720    0.7290 N.ar   51  DA51       -0.2048
   1028  C4       -18.0010  -14.0720    0.6650 C.ar   51  DA51        0.1691
   1029  P        -23.0680  -12.9460    4.0700 P.3    52  DC52        0.2141
   1030  OP1      -23.9390  -12.3240    5.1030 O.3    52  DC52       -0.4373
   1031  OP2      -23.6680  -13.8380    3.0440 O.2    52  DC52       -0.5172
   1032  O5'      -22.2550  -11.7950    3.3310 O.3    52  DC52       -0.3114
   1033  C5'      -21.4440  -10.8760    4.0910 C.3    52  DC52        0.1811
   1034  C4'      -20.6480   -9.9860    3.1690 C.3    52  DC52        0.1746
   1035  O4'      -19.7490  -10.7920    2.3660 O.3    52  DC52       -0.3327
   1036  C3'      -21.4590   -9.2260    2.1400 C.3    52  DC52        0.1558
   1037  O3'      -22.0520   -8.0660    2.7110 O.3    52  DC52       -0.3138
   1038  C2'      -20.4090   -8.9080    1.0860 C.3    52  DC52        0.0866
   1039  C1'      -19.5960  -10.2020    1.0850 C.3    52  DC52        0.2106
   1040  N1       -20.0380  -11.1780    0.0950 N.ar   52  DC52       -0.2556
   1041  C2       -19.7440  -10.9990   -1.2610 C.ar   52  DC52        0.3531
   1042  O2       -19.1240   -9.9790   -1.6090 O.2    52  DC52       -0.2443
   1043  N3       -20.1420  -11.9380   -2.1520 N.ar   52  DC52       -0.1739
   1044  C4       -20.8060  -13.0160   -1.7330 C.ar   52  DC52        0.1759
   1045  N4       -21.1780  -13.9150   -2.6470 N.pl3  52  DC52       -0.1070
   1046  C5       -21.1140  -13.2160   -0.3630 C.ar   52  DC52        0.0566
   1047  C6       -20.7190  -12.2860    0.5130 C.ar   52  DC52        0.0849
   1048  P        -23.0930   -7.8460    2.3220 P.3    53  DG53        0.2141
   1049  OP1      -23.8080   -7.0570    3.3520 O.3    53  DG53       -0.4373
   1050  OP2      -23.6420   -9.1450    1.8640 O.2    53  DG53       -0.5172
   1051  O5'      -22.9430   -6.9820    0.9800 O.3    53  DG53       -0.3114
   1052  C5'      -22.1580   -5.7970    0.9790 C.3    53  DG53        0.1811
   1053  C4'      -21.3960   -5.6140   -0.3130 C.3    53  DG53        0.1746
   1054  O4'      -20.8160   -6.8740   -0.7400 O.3    53  DG53       -0.3327
   1055  C3'      -22.2030   -5.1530   -1.5160 C.3    53  DG53        0.1558
   1056  O3'      -22.4100   -3.7520   -1.5050 O.3    53  DG53       -0.3138
   1057  C2'      -21.3590   -5.6290   -2.6920 C.3    53  DG53        0.0865
   1058  C1'      -20.7530   -6.9260   -2.1500 C.3    53  DG53        0.2094
   1059  N9       -21.3130   -8.1640   -2.5670 N.ar   53  DG53       -0.2713
   1060  C8       -22.1030   -9.0170   -1.8360 C.ar   53  DG53        0.1816
   1061  N7       -22.5450  -10.0310   -2.5290 N.ar   53  DG53       -0.2173
   1062  C5       -22.0160   -9.8400   -3.7920 C.ar   53  DG53        0.1748
   1063  C6       -22.1470  -10.6120   -4.9740 C.ar   53  DG53        0.3023
   1064  O6       -22.7830  -11.6610   -5.1380 O.2    53  DG53       -0.2633
   1065  N1       -21.4440  -10.0570   -6.0400 N.ar   53  DG53       -0.1709
   1066  C2       -20.7060   -8.8990   -5.9740 C.ar   53  DG53        0.2606
   1067  N2       -20.0970   -8.5220   -7.1060 N.pl3  53  DG53       -0.0859
   1068  N3       -20.5760   -8.1700   -4.8830 N.ar   53  DG53       -0.1918
   1069  C4       -21.2510   -8.6900   -3.8360 C.ar   53  DG53        0.1722
   1070  P        -23.4330   -2.9840   -2.5660 P.3    54  DT54        0.2141
   1071  OP1      -23.3680   -1.5990   -2.0240 O.3    54  DT54       -0.4373
   1072  OP2      -24.5890   -3.8580   -2.2270 O.2    54  DT54       -0.5172
   1073  O5'      -23.3070   -2.9300   -4.1490 O.3    54  DT54       -0.3114
   1074  C5'      -22.1750   -2.3130   -4.7780 C.3    54  DT54        0.1811
   1075  C4'      -22.0660   -2.7820   -6.2050 C.3    54  DT54        0.1746
   1076  O4'      -21.8180   -4.2100   -6.2130 O.3    54  DT54       -0.3327
   1077  C3'      -23.3310   -2.6310   -7.0350 C.3    54  DT54        0.1558
   1078  O3'      -23.4550   -1.3100   -7.5440 O.3    54  DT54       -0.3138
   1079  C2'      -23.1220   -3.6740   -8.1250 C.3    54  DT54        0.0866
   1080  C1'      -22.4610   -4.7990   -7.3300 C.3    54  DT54        0.2106
   1081  N1       -23.4370   -5.7960   -6.8400 N.ar   54  DT54       -0.2559
   1082  C2       -23.8080   -6.8130   -7.6990 C.ar   54  DT54        0.3545
   1083  O2       -23.4180   -6.8860   -8.8510 O.2    54  DT54       -0.2443
   1084  N3       -24.6570   -7.7490   -7.1580 N.ar   54  DT54       -0.1533
   1085  C4       -25.1610   -7.7680   -5.8750 C.ar   54  DT54        0.2804
   1086  O4       -25.9150   -8.6770   -5.5350 O.2    54  DT54       -0.2654
   1087  C5       -24.7310   -6.6780   -5.0450 C.ar   54  DT54        0.0534
   1088  C6       -23.9050   -5.7550   -5.5450 C.ar   54  DT54        0.0824
   1089  C7       -25.2260   -6.6100   -3.6310 C.3    54  DT54        0.0377
   1090  P        -24.9970   -0.6120   -7.7440 P.3    55  DC55        0.2141
   1091  OP1      -25.1080    0.8420   -7.7410 O.2    55  DC55       -0.5172
   1092  OP2      -25.9410   -1.5000   -7.0110 O.3    55  DC55       -0.4373
   1093  O5'      -24.8700   -1.2320   -9.2050 O.3    55  DC55       -0.3114
   1094  C5'      -24.4670   -0.3580  -10.2040 C.3    55  DC55        0.1811
   1095  C4'      -23.8130   -1.1940  -11.2690 C.3    55  DC55        0.1746
   1096  O4'      -23.2920   -2.3030  -10.5690 O.3    55  DC55       -0.3327
   1097  C3'      -24.7030   -1.8860  -12.2570 C.3    55  DC55        0.1558
   1098  O3'      -25.1000   -1.0510  -13.3580 O.3    55  DC55       -0.3138
   1099  C2'      -23.7120   -2.9280  -12.6750 C.3    55  DC55        0.0866
   1100  C1'      -23.3000   -3.4540  -11.3810 C.3    55  DC55        0.2106
   1101  N1       -24.3420   -4.5170  -10.8240 N.ar   55  DC55       -0.2556
   1102  C2       -24.2960   -5.8430  -11.2700 C.ar   55  DC55        0.3531
   1103  O2       -23.6330   -6.1090  -12.2870 O.2    55  DC55       -0.2443
   1104  N3       -24.9730   -6.7940  -10.5820 N.ar   55  DC55       -0.1739
   1105  C4       -25.6720   -6.4610   -9.4970 C.ar   55  DC55        0.1759
   1106  N4       -26.3240   -7.4310   -8.8520 N.pl3  55  DC55       -0.1070
   1107  C5       -25.7320   -5.1230   -9.0290 C.ar   55  DC55        0.0566
   1108  C6       -25.0610   -4.1880   -9.7110 C.ar   55  DC55        0.0849
   1109  P        -26.4290   -0.9670  -13.4310 P.3    56  DT56        0.2141
   1110  OP1      -26.8470    0.2550  -14.1520 O.2    56  DT56       -0.5172
   1111  OP2      -27.3170   -1.5730  -12.4120 O.3    56  DT56       -0.4373
   1112  O5'      -26.1770   -2.1450  -14.4830 O.3    56  DT56       -0.3114
   1113  C5'      -25.0760   -2.0960  -15.3800 C.3    56  DT56        0.1811
   1114  C4'      -24.8530   -3.4320  -16.0430 C.3    56  DT56        0.1746
   1115  O4'      -24.4980   -4.4230  -15.0400 O.3    56  DT56       -0.3327
   1116  C3'      -26.0660   -4.0350  -16.7320 C.3    56  DT56        0.1558
   1117  O3'      -26.3160   -3.4910  -18.0160 O.3    56  DT56       -0.3138
   1118  C2'      -25.7320   -5.5230  -16.7410 C.3    56  DT56        0.0866
   1119  C1'      -25.0650   -5.6750  -15.3740 C.3    56  DT56        0.2106
   1120  N1       -26.0690   -6.0380  -14.3730 N.ar   56  DT56       -0.2559
   1121  C2       -26.5310   -7.3400  -14.3360 C.ar   56  DT56        0.3545
   1122  O2       -26.1560   -8.2000  -15.1130 O.2    56  DT56       -0.2443
   1123  N3       -27.4550   -7.6010  -13.3540 N.ar   56  DT56       -0.1533
   1124  C4       -27.9530   -6.7110  -12.4240 C.ar   56  DT56        0.2804
   1125  O4       -28.7800   -7.0950  -11.6010 O.2    56  DT56       -0.2654
   1126  C5       -27.4250   -5.3800  -12.5280 C.ar   56  DT56        0.0534
   1127  C6       -26.5260   -5.0980  -13.4740 C.ar   56  DT56        0.0824
   1128  C7       -27.9050   -4.3380  -11.5610 C.3    56  DT56        0.0377
   1129  P        -27.7610   -3.1510  -18.4070 P.3    57  DG57        0.2141
   1130  OP1      -27.5970   -2.3490  -19.6480 O.2    57  DG57       -0.5172
   1131  OP2      -28.5930   -2.6270  -17.2960 O.3    57  DG57       -0.4373
   1132  O5'      -28.3320   -4.5850  -18.8010 O.3    57  DG57       -0.3114
   1133  C5'      -27.8440   -5.2900  -19.9590 C.3    57  DG57        0.1811
   1134  C4'      -28.5780   -6.6010  -20.1180 C.3    57  DG57        0.1746
   1135  O4'      -28.3030   -7.4450  -18.9700 O.3    57  DG57       -0.3327
   1136  C3'      -30.0980   -6.5010  -20.1700 C.3    57  DG57        0.1558
   1137  O3'      -30.5700   -6.2220  -21.4850 O.3    57  DG57       -0.3138
   1138  C2'      -30.5480   -7.8680  -19.6670 C.3    57  DG57        0.0865
   1139  C1'      -29.4590   -8.2000  -18.6410 C.3    57  DG57        0.2094
   1140  N9       -29.8320   -7.9180  -17.3060 N.ar   57  DG57       -0.2713
   1141  C8       -29.5950   -6.7420  -16.6360 C.ar   57  DG57        0.1816
   1142  N7       -30.0970   -6.7250  -15.4310 N.ar   57  DG57       -0.2173
   1143  C5       -30.6990   -7.9610  -15.2930 C.ar   57  DG57        0.1748
   1144  C6       -31.4100   -8.5250  -14.2020 C.ar   57  DG57        0.3023
   1145  O6       -31.6520   -8.0160  -13.1010 O.2    57  DG57       -0.2633
   1146  N1       -31.8590   -9.8130  -14.4830 N.ar   57  DG57       -0.1709
   1147  C2       -31.6480  -10.4750  -15.6690 C.ar   57  DG57        0.2606
   1148  N2       -32.1570  -11.7120  -15.7530 N.pl3  57  DG57       -0.0859
   1149  N3       -30.9910   -9.9640  -16.6910 N.ar   57  DG57       -0.1918
   1150  C4       -30.5460   -8.7140  -16.4410 C.ar   57  DG57        0.1722
   1151  P        -32.0800   -5.6020  -21.7080 P.3    58  DC58        0.2141
   1152  OP1      -32.3980   -5.4700  -23.1590 O.2    58  DC58       -0.5172
   1153  OP2      -32.3110   -4.4510  -20.7860 O.3    58  DC58       -0.4373
   1154  O5'      -32.9130   -6.8290  -21.1350 O.3    58  DC58       -0.3114
   1155  C5'      -33.3510   -7.9030  -21.9900 C.3    58  DC58        0.1811
   1156  C4'      -34.5490   -8.5850  -21.3800 C.3    58  DC58        0.1746
   1157  O4'      -34.1650   -9.1910  -20.1210 O.3    58  DC58       -0.3327
   1158  C3'      -35.7010   -7.6550  -21.0290 C.3    58  DC58        0.1558
   1159  O3'      -36.5560   -7.4720  -22.1490 O.3    58  DC58       -0.3138
   1160  C2'      -36.4090   -8.3960  -19.9020 C.3    58  DC58        0.0866
   1161  C1'      -35.2480   -9.1190  -19.2130 C.3    58  DC58        0.2106
   1162  N1       -34.8130   -8.5730  -17.9060 N.ar   58  DC58       -0.2556
   1163  C2       -35.0720   -9.2930  -16.7340 C.ar   58  DC58        0.3531
   1164  O2       -35.5020  -10.4550  -16.8290 O.2    58  DC58       -0.2443
   1165  N3       -34.8470   -8.7040  -15.5350 N.ar   58  DC58       -0.1739
   1166  C4       -34.3860   -7.4540  -15.4820 C.ar   58  DC58        0.1759
   1167  N4       -34.1800   -6.9150  -14.2780 N.pl3  58  DC58       -0.1070
   1168  C5       -34.1180   -6.7080  -16.6580 C.ar   58  DC58        0.0566
   1169  C6       -34.3410   -7.2930  -17.8400 C.ar   58  DC58        0.0849
   1170  P        -37.4660   -6.0040  -22.3170 P.3    59  DA59        0.2141
   1171  OP1      -38.3580   -5.9250  -23.4990 O.2    59  DA59       -0.5172
   1172  OP2      -36.3700   -5.0270  -22.1400 O.3    59  DA59       -0.4373
   1173  O5'      -38.3390   -5.8410  -20.9880 O.3    59  DA59       -0.3114
   1174  C5'      -39.3860   -6.7650  -20.7120 C.3    59  DA59        0.1811
   1175  C4'      -40.4030   -6.1750  -19.7660 C.3    59  DA59        0.1746
   1176  O4'      -39.9380   -6.4100  -18.4100 O.3    59  DA59       -0.3327
   1177  C3'      -40.5980   -4.6680  -19.9220 C.3    59  DA59        0.1558
   1178  O3'      -41.9040   -4.3060  -20.3660 O.3    59  DA59       -0.3138
   1179  C2'      -40.2850   -4.0540  -18.5550 C.3    59  DA59        0.0865
   1180  C1'      -39.7850   -5.2050  -17.6880 C.3    59  DA59        0.2094
   1181  N9       -38.3160   -4.9540  -17.4090 N.ar   59  DA59       -0.2714
   1182  C8       -37.2510   -5.0160  -18.2700 C.ar   59  DA59        0.1815
   1183  N7       -36.1350   -4.5450  -17.7660 N.ar   59  DA59       -0.2193
   1184  C5       -36.4920   -4.1440  -16.4880 C.ar   59  DA59        0.1518
   1185  C6       -35.7580   -3.5600  -15.4410 C.ar   59  DA59        0.1919
   1186  N6       -34.4580   -3.2680  -15.5220 N.pl3  59  DA59       -0.1054
   1187  N1       -36.4150   -3.2840  -14.2940 N.ar   59  DA59       -0.2040
   1188  C2       -37.7170   -3.5780  -14.2130 C.ar   59  DA59        0.2016
   1189  N3       -38.5140   -4.1270  -15.1270 N.ar   59  DA59       -0.2048
   1190  C4       -37.8320   -4.3890  -16.2550 C.ar   59  DA59        0.1691
   1191  P        -41.9140   -3.0180  -21.5480 P.3    60  DC60        0.2141
   1192  OP1      -42.7970   -3.0380  -22.7270 O.2    60  DC60       -0.5172
   1193  OP2      -40.5800   -2.4040  -21.6490 O.3    60  DC60       -0.4373
   1194  O5'      -42.6980   -2.3260  -20.3510 O.3    60  DC60       -0.3114
   1195  C5'      -42.6500   -0.9020  -20.1530 C.3    60  DC60        0.1811
   1196  C4'      -43.1900   -0.5550  -18.7880 C.3    60  DC60        0.1746
   1197  O4'      -44.6170   -0.8540  -18.7520 O.3    60  DC60       -0.3327
   1198  C3'      -42.5660   -1.3380  -17.6330 C.3    60  DC60        0.1558
   1199  O3'      -42.5710   -0.5440  -16.4570 O.3    60  DC60       -0.3138
   1200  C2'      -43.5510   -2.4850  -17.4490 C.3    60  DC60        0.0866
   1201  C1'      -44.8760   -1.7740  -17.7130 C.3    60  DC60        0.2106
   1202  N1       -45.6680   -2.7220  -18.0190 N.ar   60  DC60       -0.2556
   1203  C2       -46.6690   -3.1670  -17.1480 C.ar   60  DC60        0.3531
   1204  O2       -47.1600   -2.3610  -16.3400 O.2    60  DC60       -0.2443
   1205  N3       -47.0710   -4.4590  -17.2120 N.ar   60  DC60       -0.1739
   1206  C4       -46.5140   -5.2880  -18.0950 C.ar   60  DC60        0.1759
   1207  N4       -46.9430   -6.5530  -18.1210 N.pl3  60  DC60       -0.1070
   1208  C5       -45.4990   -4.8570  -18.9860 C.ar   60  DC60        0.0566
   1209  C6       -45.1040   -3.5800  -18.9200 C.ar   60  DC60        0.0849
   1210  P        -41.2060   -0.3670  -15.2890 P.3    61  DA61        0.2141
   1211  OP1      -40.4680    0.8750  -14.9660 O.3    61  DA61       -0.4373
   1212  OP2      -40.4490   -1.5230  -15.8300 O.2    61  DA61       -0.5172
   1213  O5'      -42.0670   -0.8290  -14.0360 O.3    61  DA61       -0.3114
   1214  C5'      -42.6930    0.1270  -13.1960 C.3    61  DA61        0.1811
   1215  C4'      -43.9380   -0.4250  -12.5500 C.3    61  DA61        0.1746
   1216  O4'      -44.8510   -0.9160  -13.5650 O.3    61  DA61       -0.3327
   1217  C3'      -43.7480   -1.6210  -11.6340 C.3    61  DA61        0.1558
   1218  O3'      -43.2480   -1.2700  -10.3570 O.3    61  DA61       -0.3138
   1219  C2'      -45.1450   -2.2230  -11.5990 C.3    61  DA61        0.0865
   1220  C1'      -45.6090   -1.9880  -13.0380 C.3    61  DA61        0.2094
   1221  N9       -45.4090   -3.1760  -13.8560 N.ar   61  DA61       -0.2714
   1222  C8       -44.5920   -3.2200  -14.9560 C.ar   61  DA61        0.1815
   1223  N7       -44.6380   -4.3600  -15.6030 N.ar   61  DA61       -0.2193
   1224  C5       -45.5450   -5.1170  -14.8790 C.ar   61  DA61        0.1518
   1225  C6       -46.0340   -6.4240  -15.0470 C.ar   61  DA61        0.1919
   1226  N6       -45.6600   -7.2310  -16.0430 N.pl3  61  DA61       -0.1054
   1227  N1       -46.9320   -6.8780  -14.1460 N.ar   61  DA61       -0.2040
   1228  C2       -47.3070   -6.0690  -13.1490 C.ar   61  DA61        0.2016
   1229  N3       -46.9190   -4.8230  -12.8870 N.ar   61  DA61       -0.2048
   1230  C4       -46.0270   -4.4010  -13.7990 C.ar   61  DA61        0.1691
   1231  P        -42.0540   -1.9970   -9.7590 P.3    62  DT62        0.2141
   1232  OP1      -41.6150   -1.0660   -8.6940 O.3    62  DT62       -0.4373
   1233  OP2      -41.1080   -2.3650  -10.8500 O.2    62  DT62       -0.5172
   1234  O5'      -42.5710   -3.3390   -9.0850 O.3    62  DT62       -0.3114
   1235  C5'      -43.5770   -3.2910   -8.0710 C.3    62  DT62        0.1811
   1236  C4'      -44.2280   -4.6340   -7.9160 C.3    62  DT62        0.1746
   1237  O4'      -45.0670   -4.9070   -9.0650 O.3    62  DT62       -0.3327
   1238  C3'      -43.3080   -5.8360   -7.8810 C.3    62  DT62        0.1558
   1239  O3'      -42.6590   -6.0680   -6.6610 O.3    62  DT62       -0.3138
   1240  C2'      -44.2470   -6.9660   -8.2310 C.3    62  DT62        0.0866
   1241  C1'      -45.1120   -6.3070   -9.3000 C.3    62  DT62        0.2106
   1242  N1       -44.5340   -6.5600  -10.6430 N.ar   62  DT62       -0.2559
   1243  C2       -44.9070   -7.7420  -11.2540 C.ar   62  DT62        0.3545
   1244  O2       -45.6610   -8.5470  -10.7370 O.2    62  DT62       -0.2443
   1245  N3       -44.3610   -7.9510  -12.4970 N.ar   62  DT62       -0.1533
   1246  C4       -43.4990   -7.1150  -13.1770 C.ar   62  DT62        0.2804
   1247  O4       -43.0940   -7.4400  -14.2900 O.2    62  DT62       -0.2654
   1248  C5       -43.1590   -5.9090  -12.4770 C.ar   62  DT62        0.0534
   1249  C6       -43.6750   -5.6800  -11.2660 C.ar   62  DT62        0.0824
   1250  C7       -42.2270   -4.9350  -13.1330 C.3    62  DT62        0.0377
   1251  P        -41.2370   -6.6330   -6.7220 P.3    63  DA63        0.2141
   1252  OP1      -40.5530   -6.6450   -5.4160 O.3    63  DA63       -0.4373
   1253  OP2      -40.5460   -6.1260   -7.9290 O.2    63  DA63       -0.5172
   1254  O5'      -41.7300   -8.0910   -7.0680 O.3    63  DA63       -0.3114
   1255  C5'      -42.5000   -8.7950   -6.1310 C.3    63  DA63        0.1811
   1256  C4'      -42.5940  -10.2350   -6.5690 C.3    63  DA63        0.1746
   1257  O4'      -43.4550  -10.3210   -7.7240 O.3    63  DA63       -0.3327
   1258  C3'      -41.2940  -10.8920   -7.0010 C.3    63  DA63        0.1558
   1259  O3'      -40.6220  -11.3840   -5.8570 O.3    63  DA63       -0.3138
   1260  C2'      -41.8290  -12.0080   -7.8770 C.3    63  DA63        0.0865
   1261  C1'      -42.9430  -11.2930   -8.6160 C.3    63  DA63        0.2094
   1262  N9       -42.5370  -10.6910   -9.8440 N.ar   63  DA63       -0.2714
   1263  C8       -41.8750   -9.5050  -10.0220 C.ar   63  DA63        0.1815
   1264  N7       -41.3780   -9.3520  -11.2270 N.ar   63  DA63       -0.2193
   1265  C5       -41.7380  -10.5170  -11.8840 C.ar   63  DA63        0.1518
   1266  C6       -41.5130  -10.9720  -13.1950 C.ar   63  DA63        0.1919
   1267  N6       -40.8420  -10.2740  -14.1150 N.pl3  63  DA63       -0.1054
   1268  N1       -42.0060  -12.1830  -13.5320 N.ar   63  DA63       -0.2040
   1269  C2       -42.6790  -12.8810  -12.6100 C.ar   63  DA63        0.2016
   1270  N3       -42.9560  -12.5590  -11.3490 N.ar   63  DA63       -0.2048
   1271  C4       -42.4520  -11.3520  -11.0450 C.ar   63  DA63        0.1691
   1272  P        -39.0540  -11.4520   -5.8050 P.3    64  DC64        0.2141
   1273  OP1      -38.5560  -12.1130   -4.5730 O.3    64  DC64       -0.4373
   1274  OP2      -38.3600  -10.2480   -6.3210 O.2    64  DC64       -0.5172
   1275  O5'      -39.0920  -12.5380   -6.9690 O.3    64  DC64       -0.3114
   1276  C5'      -39.7240  -13.8110   -6.7670 C.3    64  DC64        0.1811
   1277  C4'      -39.5260  -14.6900   -7.9800 C.3    64  DC64        0.1746
   1278  O4'      -40.1600  -14.0740   -9.1270 O.3    64  DC64       -0.3327
   1279  C3'      -38.0850  -14.9010   -8.4050 C.3    64  DC64        0.1558
   1280  O3'      -37.5060  -15.9660   -7.6580 O.3    64  DC64       -0.3138
   1281  C2'      -38.2350  -15.2390   -9.8830 C.3    64  DC64        0.0866
   1282  C1'      -39.3880  -14.3140  -10.2860 C.3    64  DC64        0.2106
   1283  N1       -38.9200  -12.9340  -10.8520 N.ar   64  DC64       -0.2556
   1284  C2       -38.3130  -12.9980  -12.1110 C.ar   64  DC64        0.3531
   1285  O2       -38.2650  -14.0930  -12.6970 O.2    64  DC64       -0.2443
   1286  N3       -37.7960  -11.8690  -12.6520 N.ar   64  DC64       -0.1739
   1287  C4       -37.8690  -10.7160  -11.9860 C.ar   64  DC64        0.1759
   1288  N4       -37.3450   -9.6290  -12.5590 N.pl3  64  DC64       -0.1070
   1289  C5       -38.4800  -10.6300  -10.7090 C.ar   64  DC64        0.0566
   1290  C6       -38.9890  -11.7470  -10.1780 C.ar   64  DC64        0.0849
   1291  P        -35.8730  -15.8910   -7.1470 P.3    65  DC65        0.2141
   1292  OP1      -35.6550  -17.1700   -6.4280 O.3    65  DC65       -0.4373
   1293  OP2      -35.4320  -14.6260   -6.5180 O.2    65  DC65       -0.5172
   1294  O5'      -35.2260  -16.0280   -8.6030 O.3    65  DC65       -0.3114
   1295  C5'      -35.4610  -17.2040   -9.3690 C.3    65  DC65        0.1811
   1296  C4'      -34.9500  -17.0750  -10.7920 C.3    65  DC65        0.1746
   1297  O4'      -35.6250  -15.9980  -11.4950 O.3    65  DC65       -0.3327
   1298  C3'      -33.4810  -16.7190  -10.9270 C.3    65  DC65        0.1558
   1299  O3'      -32.6610  -17.8480  -10.6520 O.3    65  DC65       -0.3138
   1300  C2'      -33.4460  -16.2620  -12.3790 C.3    65  DC65        0.0866
   1301  C1'      -34.7310  -15.4370  -12.4420 C.3    65  DC65        0.2106
   1302  N1       -34.4800  -13.9890  -12.1050 N.ar   65  DC65       -0.2556
   1303  C2       -33.8960  -13.1610  -13.0710 C.ar   65  DC65        0.3531
   1304  O2       -33.5530  -13.6590  -14.1570 O.2    65  DC65       -0.2443
   1305  N3       -33.7230  -11.8460  -12.7950 N.ar   65  DC65       -0.1739
   1306  C4       -34.1050  -11.3560  -11.6150 C.ar   65  DC65        0.1759
   1307  N4       -33.9140  -10.0540  -11.3880 N.pl3  65  DC65       -0.1070
   1308  C5       -34.6980  -12.1780  -10.6230 C.ar   65  DC65        0.0566
   1309  C6       -34.8680  -13.4760  -10.9000 C.ar   65  DC65        0.0849
   1310  P        -31.2060  -17.6820   -9.9460 P.3    66  DA66        0.2141
   1311  OP1      -30.5760  -19.0220  -10.0150 O.2    66  DA66       -0.5172
   1312  OP2      -30.9190  -16.8120   -8.7900 O.3    66  DA66       -0.4373
   1313  O5'      -30.8440  -16.8940  -11.2630 O.3    66  DA66       -0.3114
   1314  C5'      -31.1570  -17.4630  -12.5070 C.3    66  DA66        0.1811
   1315  C4'      -30.3170  -16.8380  -13.5840 C.3    66  DA66        0.1746
   1316  O4'      -30.8110  -15.5020  -13.8720 O.3    66  DA66       -0.3327
   1317  C3'      -28.8560  -16.6800  -13.2040 C.3    66  DA66        0.1558
   1318  O3'      -28.1250  -17.8790  -13.5220 O.3    66  DA66       -0.3138
   1319  C2'      -28.4480  -15.4660  -14.0270 C.3    66  DA66        0.0865
   1320  C1'      -29.7210  -14.6140  -14.0050 C.3    66  DA66        0.2094
   1321  N9       -29.7830  -13.5460  -12.7670 N.ar   66  DA66       -0.2714
   1322  C8       -30.0590  -13.6550  -11.4300 C.ar   66  DA66        0.1815
   1323  N7       -29.8650  -12.5460  -10.7570 N.ar   66  DA66       -0.2193
   1324  C5       -29.4310  -11.6470  -11.7180 C.ar   66  DA66        0.1518
   1325  C6       -29.0570  -10.2930  -11.6480 C.ar   66  DA66        0.1919
   1326  N6       -29.0640   -9.5830  -10.5170 N.pl3  66  DA66       -0.1054
   1327  N1       -28.6730   -9.6890  -12.7920 N.ar   66  DA66       -0.2040
   1328  C2       -28.6680  -10.4010  -13.9240 C.ar   66  DA66        0.2016
   1329  N3       -28.9980  -11.6760  -14.1170 N.ar   66  DA66       -0.2048
   1330  C4       -29.3740  -12.2490  -12.9610 C.ar   66  DA66        0.1691
   1331  P        -26.5460  -18.1620  -12.8780 P.3    67  DG67        0.2141
   1332  OP1      -25.9240  -19.4830  -13.1100 O.2    67  DG67       -0.5172
   1333  OP2      -26.7940  -17.6920  -11.4950 O.3    67  DG67       -0.4373
   1334  O5'      -25.6330  -17.0170  -13.5280 O.3    67  DG67       -0.3114
   1335  C5'      -25.5910  -16.8750  -14.9380 C.3    67  DG67        0.1811
   1336  C4'      -25.2750  -15.4670  -15.3770 C.3    67  DG67        0.1746
   1337  O4'      -26.2650  -14.5300  -14.8790 O.3    67  DG67       -0.3327
   1338  C3'      -23.9690  -14.8720  -14.8830 C.3    67  DG67        0.1558
   1339  O3'      -22.8300  -15.3850  -15.5490 O.3    67  DG67       -0.3138
   1340  C2'      -24.2060  -13.3950  -15.1450 C.3    67  DG67        0.0865
   1341  C1'      -25.6610  -13.2620  -14.7030 C.3    67  DG67        0.2094
   1342  N9       -25.7590  -12.8020  -13.3030 N.ar   67  DG67       -0.2713
   1343  C8       -26.3570  -13.4930  -12.2770 C.ar   67  DG67        0.1816
   1344  N7       -26.3390  -12.8490  -11.1420 N.ar   67  DG67       -0.2173
   1345  C5       -25.6950  -11.6610  -11.4330 C.ar   67  DG67        0.1748
   1346  C6       -25.3760  -10.5560  -10.6010 C.ar   67  DG67        0.3023
   1347  O6       -25.6150  -10.4100   -9.3960 O.2    67  DG67       -0.2633
   1348  N1       -24.7130   -9.5520  -11.3010 N.ar   67  DG67       -0.1709
   1349  C2       -24.3960   -9.6050  -12.6370 C.ar   67  DG67        0.2606
   1350  N2       -23.7560   -8.5390  -13.1360 N.pl3  67  DG67       -0.0859
   1351  N3       -24.6840  -10.6250  -13.4220 N.ar   67  DG67       -0.1918
   1352  C4       -25.3280  -11.6120  -12.7640 C.ar   67  DG67        0.1722
   1353  P        -21.4030  -15.2300  -14.8840 P.3    68  DC68        0.2141
   1354  OP1      -20.8600  -15.7430  -16.1610 O.2    68  DC68       -0.5172
   1355  OP2      -21.7520  -16.1740  -13.8010 O.3    68  DC68       -0.4373
   1356  O5'      -20.3850  -14.1400  -14.3060 O.3    68  DC68       -0.3114
   1357  C5'      -19.7240  -13.2530  -15.1990 C.3    68  DC68        0.1811
   1358  C4'      -19.7060  -11.8480  -14.6350 C.3    68  DC68        0.1746
   1359  O4'      -20.9810  -11.5870  -14.0010 O.3    68  DC68       -0.3327
   1360  C3'      -18.7120  -11.5860  -13.5150 C.3    68  DC68        0.1558
   1361  O3'      -17.4030  -11.3720  -14.0270 O.3    68  DC68       -0.3138
   1362  C2'      -19.3050  -10.3060  -12.9380 C.3    68  DC68        0.0866
   1363  C1'      -20.7950  -10.6430  -12.9610 C.3    68  DC68        0.2106
   1364  N1       -21.1780  -11.1020  -11.7150 N.ar   68  DC68       -0.2556
   1365  C2       -21.2470  -10.3630  -10.5290 C.ar   68  DC68        0.3531
   1366  O2       -20.7300   -9.2330  -10.4980 O.2    68  DC68       -0.2443
   1367  N3       -21.8710  -10.8990   -9.4530 N.ar   68  DC68       -0.1739
   1368  C4       -22.4110  -12.1160   -9.5320 C.ar   68  DC68        0.1759
   1369  N4       -23.0160  -12.6020   -8.4460 N.pl3  68  DC68       -0.1070
   1370  C5       -22.3520  -12.8810  -10.7250 C.ar   68  DC68        0.0566
   1371  C6       -21.7350  -12.3480  -11.7850 C.ar   68  DC68        0.0849
   1372  P        -16.0250  -11.7440  -13.1000 P.3    69  DT69        0.2141
   1373  OP1      -14.9460  -11.7650  -14.1140 O.2    69  DT69       -0.5172
   1374  OP2      -16.4620  -13.0140  -12.4740 O.3    69  DT69       -0.4373
   1375  O5'      -15.6250  -10.7960  -11.8750 O.3    69  DT69       -0.3114
   1376  C5'      -15.2930   -9.4170  -12.0290 C.3    69  DT69        0.1811
   1377  C4'      -15.3920   -8.6860  -10.6980 C.3    69  DT69        0.1746
   1378  O4'      -16.7530   -8.7290  -10.2020 O.3    69  DT69       -0.3327
   1379  C3'      -14.5670   -9.2740   -9.5630 C.3    69  DT69        0.1558
   1380  O3'      -13.2310   -8.7960   -9.6420 O.3    69  DT69       -0.3138
   1381  C2'      -15.3020   -8.7730   -8.3300 C.3    69  DT69        0.0866
   1382  C1'      -16.7530   -8.8220   -8.7870 C.3    69  DT69        0.2106
   1383  N1       -17.4330  -10.0490   -8.3570 N.ar   69  DT69       -0.2559
   1384  C2       -17.8680  -10.0820   -7.0460 C.ar   69  DT69        0.3545
   1385  O2       -17.7620   -9.1340   -6.2870 O.2    69  DT69       -0.2443
   1386  N3       -18.4330  -11.2700   -6.6500 N.ar   69  DT69       -0.1533
   1387  C4       -18.6040  -12.4030   -7.4180 C.ar   69  DT69        0.2804
   1388  O4       -19.1300  -13.3960   -6.9220 O.2    69  DT69       -0.2654
   1389  C5       -18.1270  -12.2910   -8.7670 C.ar   69  DT69        0.0534
   1390  C6       -17.5730  -11.1470   -9.1780 C.ar   69  DT69        0.0824
   1391  C7       -18.2670  -13.4720   -9.6810 C.3    69  DT69        0.0377
   1392  P        -12.0240   -9.5980   -9.0010 P.3    70  DT70        0.2141
   1393  OP1      -10.6700   -9.6750   -9.6230 O.2    70  DT70       -0.5172
   1394  OP2      -12.5380  -10.7370   -8.1910 O.3    70  DT70       -0.4373
   1395  O5'      -12.0020   -8.3650   -8.0110 O.3    70  DT70       -0.3114
   1396  C5'      -11.5540   -8.5490   -6.6960 C.3    70  DT70        0.1811
   1397  C4'      -12.5490   -7.9810   -5.7280 C.3    70  DT70        0.1746
   1398  O4'      -13.8920   -8.4850   -5.9730 O.3    70  DT70       -0.3327
   1399  C3'      -12.2460   -8.4340   -4.3280 C.3    70  DT70        0.1558
   1400  O3'      -11.1500   -7.7390   -3.7830 O.3    70  DT70       -0.3138
   1401  C2'      -13.5900   -8.3000   -3.6290 C.3    70  DT70        0.0866
   1402  C1'      -14.5430   -8.7490   -4.7320 C.3    70  DT70        0.2106
   1403  N1       -14.8800  -10.2550   -4.6750 N.ar   70  DT70       -0.2559
   1404  C2       -15.4740  -10.9060   -3.6110 C.ar   70  DT70        0.3545
   1405  O2       -15.4910  -10.4530   -2.4810 O.2    70  DT70       -0.2443
   1406  N3       -16.0520  -12.1140   -3.9190 N.ar   70  DT70       -0.1533
   1407  C4       -16.0930  -12.7230   -5.1560 C.ar   70  DT70        0.2804
   1408  O4       -16.6500  -13.8120   -5.2760 O.2    70  DT70       -0.2654
   1409  C5       -15.4540  -11.9850   -6.2080 C.ar   70  DT70        0.0534
   1410  C6       -14.8850  -10.8080   -5.9370 C.ar   70  DT70        0.0824
   1411  C7       -15.4450  -12.5650   -7.5910 C.3    70  DT70        0.0377
   1412  P        -10.0190   -8.4950   -3.1680 P.3    71  DA71        0.2141
   1413  OP1       -9.0070   -7.6250   -2.5220 O.3    71  DA71       -0.4373
   1414  OP2       -9.6120   -9.5090   -4.1720 O.2    71  DA71       -0.5172
   1415  O5'      -10.8540   -9.1930   -1.9950 O.3    71  DA71       -0.3114
   1416  C5'      -11.1880   -8.4420   -0.8700 C.3    71  DA71        0.1811
   1417  C4'      -11.9930   -9.2810    0.0750 C.3    71  DA71        0.1746
   1418  O4'      -13.1020   -9.8730   -0.6160 O.3    71  DA71       -0.3327
   1419  C3'      -11.2650  -10.4690    0.6320 C.3    71  DA71        0.1558
   1420  O3'      -10.4930  -10.0850    1.7060 O.3    71  DA71       -0.3138
   1421  C2'      -12.4010  -11.3560    1.0480 C.3    71  DA71        0.0865
   1422  C1'      -13.3100  -11.2030   -0.1310 C.3    71  DA71        0.2094
   1423  N9       -13.0370  -12.1730   -1.2380 N.ar   71  DA71       -0.2714
   1424  C8       -12.4900  -11.9040   -2.4650 C.ar   71  DA71        0.1815
   1425  N7       -12.4820  -12.9340   -3.2780 N.ar   71  DA71       -0.2193
   1426  C5       -13.0620  -13.9490   -2.5330 C.ar   71  DA71        0.1518
   1427  C6       -13.3450  -15.2950   -2.8260 C.ar   71  DA71        0.1919
   1428  N6       -13.0690  -15.8690   -3.9990 N.pl3  71  DA71       -0.1054
   1429  N1       -13.9280  -16.0370   -1.8610 N.ar   71  DA71       -0.2040
   1430  C2       -14.2060  -15.4600   -0.6860 C.ar   71  DA71        0.2016
   1431  N3       -13.9890  -14.2070   -0.2940 N.ar   71  DA71       -0.2048
   1432  C4       -13.4080  -13.4960   -1.2740 C.ar   71  DA71        0.1691
   1433  P         -9.2690  -10.5030    1.6300 P.3    72  DT72        0.2141
   1434  OP1       -8.5580   -9.6470    2.6080 O.3    72  DT72       -0.4373
   1435  OP2       -8.6930  -10.7740    0.2930 O.2    72  DT72       -0.5172
   1436  O5'       -9.4810  -11.9690    2.2290 O.3    72  DT72       -0.3114
   1437  C5'      -10.0980  -12.1050    3.5010 C.3    72  DT72        0.1811
   1438  C4'      -10.2680  -13.5440    3.9230 C.3    72  DT72        0.1746
   1439  O4'      -11.2860  -14.1570    3.0810 O.3    72  DT72       -0.3327
   1440  C3'       -9.0300  -14.4210    3.7660 C.3    72  DT72        0.1558
   1441  O3'       -8.2710  -14.6010    4.9570 O.3    72  DT72       -0.3138
   1442  C2'       -9.5730  -15.7700    3.3100 C.3    72  DT72        0.0866
   1443  C1'      -10.8990  -15.4480    2.6420 C.3    72  DT72        0.2106
   1444  N1       -10.6800  -15.3970    1.1460 N.ar   72  DT72       -0.2559
   1445  C2       -10.8510  -16.6360    0.5580 C.ar   72  DT72        0.3545
   1446  O2       -11.2890  -17.6010    1.1580 O.2    72  DT72       -0.2443
   1447  N3       -10.4890  -16.7060   -0.7660 N.ar   72  DT72       -0.1533
   1448  C4        -9.9840  -15.6840   -1.5430 C.ar   72  DT72        0.2804
   1449  O4        -9.7050  -15.9000   -2.7200 O.2    72  DT72       -0.2654
   1450  C5        -9.8340  -14.4300   -0.8600 C.ar   72  DT72        0.0534
   1451  C6       -10.1790  -14.3340    0.4270 C.ar   72  DT72        0.0824
   1452  C7        -9.2910  -13.2560   -1.6200 C.3    72  DT72        0.0377
   1453  P         -7.1370  -14.6540    4.5450 P.3    73  DT73        0.2141
   1454  OP1       -6.3770  -14.2880    5.7630 O.3    73  DT73       -0.4373
   1455  OP2       -6.7980  -14.0410    3.2380 O.2    73  DT73       -0.5172
   1456  O5'       -7.0450  -16.2330    4.2880 O.3    73  DT73       -0.3114
   1457  C5'       -7.2190  -17.1570    5.3530 C.3    73  DT73        0.1811
   1458  C4'       -7.3050  -18.5810    4.8580 C.3    73  DT73        0.1746
   1459  O4'       -8.2980  -18.6780    3.8060 O.3    73  DT73       -0.3327
   1460  C3'       -6.0630  -19.1470    4.1940 C.3    73  DT73        0.1558
   1461  O3'       -5.0650  -19.5460    5.1100 O.3    73  DT73       -0.3138
   1462  C2'       -6.6310  -20.3010    3.3800 C.3    73  DT73        0.0866
   1463  C1'       -7.9270  -19.6760    2.8750 C.3    73  DT73        0.2106
   1464  N1        -7.7110  -19.0830    1.5690 N.ar   73  DT73       -0.2559
   1465  C2        -7.7370  -19.8520    0.4200 C.ar   73  DT73        0.3545
   1466  O2        -7.8010  -21.0680    0.4360 O.2    73  DT73       -0.2443
   1467  N3        -7.6830  -19.1420   -0.7550 N.ar   73  DT73       -0.1533
   1468  C4        -7.6070  -17.7720   -0.8940 C.ar   73  DT73        0.2804
   1469  O4        -7.5660  -17.2790   -2.0180 O.2    73  DT73       -0.2654
   1470  C5        -7.5840  -17.0440    0.3440 C.ar   73  DT73        0.0534
   1471  C6        -7.6350  -17.7090    1.5010 C.ar   73  DT73        0.0824
   1472  C7        -7.5020  -15.5470    0.2980 C.3    73  DT73        0.0377
   1473  P         -4.0770  -19.2420    4.7070 P.3    74  DC74        0.2141
   1474  OP1       -3.6450  -19.1790    6.1250 O.3    74  DC74       -0.4373
   1475  OP2       -3.3240  -18.5400    3.6400 O.2    74  DC74       -0.5172
   1476  O5'       -4.1930  -20.7570    4.1970 O.3    74  DC74       -0.3114
   1477  C5'       -3.1520  -21.7080    4.3070 C.3    74  DC74        0.1811
   1478  C4'       -3.3630  -22.8210    3.3220 C.3    74  DC74        0.1746
   1479  O4'       -4.3730  -22.4390    2.3560 O.3    74  DC74       -0.3327
   1480  C3'       -2.1530  -23.1060    2.4610 C.3    74  DC74        0.1558
   1481  O3'       -1.1860  -23.8920    3.1170 O.3    74  DC74       -0.3138
   1482  C2'       -2.7490  -23.7510    1.2230 C.3    74  DC74        0.0866
   1483  C1'       -4.0230  -22.9290    1.0750 C.3    74  DC74        0.2106
   1484  N1        -3.8320  -21.8680    0.1440 N.ar   74  DC74       -0.2556
   1485  C2        -3.8940  -22.0530   -1.2420 C.ar   74  DC74        0.3531
   1486  O2        -3.8550  -23.2100   -1.6930 O.2    74  DC74       -0.2443
   1487  N3        -3.9950  -20.9690   -2.0480 N.ar   74  DC74       -0.1739
   1488  C4        -4.0320  -19.7450   -1.5190 C.ar   74  DC74        0.1759
   1489  N4        -4.1310  -18.7070   -2.3530 N.pl3  74  DC74       -0.1070
   1490  C5        -3.9700  -19.5370   -0.1170 C.ar   74  DC74        0.0566
   1491  C6        -3.8710  -20.6100    0.6750 C.ar   74  DC74        0.0849
   1492  P          0.2440  -23.2680    2.8560 P.3    75  DA75        0.2141
   1493  OP1        0.6520  -24.3700    3.7590 O.3    75  DA75       -0.4373
   1494  OP2        0.9780  -21.9750    2.8990 O.2    75  DA75       -0.5172
   1495  O5'        0.3020  -23.8350    1.3660 O.3    75  DA75       -0.3114
   1496  C5'        1.2890  -24.7880    0.9750 C.3    75  DA75        0.1811
   1497  C4'        1.1310  -25.1710   -0.4870 C.3    75  DA75        0.1746
   1498  O4'       -0.0710  -24.5770   -1.0530 O.3    75  DA75       -0.3327
   1499  C3'        2.2500  -24.7160   -1.4190 C.3    75  DA75        0.1558
   1500  O3'        3.3550  -25.6120   -1.3770 O.3    75  DA75       -0.3138
   1501  C2'        1.5500  -24.6970   -2.7720 C.3    75  DA75        0.0865
   1502  C1'        0.1760  -24.1480   -2.3830 C.3    75  DA75        0.2094
   1503  N9         0.0700  -22.6050   -2.3840 N.ar   75  DA75       -0.2714
   1504  C8        -0.2020  -21.7950   -1.3140 C.ar   75  DA75        0.1815
   1505  N7        -0.4730  -20.5540   -1.6450 N.ar   75  DA75       -0.2193
   1506  C5        -0.3690  -20.5500   -3.0270 C.ar   75  DA75        0.1518
   1507  C6        -0.5390  -19.5350   -3.9850 C.ar   75  DA75        0.1919
   1508  N6        -0.8630  -18.2760   -3.6790 N.pl3  75  DA75       -0.1054
   1509  N1        -0.3620  -19.8620   -5.2820 N.ar   75  DA75       -0.2040
   1510  C2        -0.0390  -21.1240   -5.5880 C.ar   75  DA75        0.2016
   1511  N3         0.1470  -22.1640   -4.7780 N.ar   75  DA75       -0.2048
   1512  C4        -0.0350  -21.8050   -3.4960 C.ar   75  DA75        0.1691
   1513  P          3.9150  -25.0860   -1.1970 P.3    76  DA76        0.2141
   1514  OP1        4.3980  -26.2380   -0.4030 O.3    76  DA76       -0.4373
   1515  OP2        3.6720  -23.7880   -0.5260 O.2    76  DA76       -0.5172
   1516  O5'        4.9210  -24.7190   -2.3920 O.3    76  DA76       -0.3114
   1517  C5'        5.0690  -25.5740   -3.5200 C.3    76  DA76        0.1811
   1518  C4'        4.9930  -24.8450   -4.8450 C.3    76  DA76        0.1746
   1519  O4'        3.7410  -24.1180   -4.9560 O.3    76  DA76       -0.3327
   1520  C3'        6.0380  -23.7730   -5.1170 C.3    76  DA76        0.1558
   1521  O3'        7.3040  -24.2880   -5.4830 O.3    76  DA76       -0.3138
   1522  C2'        5.3750  -22.9470   -6.2130 C.3    76  DA76        0.0865
   1523  C1'        3.9320  -22.9400   -5.7140 C.3    76  DA76        0.2094
   1524  N9         3.7340  -21.7580   -4.8620 N.ar   76  DA76       -0.2714
   1525  C8         3.4680  -21.8080   -3.5180 C.ar   76  DA76        0.1815
   1526  N7         3.1850  -20.6410   -2.9910 N.ar   76  DA76       -0.2193
   1527  C5         3.2720  -19.7640   -4.0610 C.ar   76  DA76        0.1518
   1528  C6         3.0840  -18.3740   -4.1620 C.ar   76  DA76        0.1919
   1529  N6         2.7550  -17.5950   -3.1290 N.pl3  76  DA76       -0.1054
   1530  N1         3.2480  -17.8070   -5.3760 N.ar   76  DA76       -0.2040
   1531  C2         3.5770  -18.5890   -6.4110 C.ar   76  DA76        0.2016
   1532  N3         3.7800  -19.9040   -6.4400 N.ar   76  DA76       -0.2048
   1533  C4         3.6100  -20.4370   -5.2190 C.ar   76  DA76        0.1691
   1534  P          8.6010  -23.5770   -4.7930 P.3    77  DT77        0.2141
   1535  OP1        9.8030  -24.4540   -4.8360 O.2    77  DT77       -0.5172
   1536  OP2        8.0650  -23.1190   -3.4760 O.3    77  DT77       -0.4373
   1537  O5'        8.8400  -22.2820   -5.6950 O.3    77  DT77       -0.3114
   1538  C5'        9.3630  -22.3990   -7.0160 C.3    77  DT77        0.1812
   1539  C4'        9.2500  -21.0820   -7.7480 C.3    77  DT77        0.1775
   1540  O4'        7.8650  -20.6560   -7.7350 O.3    77  DT77       -0.3326
   1541  C3'       10.0030  -19.9060   -7.1530 C.3    77  DT77        0.1864
   1542  O3'       11.3670  -19.8860   -7.5620 O.3    77  DT77       -0.2133
   1543  C2'        9.2170  -18.7160   -7.6890 C.3    77  DT77        0.0895
   1544  C1'        7.7920  -19.2480   -7.6090 C.3    77  DT77        0.2107
   1545  N1         7.1770  -18.9160   -6.2960 N.ar   77  DT77       -0.2559
   1546  C2         6.6340  -17.6530   -6.1480 C.ar   77  DT77        0.3545
   1547  O2         6.6730  -16.8070   -7.0240 O.2    77  DT77       -0.2443
   1548  N3         6.0420  -17.4140   -4.9320 N.ar   77  DT77       -0.1533
   1549  C4         5.9400  -18.2910   -3.8720 C.ar   77  DT77        0.2804
   1550  O4         5.3770  -17.9310   -2.8410 O.2    77  DT77       -0.2654
   1551  C5         6.5280  -19.5810   -4.1020 C.ar   77  DT77        0.0534
   1552  C6         7.1110  -19.8400   -5.2760 C.ar   77  DT77        0.0824
   1553  C7         6.4690  -20.6060   -3.0080 C.3    77  DT77        0.0377
   1554  P         12.5530  -19.1860   -6.7660 P.3    78  DT78        0.3939
   1555  OP1       13.5700  -18.6870   -5.8020 O.3    78  DT78       -0.1425
   1556  OP2       11.2670  -19.7400   -6.2590 O.3    78  DT78       -0.1496
   1557  O5'       12.2040  -18.0350   -7.8120 O.3    78  DT78       -0.2926
   1558  C5'       11.7640  -16.7660   -7.3550 C.3    78  DT78        0.1828
   1559  C4'       11.9040  -15.7240   -8.4380 C.3    78  DT78        0.1754
   1560  O4'       10.7900  -15.8320   -9.3700 O.3    78  DT78       -0.3510
   1561  C3'       11.7970  -14.3120   -7.8860 C.3    78  DT78        0.1839
   1562  O3'       13.0500  -13.8560   -7.3990 O.3    78  DT78       -0.2204
   1563  C2'       11.2490  -13.5220   -9.0660 C.3    78  DT78        0.0676
   1564  C1'       10.2870  -14.5400   -9.6800 C.3    78  DT78        0.1450
   1565  N1         9.2930  -15.2150   -6.2320 N.2    78  DT78       -0.1608
   1566  C2         8.5170  -14.3180   -5.5230 C.1    78  DT78        0.2395
   1567  O2         8.3610  -13.1600   -5.8660 O.2    78  DT78       -0.2041
   1568  N3         7.9270  -14.8280   -4.3920 N.am   78  DT78       -0.0881
   1569  C4         8.0330  -16.1160   -3.9100 C.2    78  DT78        0.2768
   1570  O4         7.4420  -16.4260   -2.8780 O.2    78  DT78       -0.2676
   1571  C5         8.8570  -16.9860   -4.7000 C.2    78  DT78        0.0541
   1572  C6         9.4420  -16.5170   -5.8050 C.2    78  DT78        0.1126
   1573  C7         9.0360  -18.4080   -4.2570 C.3    78  DT78        0.0376
@<TRIPOS>BOND
     1  1171  1170    2
     2  1152  1151    2
     3  1192  1191    2
     4  1170  1159    1
     5  1170  1172    1
     6  1170  1173    1
     7  1159  1158    1
     8  1155  1156    1
     9  1155  1154    1
    10  1151  1137    1
    11  1151  1154    1
    12  1151  1153    1
    13  1193  1191    1
    14  1191  1178    1
    15  1191  1194    1
    16  1137  1136    1
    17  1156  1158    1
    18  1156  1157    1
    19  1158  1160    1
    20  1173  1174    1
    21  1174  1175    1
    22  1178  1177    1
    23  1194  1195    1
    24  1136  1134    1
    25  1136  1138    1
    26  1195  1196    1
    27  1157  1161    1
    28  1134  1133    1
    29  1134  1135    1
    30  1133  1132    1
    31  1177  1175    1
    32  1177  1179    1
    33  1160  1161    1
    34  1175  1176    1
    35  1138  1139    1
    36  1130  1129    2
    37  1161  1162    1
    38  1208  1209   ar
    39  1208  1206   ar
    40  1135  1139    1
    41  1209  1202   ar
    42  1132  1129    1
    43  1196  1197    1
    44  1196  1198    1
    45  1197  1201    1
    46  1139  1140    1
    47  1179  1180    1
    48  1176  1180    1
    49  1129  1117    1
    50  1129  1131    1
    51  1182  1183   ar
    52  1182  1181   ar
    53  1207  1206    1
    54  1206  1205   ar
    55  1202  1201    1
    56  1202  1203   ar
    57  1117  1116    1
    58  1162  1169   ar
    59  1162  1163   ar
    60  1169  1168   ar
    61  1183  1184   ar
    62  1201  1200    1
    63  1180  1181    1
    64  1198  1200    1
    65  1198  1199    1
    66  1181  1190   ar
    67  1140  1141   ar
    68  1140  1150   ar
    69  1205  1203   ar
    70  1203  1204    2
    71  1164  1163    2
    72  1118  1116    1
    73  1118  1119    1
    74  1163  1165   ar
    75  1116  1114    1
    76  1149  1150   ar
    77  1149  1147   ar
    78  1168  1166   ar
    79  1141  1142   ar
    80  1184  1190   ar
    81  1184  1185   ar
    82  1199  1210    1
    83  1150  1143   ar
    84  1190  1189   ar
    85  1354  1353    2
    86  1226  1225    1
    87  1114  1113    1
    88  1114  1115    1
    89  1212  1210    2
    90  1148  1147    1
    91  1147  1146   ar
    92  1223  1222   ar
    93  1223  1224   ar
    94  1339  1353    1
    95  1339  1338    1
    96  1165  1166   ar
    97  1186  1185    1
    98  1166  1167    1
    99  1185  1187   ar
   100  1142  1143   ar
   101  1113  1112    1
   102  1336  1335    1
   103  1336  1338    1
   104  1336  1337    1
   105  1119  1115    1
   106  1119  1120    1
   107  1143  1144   ar
   108  1210  1211    1
   109  1210  1213    1
   110  1357  1358    1
   111  1357  1356    1
   112  1340  1338    1
   113  1340  1341    1
   114  1189  1188   ar
   115  1122  1121    2
   116  1225  1224   ar
   117  1225  1227   ar
   118  1222  1221   ar
   119  1335  1334    1
   120  1353  1356    1
   121  1353  1355    1
   122  1337  1341    1
   123  1224  1230   ar
   124  1341  1342    1
   125  1358  1359    1
   126  1358  1360    1
   127  1146  1144   ar
   128  1112  1109    1
   129  1120  1121   ar
   130  1120  1127   ar
   131  1121  1123   ar
   132   908   907    2
   133  1187  1188   ar
   134  1247  1246    2
   135  1144  1145    2
   136  1304  1303    2
   137  1110  1109    2
   138  1227  1228   ar
   139  1329  1328   ar
   140  1329  1330   ar
   141  1267  1266    1
   142  1373  1372    2
   143  1213  1214    1
   144  1361  1360    1
   145  1361  1372    1
   146  1319  1320    1
   147  1319  1317    1
   148  1320  1316    1
   149  1320  1321    1
   150  1359  1363    1
   151  1328  1327   ar
   152  1316  1315    1
   153  1221  1230   ar
   154  1221  1220    1
   155  1230  1229   ar
   156  1315  1317    1
   157  1315  1314    1
   158  1216  1220    1
   159  1216  1215    1
   160  1268  1266   ar
   161  1268  1269   ar
   162  1334  1331    1
   163  1318  1317    1
   164  1318  1331    1
   165  1360  1362    1
   166  1127  1126   ar
   167  1109  1098    1
   168  1109  1111    1
   169  1351  1352   ar
   170  1351  1349   ar
   171  1098  1097    1
   172  1123  1124   ar
   173  1342  1352   ar
   174  1342  1343   ar
   175   895   907    1
   176   895   894    1
   177  1214  1215    1
   178  1266  1265   ar
   179  1246  1245   ar
   180  1246  1248   ar
   181  1228  1229   ar
   182   888   887    2
   183  1350  1349    1
   184  1250  1248    1
   185   891   892    1
   186   891   890    1
   187   927   926    2
   188  1332  1331    2
   189  1372  1374    1
   190  1372  1375    1
   191  1303  1305   ar
   192  1303  1302   ar
   193  1220  1219    1
   194   907   910    1
   195   907   909    1
   196  1363  1362    1
   197  1363  1364    1
   198  1330  1321   ar
   199  1330  1324   ar
   200  1331  1333    1
   201  1305  1306   ar
   202  1327  1325   ar
   203   911   910    1
   204   911   912    1
   205  1321  1322   ar
   206  1352  1345   ar
   207   892   894    1
   208   892   893    1
   209  1285  1284    2
   210  1099  1097    1
   211  1099  1100    1
   212  1286  1284   ar
   213  1286  1287   ar
   214  1349  1348   ar
   215  1269  1270   ar
   216  1288  1287    1
   217  1215  1217    1
   218  1126  1124   ar
   219  1126  1128    1
   220  1314  1313    1
   221  1245  1243   ar
   222  1248  1249   ar
   223  1301  1300    1
   224  1301  1302    1
   225  1301  1297    1
   226  1124  1125    2
   227  1300  1298    1
   228  1103  1102    2
   229  1343  1344   ar
   230  1097  1095    1
   231   894   896    1
   232  1284  1283   ar
   233  1302  1309   ar
   234  1376  1375    1
   235  1376  1377    1
   236   915   926    1
   237   915   914    1
   238   875   874    1
   239  1287  1289   ar
   240   890   887    1
   241   926   928    1
   242   926   929    1
   243  1265  1264   ar
   244  1265  1271   ar
   245   887   889    2
   246   912   914    1
   247   912   913    1
   248  1371  1364   ar
   249  1371  1370   ar
   250  1324  1325   ar
   251  1324  1323   ar
   252  1364  1365   ar
   253  1325  1326    1
   254  1217  1219    1
   255  1217  1218    1
   256  1306  1307    1
   257  1306  1308   ar
   258   893   897    1
   259   896   897    1
   260  1297  1296    1
   261  1345  1344   ar
   262  1345  1346   ar
   263  1322  1323   ar
   264  1100  1101    1
   265  1100  1096    1
   266  1270  1271   ar
   267  1348  1346   ar
   268  1102  1101   ar
   269  1102  1104   ar
   270  1095  1096    1
   271  1095  1094    1
   272  1249  1242   ar
   273  1313  1310    1
   274  1243  1244    2
   275  1243  1242   ar
   276  1264  1263   ar
   277   914   916    1
   278  1271  1262   ar
   279   872   874    1
   280   872   871    1
   281   872   873    1
   282  1298  1296    1
   283  1298  1299    1
   284  1309  1308   ar
   285   874   876    1
   286  1283  1282    1
   287  1283  1290   ar
   288  1233  1231    2
   289  1101  1108   ar
   290   897   898    1
   291  1296  1295    1
   292   913   917    1
   293  1370  1368   ar
   294  1289  1290   ar
   295  1377  1378    1
   296  1377  1379    1
   297   871   870    1
   298  1299  1310    1
   299  1242  1241    1
   300   876   877    1
   301   929   930    1
   302  1346  1347    2
   303  1104  1105   ar
   304  1365  1366    2
   305  1365  1367   ar
   306  1218  1231    1
   307  1282  1281    1
   308  1282  1278    1
   309   930   931    1
   310  1094  1093    1
   311  1378  1382    1
   312  1263  1262   ar
   313  1311  1310    2
   314   916   917    1
   315   873   877    1
   316  1310  1312    1
   317  1281  1279    1
   318  1262  1261    1
   319   868   867    2
   320  1231  1234    1
   321  1231  1232    1
   322   877   878    1
   323  1108  1107   ar
   324  1391  1389    1
   325  1564  1560    1
   326  1564  1563    1
   327  1380  1379    1
   328  1380  1392    1
   329  1393  1392    2
   330  1379  1381    1
   331   917   918    1
   332  1368  1367   ar
   333  1368  1369    1
   334  1105  1107   ar
   335  1105  1106    1
   336   898   905   ar
   337   898   899   ar
   338   870   867    1
   339  1560  1559    1
   340  1295  1294    1
   341  1241  1237    1
   342  1241  1240    1
   343   905   904   ar
   344  1093  1090    1
   345  1390  1389   ar
   346  1390  1383   ar
   347  1278  1277    1
   348   949   947    2
   349  1234  1235    1
   350  1563  1561    1
   351  1237  1236    1
   352  1392  1394    1
   353  1392  1395    1
   354   948   947    1
   355  1083  1082    2
   356   925   918   ar
   357   925   924   ar
   358  1382  1383    1
   359  1382  1381    1
   360   867   854    1
   361   867   869    1
   362   931   933    1
   363   931   932    1
   364  1389  1387   ar
   365  1261  1260    1
   366  1261  1257    1
   367   900   899    2
   368  1294  1291    1
   369   918   919   ar
   370   854   853    1
   371   899   901   ar
   372  1559  1561    1
   373  1559  1558    1
   374   934   947    1
   375   934   933    1
   376  1279  1277    1
   377  1279  1280    1
   378  1383  1384   ar
   379   947   950    1
   380   880   879    2
   381   878   879   ar
   382   878   885   ar
   383   933   935    1
   384  1240  1238    1
   385  1079  1080    1
   386  1079  1077    1
   387  1235  1236    1
   388   932   936    1
   389  1395  1396    1
   390   904   906    1
   391   904   902   ar
   392  1277  1276    1
   393  1253  1251    2
   394  1236  1238    1
   395  1561  1562    1
   396  1238  1239    1
   397   924   922   ar
   398  1260  1258    1
   399  1557  1558    1
   400  1557  1554    1
   401  1539  1540    1
   402  1539  1541    1
   403  1539  1538    1
   404  1090  1091    2
   405  1090  1078    1
   406  1090  1092    1
   407  1540  1544    1
   408  1257  1256    1
   409   879   881   ar
   410  1082  1084   ar
   411  1082  1081   ar
   412  1543  1544    1
   413  1543  1541    1
   414  1280  1291    1
   415  1544  1545    1
   416   938   939   ar
   417   938   937   ar
   418  1411  1409    1
   419   885   884   ar
   420  1542  1541    1
   421  1542  1556    1
   422  1078  1077    1
   423   855   853    1
   424   855   856    1
   425  1387  1388    2
   426  1387  1386   ar
   427  1080  1081    1
   428  1080  1076    1
   429   853   851    1
   430   901   902   ar
   431   939   940   ar
   432   919   920    2
   433   919   921   ar
   434  1084  1085   ar
   435  1291  1293    2
   436  1291  1292    1
   437  1067  1066    1
   438  1254  1251    1
   439  1254  1255    1
   440  1384  1386   ar
   441  1384  1385    2
   442  1077  1075    1
   443  1547  1546    2
   444  1538  1537    1
   445  1258  1256    1
   446  1258  1259    1
   447   950   951    1
   448  1275  1276    1
   449  1275  1272    1
   450   902   903    2
   451  1081  1088   ar
   452   936   935    1
   453   936   937    1
   454  1554  1556    1
   455  1554  1555    1
   456  1251  1239    1
   457  1251  1252    1
   458  1396  1397    1
   459   937   946   ar
   460   856   852    1
   461   856   857    1
   462  1256  1255    1
   463   922   921   ar
   464   922   923    1
   465  1532  1531   ar
   466  1532  1533   ar
   467   851   852    1
   468   851   850    1
   469  1531  1530   ar
   470   881   882   ar
   471   865   864   ar
   472   865   866   ar
   473  1274  1272    2
   474   884   882   ar
   475   884   886    1
   476  1545  1546   ar
   477  1545  1552   ar
   478  1565  1572    1
   479  1565  1566    2
   480  1076  1075    1
   481  1522  1523    1
   482  1522  1520    1
   483  1409  1410   ar
   484  1409  1407   ar
   485  1075  1074    1
   486   864   863   ar
   487  1546  1548   ar
   488  1065  1066   ar
   489  1065  1063   ar
   490  1066  1068   ar
   491  1398  1397    1
   492  1398  1402    1
   493  1410  1403   ar
   494  1085  1086    2
   495  1085  1087   ar
   496   951   952    1
   497  1567  1566    2
   498  1259  1272    1
   499   940   946   ar
   500   940   941   ar
   501  1572  1571    2
   502  1272  1273    1
   503  1397  1399    1
   504  1523  1519    1
   505  1523  1524    1
   506  1537  1534    1
   507   960   959   ar
   508   960   961   ar
   509   882   883    2
   510  1510  1509   ar
   511  1510  1511   ar
   512  1088  1087   ar
   513  1566  1568   am
   514   849   850    1
   515   849   846    1
   516   946   945   ar
   517  1521  1520    1
   518  1521  1534    1
   519   959   958   ar
   520   866   857   ar
   521   866   860   ar
   522  1530  1528   ar
   523   847   846    2
   524   987   985    1
   525  1509  1507   ar
   526  1408  1407    2
   527  1552  1551   ar
   528   857   858   ar
   529   863   861   ar
   530  1533  1524   ar
   531  1533  1527   ar
   532  1407  1406   ar
   533  1064  1063    2
   534  1520  1518    1
   535  1087  1089    1
   536   942   941    1
   537  1063  1062   ar
   538  1519  1518    1
   539  1548  1549   ar
   540   343   342    2
   541  1068  1069   ar
   542  1524  1525   ar
   543  1518  1517    1
   544  1535  1534    2
   545   941   943   ar
   546  1534  1536    1
   547  1074  1073    1
   548  1511  1512   ar
   549  1402  1403    1
   550  1402  1401    1
   551   963   962    1
   552  1571  1573    1
   553  1571  1569    1
   554  1403  1404   ar
   555   952   953    1
   556   952   954    1
   557   953   957    1
   558   984   983    2
   559   846   834    1
   560   846   848    1
   561    57    56   ar
   562    57    58   ar
   563   954   955    1
   564   954   956    1
   565  1568  1569   am
   566   961   962   ar
   567   961   967   ar
   568    73    72    2
   569   860   861   ar
   570   860   859   ar
   571  1399  1400    1
   572  1399  1401    1
   573   970   968    2
   574   861   862    1
   575   945   944   ar
   576   834   833    1
   577   969   968    1
   578  1414  1412    2
   579  1528  1527   ar
   580  1528  1529    1
   581  1073  1070    1
   582   858   859   ar
   583   958   957    1
   584   958   967   ar
   585  1551  1549   ar
   586  1551  1553    1
   587  1527  1526   ar
   588    56    54   ar
   589  1428  1427    1
   590    58    59   ar
   591  1507  1508    1
   592  1507  1506   ar
   593   955   968    1
   594   962   964   ar
   595   968   971    1
   596  1406  1404   ar
   597   985   983   ar
   598   985   986   ar
   599  1569  1570    2
   600  1549  1550    2
   601  1069  1062   ar
   602  1069  1059   ar
   603  1062  1061   ar
   604  1400  1412    1
   605   983   982   ar
   606    66    70    1
   607    66    65    1
   608    70    71    1
   609    70    69    1
   610   957   956    1
   611  1404  1405    2
   612   943   944   ar
   613   342   330    1
   614   342   344    1
   615   342   345    1
   616  1517  1516    1
   617  1525  1526   ar
   618  1512  1506   ar
   619  1512  1503   ar
   620   967   966   ar
   621    72    71   ar
   622    72    74   ar
   623   330   329    1
   624   363   362    2
   625   835   833    1
   626   835   836    1
   627  1425  1426   ar
   628  1425  1424   ar
   629  1412  1413    1
   630  1412  1415    1
   631   346   345    1
   632   346   347    1
   633  1004  1003    2
   634   833   831    1
   635    71    78   ar
   636  1506  1505   ar
   637    69    67    1
   638    65    64    1
   639    65    67    1
   640   323   322    2
   641    54    55    1
   642    54    53   ar
   643    59    53   ar
   644    59    50   ar
   645  1024  1023    1
   646   986   979   ar
   647  1427  1426   ar
   648  1427  1429   ar
   649  1501  1502    1
   650  1501  1499    1
   651    74    75   ar
   652  1449  1448    2
   653  1057  1058    1
   654  1057  1055    1
   655    15    16   ar
   656    15    13   ar
   657  1045  1044    1
   658   964   965   ar
   659  1059  1058    1
   660  1059  1060   ar
   661  1070  1072    2
   662  1070  1071    1
   663  1070  1056    1
   664  1426  1432   ar
   665  1061  1060   ar
   666   326   327    1
   667   326   325    1
   668  1424  1423   ar
   669    14    13    1
   670  1007  1005    1
   671   831   830    1
   672   831   832    1
   673  1516  1513    1
   674   982   980   ar
   675  1503  1502    1
   676  1503  1504   ar
   677  1502  1498    1
   678   971   972    1
   679  1489  1488    1
   680    49    48    1
   681    49    50    1
   682    49    45    1
   683    53    52   ar
   684   327   329    1
   685   327   328    1
   686   350   362    1
   687   350   349    1
   688    64    63    1
   689  1043  1044   ar
   690  1043  1041   ar
   691   347   349    1
   692   347   348    1
   693  1058  1054    1
   694   329   331    1
   695   966   965   ar
   696    48    46    1
   697    50    51   ar
   698    16    17   ar
   699  1487  1488   ar
   700  1487  1485   ar
   701   839   838    2
   702   645   644    2
   703   836   832    1
   704   836   837    1
   705  1469  1468    2
   706    78    77   ar
   707  1415  1416    1
   708   362   365    1
   709   362   364    1
   710  1003  1005   ar
   711  1003  1002   ar
   712    67    68    1
   713    13    12   ar
   714  1429  1430   ar
   715    89    85    1
   716    89    88    1
   717    89    90    1
   718   628   629    1
   719   628   627    1
   720    32    31    2
   721   625   624    2
   722    75    77   ar
   723    75    76    1
   724  1044  1046   ar
   725  1486  1485    2
   726  1023  1025   ar
   727  1023  1022   ar
   728    85    84    1
   729  1025  1026   ar
   730   632   644    1
   731   632   631    1
   732  1505  1504   ar
   733  1452  1450    1
   734  1042  1041    2
   735   830   829    1
   736   979   980   ar
   737   979   978    1
   738  1448  1450   ar
   739  1448  1447   ar
   740   629   631    1
   741   629   630    1
   742    88    86    1
   743  1488  1490   ar
   744  1055  1056    1
   745  1055  1053    1
   746   322   325    1
   747   322   309    1
   748   322   324    1
   749    92    91    2
   750   972   973    1
   751  1005  1006   ar
   752   349   351    1
   753   104   103    1
   754   104   108    1
   755    45    44    1
   756  1499  1500    1
   757  1499  1497    1
   758    63    60    1
   759   103   102    1
   760   103   105    1
   761  1500  1513    1
   762    68    79    1
   763   612   624    1
   764   612   611    1
   765   331   332    1
   766   980   981    2
   767  1432  1423   ar
   768  1432  1431   ar
   769  1041  1040   ar
   770  1485  1484   ar
   771  1423  1422    1
   772   365   366    1
   773  1513  1515    2
   774  1513  1514    1
   775    84    86    1
   776    84    83    1
   777    33    31   ar
   778    33    34   ar
   779   108   107    1
   780   108   109    1
   781   102   101    1
   782   838   837   ar
   783   838   840   ar
   784    52    51   ar
   785   974   973    1
   786   974   978    1
   787   990   988    2
   788  1498  1497    1
   789   348   352    1
   790   837   844   ar
   791   644   646    1
   792   644   647    1
   793  1002  1000   ar
   794   328   332    1
   795    31    30   ar
   796  1468  1467   ar
   797  1468  1470   ar
   798    91    90   ar
   799    91    93   ar
   800  1416  1417    1
   801    90    97   ar
   802  1450  1451   ar
   803   107   105    1
   804    44    46    1
   805    44    43    1
   806   631   633    1
   807   609   608    1
   808   609   611    1
   809   609   610    1
   810    17    18   ar
   811  1447  1445   ar
   812  1467  1465   ar
   813  1054  1053    1
   814   309   308    1
   815    46    47    1
   816  1430  1431   ar
   817   624   627    1
   818   624   626    1
   819    35    34    2
   820  1418  1422    1
   821  1418  1417    1
   822   630   634    1
   823    47    60    1
   824    86    87    1
   825    87    98    1
   826   366   367    1
   827   973   975    1
   828   978   977    1
   829    12    18   ar
   830    12    11   ar
   831  1497  1496    1
   832  1026  1027   ar
   833  1022  1021   ar
   834  1022  1028   ar
   835   829   826    1
   836   608   607    1
   837   611   613    1
   838   613   614    1
   839   332   333    1
   840  1046  1047   ar
   841   105   106    1
   842  1053  1052    1
   843   106   119    1
   844    83    82    1
   845    34    36   ar
   846    93    94   ar
   847    97    96   ar
   848   351   352    1
   849  1021  1020   ar
   850  1006   999   ar
   851    80    79    2
   852   633   634    1
   853   975   977    1
   854   975   976    1
   855  1422  1421    1
   856  1490  1491   ar
   857   840   841   ar
   858    79    82    1
   859    79    81    1
   860    18     9   ar
   861   610   614    1
   862   109   118   ar
   863   109   110   ar
   864  1417  1419    1
   865   844   843   ar
   866  1040  1047   ar
   867  1040  1039    1
   868   648   647    1
   869   648   649    1
   870   117   118   ar
   871   117   116   ar
   872   101    98    1
   873  1484  1491   ar
   874  1484  1483    1
   875   352   353    1
   876   634   635    1
   877   614   615    1
   878    99    98    2
   879    98   100    1
   880  1435  1433    2
   881  1472  1470    1
   882   988   976    1
   883   988   989    1
   884   988   991    1
   885  1470  1471   ar
   886    60    61    2
   887    60    62    1
   888  1000   999   ar
   889  1000  1001    2
   890    30    29    1
   891    30    37   ar
   892  1465  1466    2
   893  1465  1464   ar
   894  1451  1444   ar
   895    94    96   ar
   896    94    95    1
   897   310   308    1
   898   310   311    1
   899   384   383    1
   900   384   370    1
   901    43    42    1
   902   118   112   ar
   903  1445  1444   ar
   904  1445  1446    2
   905    11    10   ar
   906   308   306    1
   907  1419  1421    1
   908  1419  1420    1
   909   120   119    2
   910    28    29    1
   911    28    26    1
   912  1028  1027   ar
   913  1028  1019   ar
   914   827   826    2
   915   110   111   ar
   916   999   998    1
   917   605   604    2
   918   360   353   ar
   919   360   359   ar
   920   116   115   ar
   921    29    25    1
   922   123   124    1
   923   123   122    1
   924   333   340   ar
   925   333   334   ar
   926   607   604    1
   927   826   814    1
   928   826   828    1
   929   367   369    1
   930   367   368    1
   931   125   124    1
   932   125   129    1
   933  1496  1495    1
   934  1052  1051    1
   935  1051  1048    1
   936   124   126    1
   937   841   843   ar
   938   841   842    2
   939  1483  1482    1
   940  1483  1479    1
   941   843   845    1
   942  1039  1038    1
   943  1039  1035    1
   944    36    37   ar
   945    36    38    1
   946  1038  1036    1
   947   119   122    1
   948   119   121    1
   949   306   305    1
   950   306   307    1
   951  1444  1443    1
   952  1020  1019   ar
   953   385   383    1
   954   353   354   ar
   955   991   992    1
   956  1482  1480    1
   957   383   386    1
   958   370   369    1
   959   340   339   ar
   960    42    39    1
   961     9    10   ar
   962     9     8    1
   963   361   359    1
   964  1495  1492    1
   965   617   616    2
   966   649   650    1
   967   649   651    1
   968   666   665    2
   969   369   371    1
   970  1471  1464   ar
   971   335   334    2
   972   112   111   ar
   973   112   113   ar
   974  1464  1463    1
   975   635   642   ar
   976   635   636   ar
   977  1433  1420    1
   978  1433  1436    1
   979  1433  1434    1
   980   311   307    1
   981   311   312    1
   982   604   593    1
   983   604   606    1
   984   615   616   ar
   985   615   622   ar
   986   129   128    1
   987   129   130    1
   988  1019  1018    1
   989   368   372    1
   990   359   357   ar
   991   334   336   ar
   992   814   813    1
   993   667   665    1
   994   115   113   ar
   995  1050  1048    2
   996   652   665    1
   997   652   651    1
   998   305   304    1
   999   642   641   ar
  1000    26    27    1
  1001    26    24    1
  1002   320   319   ar
  1003   320   321   ar
  1004   815   813    1
  1005   815   816    1
  1006   598   597    2
  1007   405   404    2
  1008   616   618   ar
  1009  1036  1037    1
  1010  1036  1034    1
  1011   594   595    1
  1012   594   592    1
  1013   593   592    1
  1014   665   668    1
  1015    25    24    1
  1016  1436  1437    1
  1017   637   636    2
  1018   650   654    1
  1019   113   114    1
  1020   374   375   ar
  1021   374   373   ar
  1022   128   126    1
  1023   998   994    1
  1024   998   997    1
  1025   126   127    1
  1026   459   458    2
  1027     8     7    1
  1028     8     4    1
  1029  1048  1037    1
  1030  1048  1049    1
  1031   651   653    1
  1032    27    39    1
  1033  1479  1478    1
  1034   127   141    1
  1035  1035  1034    1
  1036   339   341    1
  1037   339   337   ar
  1038  1010  1008    2
  1039  1480  1481    1
  1040  1480  1478    1
  1041   354   355    2
  1042   354   356   ar
  1043   622   621   ar
  1044   636   638   ar
  1045   994   993    1
  1046   319   318   ar
  1047   992   993    1
  1048   406   404    1
  1049  1443  1439    1
  1050  1443  1442    1
  1051   819   818    2
  1052   130   131   ar
  1053   130   140   ar
  1054   813   811    1
  1055   997   995    1
  1056   386   387    1
  1057   312   321   ar
  1058   312   313   ar
  1059    39    40    2
  1060    39    41    1
  1061   375   376   ar
  1062   595   591    1
  1063   595   596    1
  1064   131   132   ar
  1065  1492  1494    2
  1066  1492  1481    1
  1067  1492  1493    1
  1068  1463  1462    1
  1069  1463  1459    1
  1070     7     5    1
  1071   995   993    1
  1072   995   996    1
  1073    24    23    1
  1074   321   315   ar
  1075   372   371    1
  1076   372   373    1
  1077   592   590    1
  1078   336   337   ar
  1079  1031  1029    2
  1080  1439  1438    1
  1081   404   407    1
  1082   404   391    1
  1083   357   356   ar
  1084   357   358    1
  1085  1018  1017    1
  1086  1018  1014    1
  1087  1034  1033    1
  1088   304   301    1
  1089   373   382   ar
  1090  1455  1453    2
  1091   145   144    1
  1092   145   146    1
  1093   641   643    1
  1094   641   639   ar
  1095   590   591    1
  1096   590   589    1
  1097   816   817    1
  1098   816   812    1
  1099   423   421    1
  1100  1442  1440    1
  1101  1478  1477    1
  1102   597   596   ar
  1103   597   599   ar
  1104  1032  1029    1
  1105  1032  1033    1
  1106  1462  1460    1
  1107   337   338    1
  1108     4     3    1
  1109   818   817   ar
  1110   818   820   ar
  1111  1017  1015    1
  1112   458   460   ar
  1113   458   457   ar
  1114   478   477    2
  1115  1437  1438    1
  1116   618   619   ar
  1117   144   141    1
  1118   387   388    1
  1119   140   139   ar
  1120   140   133   ar
  1121   654   653    1
  1122   654   655    1
  1123  1475  1473    2
  1124   141   142    2
  1125   141   143    1
  1126   440   439    1
  1127  1011  1008    1
  1128  1011  1012    1
  1129   318   316   ar
  1130   656   655   ar
  1131   656   657   ar
  1132   668   669    1
  1133   132   133   ar
  1134  1440  1438    1
  1135  1440  1441    1
  1136   139   137   ar
  1137   460   461   ar
  1138   811   812    1
  1139   811   810    1
  1140   596   603   ar
  1141  1459  1458    1
  1142  1008   996    1
  1143  1008  1009    1
  1144   621   619   ar
  1145   621   623    1
  1146   638   639   ar
  1147   302   301    2
  1148   313   314   ar
  1149   407   408    1
  1150  1014  1013    1
  1151  1015  1013    1
  1152  1015  1016    1
  1153   817   824   ar
  1154   820   821   ar
  1155   358   338    1
  1156  1029  1016    1
  1157  1029  1030    1
  1158     5     3    1
  1159     5     6    1
  1160   376   382   ar
  1161   376   377   ar
  1162   391   390    1
  1163   479   477    1
  1164   479   480    2
  1165   315   316   ar
  1166   315   314   ar
  1167   599   600   ar
  1168  1460  1458    1
  1169  1460  1461    1
  1170  1476  1477    1
  1171  1476  1473    1
  1172   133   134   ar
  1173   146   147    1
  1174   146   148    1
  1175  1456  1453    1
  1176  1456  1457    1
  1177   655   664   ar
  1178   639   640    2
  1179    23    22    1
  1180   147   151    1
  1181   669   670    1
  1182   396   395   ar
  1183   396   397   ar
  1184   298   299   ar
  1185   298   297   ar
  1186   477   476   am
  1187   382   381   ar
  1188   301   288    1
  1189   301   303    1
  1190   619   620    2
  1191   684   682    1
  1192   589   588    1
  1193   288   287    1
  1194   395   394   ar
  1195   390   388    1
  1196   390   392    1
  1197   289   287    1
  1198   289   290    1
  1199  1453  1441    1
  1200  1453  1454    1
  1201   299   300   ar
  1202     3     2    1
  1203   316   317    1
  1204   421   419   ar
  1205   421   422   ar
  1206    22    19    1
  1207   420   419    2
  1208   457   456   ar
  1209   457   464   ar
  1210   657   658   ar
  1211   408   409    1
  1212   426   424    2
  1213  1013  1012    1
  1214  1473  1461    1
  1215  1473  1474    1
  1216   137   138    1
  1217   137   136   ar
  1218   456   455   ar
  1219   388   389    1
  1220   579   578    2
  1221  1458  1457    1
  1222   481   480    1
  1223   439   441   ar
  1224   439   438   ar
  1225   824   823   ar
  1226   821   822    2
  1227   821   823   ar
  1228   441   442   ar
  1229   810   809    1
  1230     2     1    1
  1231   461   462    1
  1232   461   463   ar
  1233    21    19    2
  1234   603   602   ar
  1235   419   418   ar
  1236   378   377    1
  1237   480   482    1
  1238   297   295   ar
  1239     6    19    1
  1240   422   415   ar
  1241   377   379   ar
  1242   134   136   ar
  1243   134   135    2
  1244   287   285    1
  1245   687   685    2
  1246   823   825    1
  1247   399   398    1
  1248   600   602   ar
  1249   600   601    1
  1250   809   806    1
  1251   381   380   ar
  1252   500   499    1
  1253   389   393    1
  1254   397   398   ar
  1255   397   403   ar
  1256   151   152    1
  1257   151   150    1
  1258   664   658   ar
  1259   664   663   ar
  1260   148   149    1
  1261   148   150    1
  1262   588   585    1
  1263   300   291   ar
  1264   300   294   ar
  1265   476   483    1
  1266   476   475    1
  1267    19    20    1
  1268   290   291    1
  1269   290   286    1
  1270   562   563   ar
  1271   562   560   ar
  1272   394   393    1
  1273   394   403   ar
  1274   686   685    1
  1275   563   564   ar
  1276   658   659   ar
  1277   682   683   ar
  1278   682   680   ar
  1279   670   671    1
  1280   670   672    1
  1281   464   463   ar
  1282   464   454   ar
  1283   392   393    1
  1284   159   152   ar
  1285   159   158   ar
  1286   149   160    1
  1287   438   436   ar
  1288   578   580   ar
  1289   578   577   ar
  1290   424   425    1
  1291   424   412    1
  1292   424   427    1
  1293   409   411    1
  1294   409   410    1
  1295   455   454   ar
  1296   411   412    1
  1297   411   413    1
  1298   683   676   ar
  1299   807   806    2
  1300   685   673    1
  1301   685   688    1
  1302   398   400   ar
  1303   442   435   ar
  1304   291   292   ar
  1305   580   581   ar
  1306   152   153   ar
  1307   295   294   ar
  1308   295   296    1
  1309   671   675    1
  1310   418   416   ar
  1311   285   286    1
  1312   285   284    1
  1313   410   414    1
  1314   415   416   ar
  1315   415   414    1
  1316   575   576    1
  1317   575   573    1
  1318   806   808    1
  1319   806   795    1
  1320   379   380   ar
  1321   482   483    1
  1322   158   156   ar
  1323   403   402   ar
  1324   672   673    1
  1325   672   674    1
  1326   294   293   ar
  1327   663   662   ar
  1328   483   475    1
  1329   474   475    1
  1330   474   472    1
  1331   454   453    1
  1332   576   577    1
  1333   576   572    1
  1334   475   471    1
  1335   681   680    2
  1336   561   560    1
  1337   564   565   ar
  1338   427   428    1
  1339   560   559   ar
  1340   499   498   ar
  1341   499   501   ar
  1342   485   484    2
  1343   680   679   ar
  1344   416   417    2
  1345   497   498   ar
  1346   497   496   ar
  1347   577   584   ar
  1348   160   161    2
  1349   160   162    1
  1350   160   163    1
  1351   585   586    2
  1352   585   574    1
  1353   585   587    1
  1354   436   435   ar
  1355   436   437    2
  1356   414   413    1
  1357   521   520    2
  1358   659   660    1
  1359   659   661   ar
  1360   153   154    2
  1361   153   155   ar
  1362   435   434    1
  1363   676   675    1
  1364   676   677   ar
  1365   292   293   ar
  1366   800   799    2
  1367   400   401   ar
  1368   581   582    1
  1369   581   583   ar
  1370   156   155   ar
  1371   156   157    1
  1372   284   283    1
  1373   498   504   ar
  1374   675   674    1
  1375   471   470    1
  1376   486   484    1
  1377   801   799   ar
  1378   801   802   ar
  1379   574   573    1
  1380   688   689    1
  1381   274   273    2
  1382   795   794    1
  1383   445   443    2
  1384   501   502   ar
  1385   573   571    1
  1386   662   661   ar
  1387   402   401   ar
  1388   803   802    1
  1389   484   473    1
  1390   484   487    1
  1391   799   798   ar
  1392   163   164    1
  1393   473   472    1
  1394   565   559   ar
  1395   565   556   ar
  1396   164   165    1
  1397   796   794    1
  1398   796   797    1
  1399   572   571    1
  1400   453   452    1
  1401   453   449    1
  1402   179   177    1
  1403   472   470    1
  1404   496   495   ar
  1405   470   469    1
  1406   698   697   ar
  1407   698   699   ar
  1408   559   558   ar
  1409   802   804   ar
  1410   679   677   ar
  1411   794   792    1
  1412   275   273   ar
  1413   275   276   ar
  1414   283   280    1
  1415   428   429    1
  1416   584   583   ar
  1417   520   519   ar
  1418   520   522   ar
  1419   701   700    1
  1420   541   540    2
  1421   467   465    2
  1422   677   678    2
  1423   571   570    1
  1424   741   740    1
  1425   273   272   ar
  1426   452   450    1
  1427   697   696   ar
  1428   430   434    1
  1429   430   429    1
  1430   434   433    1
  1431   689   690    1
  1432   431   429    1
  1433   431   433    1
  1434   431   432    1
  1435   524   522    1
  1436   798   797    1
  1437   798   805   ar
  1438   449   448    1
  1439   722   721    1
  1440   519   517   ar
  1441   277   276    1
  1442   504   495   ar
  1443   504   503   ar
  1444   443   444    1
  1445   443   432    1
  1446   443   446    1
  1447   166   165    1
  1448   166   170    1
  1449   804   805   ar
  1450   539   540   ar
  1451   539   537   ar
  1452   502   503   ar
  1453   177   178   ar
  1454   177   175   ar
  1455   450   448    1
  1456   450   451    1
  1457   276   278   ar
  1458   178   171   ar
  1459   522   523   ar
  1460   797   793    1
  1461   699   700   ar
  1462   699   705   ar
  1463   165   167    1
  1464   495   494    1
  1465   556   555    1
  1466   556   557   ar
  1467   540   542   ar
  1468   487   488    1
  1469   700   702   ar
  1470   196   195    2
  1471   558   557   ar
  1472   270   271    1
  1473   270   268    1
  1474   469   468    1
  1475   199   197    1
  1476   708   706    2
  1477   555   554    1
  1478   555   551    1
  1479   538   537    2
  1480   448   447    1
  1481   272   271    1
  1482   272   279   ar
  1483   447   446    1
  1484   792   793    1
  1485   792   791    1
  1486   740   739   ar
  1487   740   742   ar
  1488   465   468    1
  1489   465   466    1
  1490   465   451    1
  1491   488   489    1
  1492   554   552    1
  1493   280   281    2
  1494   280   269    1
  1495   280   282    1
  1496   176   175    2
  1497   175   174   ar
  1498   784   783    1
  1499   537   536   ar
  1500   696   705   ar
  1501   696   695    1
  1502   570   569    1
  1503   781   780    2
  1504   782   783   ar
  1505   782   780   ar
  1506   690   691    1
  1507   690   692    1
  1508   691   695    1
  1509   271   267    1
  1510   721   723   ar
  1511   721   720   ar
  1512   739   737   ar
  1513   171   170    1
  1514   171   172   ar
  1515   490   494    1
  1516   490   489    1
  1517   517   518    2
  1518   517   516   ar
  1519   723   724   ar
  1520   170   169    1
  1521   791   790    1
  1522   216   215    1
  1523   705   704   ar
  1524   269   268    1
  1525   254   253    2
  1526   278   279   ar
  1527   523   516   ar
  1528   195   197   ar
  1529   195   194   ar
  1530   268   266    1
  1531   167   168    1
  1532   167   169    1
  1533   790   787    1
  1534   783   785   ar
  1535   780   779   ar
  1536   494   493    1
  1537   692   693    1
  1538   692   694    1
  1539   255   253   ar
  1540   255   256   ar
  1541   702   703   ar
  1542   569   566    1
  1543   182   180    2
  1544   197   198   ar
  1545   542   544    1
  1546   542   543   ar
  1547   257   256    2
  1548   742   743   ar
  1549   489   491    1
  1550   174   172   ar
  1551   695   694    1
  1552   551   550    1
  1553   516   515    1
  1554   706   693    1
  1555   706   707    1
  1556   706   709    1
  1557   237   236    2
  1558   172   173    2
  1559   253   252   ar
  1560   720   718   ar
  1561   168   180    1
  1562   491   493    1
  1563   491   492    1
  1564   536   543   ar
  1565   536   535    1
  1566   256   258   ar
  1567   552   550    1
  1568   552   553    1
  1569   737   738    2
  1570   737   736   ar
  1571   785   786   ar
  1572   724   717   ar
  1573   267   266    1
  1574   789   787    2
  1575   215   217   ar
  1576   215   214   ar
  1577   779   786   ar
  1578   779   778   ar
  1579   217   218   ar
  1580   194   192   ar
  1581   704   703   ar
  1582   266   265    1
  1583   180   181    1
  1584   180   183    1
  1585   787   788    1
  1586   787   773    1
  1587   235   236   ar
  1588   235   233   ar
  1589   550   549    1
  1590   553   566    1
  1591   198   191   ar
  1592   786   776   ar
  1593   236   238   ar
  1594   709   710    1
  1595   743   736   ar
  1596   566   568    2
  1597   566   567    1
  1598   507   505    2
  1599   760   759    1
  1600   778   777   ar
  1601   515   511    1
  1602   515   514    1
  1603   736   735    1
  1604   492   505    1
  1605   718   717   ar
  1606   718   719    2
  1607   535   534    1
  1608   535   531    1
  1609   252   251    1
  1610   252   259   ar
  1611   717   716    1
  1612   234   233    2
  1613   218   219   ar
  1614   258   259   ar
  1615   258   260    1
  1616   214   213   ar
  1617   214   220   ar
  1618   761   759   ar
  1619   761   762   ar
  1620   534   532    1
  1621   183   184    1
  1622   192   191   ar
  1623   192   193    2
  1624   233   232   ar
  1625   774   772    1
  1626   774   775    1
  1627   776   777   ar
  1628   776   775    1
  1629   511   510    1
  1630   191   190    1
  1631   264   265    1
  1632   264   261    1
  1633   250   251    1
  1634   250   248    1
  1635   759   758   ar
  1636   213   212   ar
  1637   251   247    1
  1638   514   512    1
  1639   727   725    2
  1640   773   772    1
  1641   549   548    1
  1642   505   508    1
  1643   505   506    1
  1644   508   509    1
  1645   548   545    1
  1646   238   240    1
  1647   238   239   ar
  1648   772   770    1
  1649   710   711    1
  1650   762   763   ar
  1651   531   530    1
  1652   775   771    1
  1653   527   525    2
  1654   712   716    1
  1655   712   711    1
  1656   532   530    1
  1657   532   533    1
  1658   220   219   ar
  1659   220   211   ar
  1660   263   261    2
  1661   512   510    1
  1662   512   513    1
  1663   735   734    1
  1664   735   731    1
  1665   735   757    1
  1666   716   715    1
  1667   184   185    1
  1668   186   190    1
  1669   186   185    1
  1670   232   239   ar
  1671   232   231    1
  1672   510   509    1
  1673   758   757    1
  1674   758   764   ar
  1675   767   765    2
  1676   711   713    1
  1677   190   189    1
  1678   248   249    1
  1679   248   246    1
  1680   261   249    1
  1681   261   262    1
  1682   713   715    1
  1683   713   714    1
  1684   212   211   ar
  1685   547   545    2
  1686   247   246    1
  1687   734   732    1
  1688   728   725    1
  1689   728   729    1
  1690   731   730    1
  1691   545   533    1
  1692   545   546    1
  1693   725   714    1
  1694   725   726    1
  1695   530   529    1
  1696   763   764   ar
  1697   768   765    1
  1698   768   769    1
  1699   757   756    1
  1700   770   771    1
  1701   770   769    1
  1702   185   187    1
  1703   764   755    1
  1704   211   210    1
  1705   746   744    2
  1706   525   513    1
  1707   525   528    1
  1708   525   526    1
  1709   732   730    1
  1710   732   733    1
  1711   187   189    1
  1712   187   188    1
  1713   765   766    1
  1714   765   752    1
  1715   231   230    1
  1716   231   227    1
  1717   202   200    2
  1718   246   245    1
  1719   529   528    1
  1720   230   228    1
  1721   730   729    1
  1722   756   755    1
  1723   755   754    1
  1724   744   733    1
  1725   744   747    1
  1726   744   745    1
  1727   244   245    1
  1728   244   241    1
  1729   210   206    1
  1730   210   209    1
  1731   188   200    1
  1732   227   226    1
  1733   747   748    1
  1734   753   751    1
  1735   753   754    1
  1736   751   752    1
  1737   751   749    1
  1738   243   241    2
  1739   200   203    1
  1740   200   201    1
  1741   228   226    1
  1742   228   229    1
  1743   206   205    1
  1744   203   204    1
  1745   754   750    1
  1746   209   207    1
  1747   241   229    1
  1748   241   242    1
  1749   226   225    1
  1750   207   205    1
  1751   207   208    1
  1752   223   221    2
  1753   224   225    1
  1754   224   221    1
  1755   749   748    1
  1756   749   750    1
  1757   205   204    1
  1758   221   208    1
  1759   221   222    1
