@<TRIPOS>MOLECULE
dna.pdb
 1463 1640 0 0 0
SMALL
GASTEIGER

@<TRIPOS>ATOM
      1  O5'        0.5560   -2.9800    6.8070 O.3     1  DA1        -0.2176
      2  C5'       -0.0060   -2.3920    7.9920 C.3     1  DA1         0.2141
      3  C4'        0.9910   -2.4210    9.1340 C.3     1  DA1         0.1804
      4  O4'        2.1880   -1.6810    8.7820 O.3     1  DA1        -0.3325
      5  C3'        0.4700   -1.7450   10.3880 C.3     1  DA1         0.1865
      6  O3'       -0.2560   -2.6910   11.1620 O.3     1  DA1        -0.2133
      7  C2'        1.7420   -1.2850   11.0770 C.3     1  DA1         0.0894
      8  C1'        2.6090   -0.8900    9.8810 C.3     1  DA1         0.2095
      9  N9         2.5020    0.4270    9.3340 N.ar    1  DA1        -0.2714
     10  C8         1.8780    0.9020    8.2100 C.ar    1  DA1         0.1815
     11  N7         1.7650    2.2090    8.1800 N.ar    1  DA1        -0.2193
     12  C5         2.3540    2.6200    9.3650 C.ar    1  DA1         0.1518
     13  C6         2.5550    3.8920    9.9300 C.ar    1  DA1         0.1919
     14  N6         2.1680    5.0290    9.3480 N.pl3   1  DA1        -0.1054
     15  N1         3.1750    3.9540   11.1270 N.ar    1  DA1        -0.2040
     16  C2         3.5640    2.8140   11.7100 C.ar    1  DA1         0.2016
     17  N3         3.4320    1.5620   11.2780 N.ar    1  DA1        -0.2048
     18  C4         2.8110    1.5340   10.0870 C.ar    1  DA1         0.1691
     19  P         -1.8160   -2.2080   12.0450 P.3     2  DT2         0.3939
     20  OP1       -2.0920   -2.9950   13.2680 O.3     2  DT2        -0.1425
     21  OP2       -1.6100   -2.9070   10.7570 O.3     2  DT2        -0.1496
     22  O5'       -2.9940   -1.1410   11.8670 O.3     2  DT2        -0.2926
     23  C5'       -2.7330    0.1360   11.2940 C.3     2  DT2         0.1829
     24  C4'       -4.0330    0.8440   10.9540 C.3     2  DT2         0.1775
     25  O4'       -4.2640    0.7730    9.5260 O.3     2  DT2        -0.3326
     26  C3'       -5.2750    0.2300   11.5860 C.3     2  DT2         0.1864
     27  O3'       -5.5070    0.7610   12.8860 O.3     2  DT2        -0.2133
     28  C2'       -6.3660    0.6410   10.6000 C.3     2  DT2         0.0895
     29  C1'       -5.6330    0.5110    9.2710 C.3     2  DT2         0.2107
     30  N1        -5.8070   -0.8160    8.6050 N.ar    2  DT2        -0.2559
     31  C2        -7.0200   -0.9910    7.9670 C.ar    2  DT2         0.3545
     32  O2        -7.8460   -0.1020    7.8560 O.2     2  DT2        -0.2443
     33  N3        -7.2350   -2.2500    7.4620 N.ar    2  DT2        -0.1533
     34  C4        -6.3770   -3.3280    7.5290 C.ar    2  DT2         0.2804
     35  O4        -6.7110   -4.3990    7.0270 O.2     2  DT2        -0.2654
     36  C5        -5.1390   -3.0670    8.2070 C.ar    2  DT2         0.0534
     37  C6        -4.9040   -1.8510    8.7080 C.ar    2  DT2         0.0824
     38  C7        -4.1390   -4.1780    8.3330 C.3     2  DT2         0.0377
     39  P         -6.0510   -0.1410   13.9650 P.3     3  DC3         0.3939
     40  OP1       -6.2250   -0.9000   15.2270 O.3     3  DC3        -0.1425
     41  OP2       -5.0190   -0.5910   12.9790 O.3     3  DC3        -0.1496
     42  O5'       -7.4890   -0.0990   13.2540 O.3     3  DC3        -0.2926
     43  C5'       -8.0900    1.1850   13.1930 C.3     3  DC3         0.1828
     44  C4'       -9.3810    1.1460   12.4460 C.3     3  DC3         0.1747
     45  O4'       -9.1190    0.5390   11.1590 O.3     3  DC3        -0.3327
     46  C3'      -10.4350    0.2670   13.1030 C.3     3  DC3         0.1558
     47  O3'      -11.1260    0.9130   14.1790 O.3     3  DC3        -0.3138
     48  C2'      -11.3220    0.0710   11.8910 C.3     3  DC3         0.0866
     49  C1'      -10.2720   -0.1810   10.7900 C.3     3  DC3         0.2106
     50  N1        -9.9690   -1.5980   10.4740 N.ar    3  DC3        -0.2556
     51  C2       -10.7900   -2.3520    9.6270 C.ar    3  DC3         0.3531
     52  O2       -11.8340   -1.8370    9.1920 O.2     3  DC3        -0.2443
     53  N3       -10.4240   -3.6170    9.3090 N.ar    3  DC3        -0.1739
     54  C4        -9.2960   -4.1290    9.8010 C.ar    3  DC3         0.1759
     55  N4        -8.9760   -5.3790    9.4590 N.pl3   3  DC3        -0.1070
     56  C5        -8.4500   -3.3810   10.6600 C.ar    3  DC3         0.0566
     57  C6        -8.8150   -2.1330   10.9720 C.ar    3  DC3         0.0849
     58  P        -11.4830    0.1510   15.0340 P.3     4  DC4         0.2141
     59  OP1      -11.8620    1.0990   16.1140 O.3     4  DC4        -0.4373
     60  OP2      -10.7520   -1.1040   15.3680 O.2     4  DC4        -0.5172
     61  O5'      -12.8120   -0.2450   14.2500 O.3     4  DC4        -0.3114
     62  C5'      -13.7450    0.7650   13.8160 C.3     4  DC4         0.1811
     63  C4'      -14.9500    0.1190   13.1780 C.3     4  DC4         0.1746
     64  O4'      -14.5580   -0.5260   11.9400 O.3     4  DC4        -0.3327
     65  C3'      -15.5940   -0.9880   13.9970 C.3     4  DC4         0.1558
     66  O3'      -16.5140   -0.4820   14.9490 O.3     4  DC4        -0.3138
     67  C2'      -16.2720   -1.8460   12.9410 C.3     4  DC4         0.0866
     68  C1'      -15.2960   -1.7250   11.7710 C.3     4  DC4         0.2106
     69  N1       -14.3430   -2.8550   11.7400 N.ar    4  DC4        -0.2556
     70  C2       -14.7800   -4.0460   11.1510 C.ar    4  DC4         0.3531
     71  O2       -15.8920   -4.0660   10.5950 O.2     4  DC4        -0.2443
     72  N3       -13.9820   -5.1400   11.2040 N.ar    4  DC4        -0.1739
     73  C4       -12.7970   -5.0720   11.8120 C.ar    4  DC4         0.1759
     74  N4       -12.0460   -6.1750   11.8390 N.pl3   4  DC4        -0.1070
     75  C5       -12.3360   -3.8740   12.4150 C.ar    4  DC4         0.0566
     76  C6       -13.1270   -2.7970   12.3600 C.ar    4  DC4         0.0849
     77  P        -17.3630   -1.7270   16.0340 P.3     5  DG5         0.2141
     78  OP1      -18.3840   -0.8900   16.6980 O.2     5  DG5        -0.5172
     79  OP2      -16.2870   -2.3540   16.8390 O.3     5  DG5        -0.4373
     80  O5'      -18.1320   -2.8620   15.2010 O.3     5  DG5        -0.3114
     81  C5'      -19.4420   -2.6190   14.6950 C.3     5  DG5         0.1811
     82  C4'      -19.9570   -3.7920   13.8770 C.3     5  DG5         0.1746
     83  O4'      -19.0100   -4.1060   12.8250 O.3     5  DG5        -0.3327
     84  C3'      -20.1320   -5.1010   14.6330 C.3     5  DG5         0.1558
     85  O3'      -21.4040   -5.1510   15.2580 O.3     5  DG5        -0.3138
     86  C2'      -20.0410   -6.1150   13.5000 C.3     5  DG5         0.0865
     87  C1'      -18.9220   -5.5100   12.6640 C.3     5  DG5         0.2094
     88  N9       -17.6410   -5.9420   13.0530 N.ar    5  DG5        -0.2713
     89  C8       -16.7430   -5.2730   13.8490 C.ar    5  DG5         0.1816
     90  N7       -15.6450   -5.9450   14.0650 N.ar    5  DG5        -0.2173
     91  C5       -15.8240   -7.1260   13.3700 C.ar    5  DG5         0.1748
     92  C6       -14.9720   -8.2530   13.2300 C.ar    5  DG5         0.3023
     93  O6       -13.8470   -8.4280   13.7150 O.2     5  DG5        -0.2633
     94  N1       -15.5440   -9.2420   12.4350 N.ar    5  DG5        -0.1709
     95  C2       -16.7830   -9.1560   11.8460 C.ar    5  DG5         0.2606
     96  N2       -17.1630  -10.2110   11.1130 N.pl3   5  DG5        -0.0859
     97  N3       -17.5850   -8.1170   11.9680 N.ar    5  DG5        -0.1918
     98  C4       -17.0510   -7.1440   12.7370 C.ar    5  DG5         0.1722
     99  P        -21.4950   -5.8020   16.5030 P.3     6  DT6         0.2141
    100  OP1      -22.9120   -5.5970   16.8780 O.2     6  DT6        -0.5172
    101  OP2      -20.4700   -5.7160   17.5730 O.3     6  DT6        -0.4373
    102  O5'      -21.4020   -7.2120   15.7450 O.3     6  DT6        -0.3114
    103  C5'      -22.6200   -7.5590   15.0800 C.3     6  DT6         0.1811
    104  C4'      -22.4880   -8.7230   14.1580 C.3     6  DT6         0.1746
    105  O4'      -21.3410   -8.5100   13.3310 O.3     6  DT6        -0.3327
    106  C3'      -22.1950  -10.0340   14.8450 C.3     6  DT6         0.1558
    107  O3'      -23.2980  -10.6590   15.5500 O.3     6  DT6        -0.3138
    108  C2'      -21.5110  -10.8360   13.7660 C.3     6  DT6         0.0866
    109  C1'      -20.7210   -9.7800   13.0770 C.3     6  DT6         0.2106
    110  N1       -19.3480   -9.8460   13.5170 N.ar    6  DT6        -0.2559
    111  C2       -18.4690  -10.7870   13.0150 C.ar    6  DT6         0.3545
    112  O2       -18.7970  -11.6340   12.2030 O.2     6  DT6        -0.2443
    113  N3       -17.1870  -10.7030   13.5010 N.ar    6  DT6        -0.1533
    114  C4       -16.7050   -9.7920   14.4180 C.ar    6  DT6         0.2804
    115  O4       -15.5260   -9.8410   14.7570 O.2     6  DT6        -0.2654
    116  C5       -17.6780   -8.8490   14.8930 C.ar    6  DT6         0.0534
    117  C6       -18.9320   -8.9080   14.4370 C.ar    6  DT6         0.0824
    118  C7       -17.2510   -7.8170   15.8950 C.3     6  DT6         0.0377
    119  P        -23.1510  -11.4290   17.2310 P.3     7  DC7         0.2141
    120  OP1      -24.4250  -11.8630   17.8410 O.2     7  DC7        -0.5172
    121  OP2      -22.0550  -10.8840   18.0600 O.3     7  DC7        -0.4373
    122  O5'      -22.4850  -12.7160   16.5560 O.3     7  DC7        -0.3114
    123  C5'      -23.2600  -13.6170   15.7770 C.3     7  DC7         0.1811
    124  C4'      -22.4010  -14.6360   15.0650 C.3     7  DC7         0.1746
    125  O4'      -21.3420  -14.0110   14.2870 O.3     7  DC7        -0.3327
    126  C3'      -21.6260  -15.5690   15.9690 C.3     7  DC7         0.1558
    127  O3'      -22.4410  -16.5390   16.5880 O.3     7  DC7        -0.3138
    128  C2'      -20.6000  -16.1380   15.0070 C.3     7  DC7         0.0866
    129  C1'      -20.2140  -14.8660   14.2540 C.3     7  DC7         0.2106
    130  N1       -19.0690  -14.1480   14.9380 N.ar    7  DC7        -0.2556
    131  C2       -17.7490  -14.5320   14.6710 C.ar    7  DC7         0.3531
    132  O2       -17.5490  -15.5260   13.9530 O.2     7  DC7        -0.2443
    133  N3       -16.7330  -13.8120   15.2040 N.ar    7  DC7        -0.1739
    134  C4       -16.9950  -12.7530   15.9700 C.ar    7  DC7         0.1759
    135  N4       -15.9610  -12.0740   16.4730 N.pl3   7  DC7        -0.1070
    136  C5       -18.3250  -12.3480   16.2520 C.ar    7  DC7         0.0566
    137  C6       -19.3260  -13.0610   15.7240 C.ar    7  DC7         0.0849
    138  P        -22.3620  -16.4260   18.0880 P.3     8  DA8         0.2141
    139  OP1      -23.6100  -17.0490   18.6080 O.2     8  DA8        -0.5172
    140  OP2      -21.8180  -15.2020   18.7380 O.3     8  DA8        -0.4373
    141  O5'      -21.1890  -17.5130   18.0140 O.3     8  DA8        -0.3114
    142  C5'      -21.3790  -18.7690   17.3400 C.3     8  DA8         0.1811
    143  C4'      -20.0760  -19.5290   17.2330 C.3     8  DA8         0.1746
    144  O4'      -19.1140  -18.7040   16.5330 O.3     8  DA8        -0.3327
    145  C3'      -19.4150  -19.8570   18.5570 C.3     8  DA8         0.1558
    146  O3'      -19.9230  -21.0640   19.1240 O.3     8  DA8        -0.3138
    147  C2'      -17.9440  -19.9470   18.1850 C.3     8  DA8         0.0865
    148  C1'      -17.8250  -18.8720   17.1010 C.3     8  DA8         0.2094
    149  N9       -17.4410  -17.5760   17.6050 N.ar    8  DA8        -0.2714
    150  C8       -18.2040  -16.4730   17.8880 C.ar    8  DA8         0.1815
    151  N7       -17.5170  -15.4610   18.3620 N.ar    8  DA8        -0.2193
    152  C5       -16.2130  -15.9310   18.3930 C.ar    8  DA8         0.1518
    153  C6       -15.0030  -15.3380   18.7940 C.ar    8  DA8         0.1919
    154  N6       -14.9100  -14.0910   19.2600 N.pl3   8  DA8        -0.1054
    155  N1       -13.8800  -16.0810   18.6990 N.ar    8  DA8        -0.2040
    156  C2       -13.9740  -17.3310   18.2320 C.ar    8  DA8         0.2016
    157  N3       -15.0520  -17.9970   17.8230 N.ar    8  DA8        -0.2048
    158  C4       -16.1510  -17.2320   17.9310 C.ar    8  DA8         0.1691
    159  P        -19.6820  -21.4610   20.3870 P.3     9  DC9         0.2141
    160  OP1      -20.4690  -22.6860   20.6500 O.2     9  DC9        -0.5172
    161  OP2      -20.1030  -20.1500   20.9330 O.3     9  DC9        -0.4373
    162  O5'      -18.2170  -21.6810   20.9860 O.3     9  DC9        -0.3114
    163  C5'      -17.4180  -22.7490   20.5160 C.3     9  DC9         0.1811
    164  C4'      -15.9670  -22.4750   20.8000 C.3     9  DC9         0.1746
    165  O4'      -15.5080  -21.3280   20.0390 O.3     9  DC9        -0.3327
    166  C3'      -15.6520  -22.0810   22.2280 C.3     9  DC9         0.1558
    167  O3'      -15.6680  -23.1760   23.1230 O.3     9  DC9        -0.3138
    168  C2'      -14.2920  -21.4130   22.0780 C.3     9  DC9         0.0866
    169  C1'      -14.4980  -20.6570   20.7660 C.3     9  DC9         0.2106
    170  N1       -14.9680  -19.2910   21.0970 N.ar    9  DC9        -0.2556
    171  C2       -14.1220  -18.3300   21.6610 C.ar    9  DC9         0.3531
    172  O2       -12.9860  -18.6750   22.0280 O.2     9  DC9        -0.2443
    173  N3       -14.5640  -17.0560   21.7900 N.ar    9  DC9        -0.1739
    174  C4       -15.7920  -16.7320   21.3830 C.ar    9  DC9         0.1759
    175  N4       -16.1840  -15.4640   21.5310 N.pl3   9  DC9        -0.1070
    176  C5       -16.6650  -17.6910   20.8090 C.ar    9  DC9         0.0566
    177  C6       -16.2240  -18.9480   20.6830 C.ar    9  DC9         0.0849
    178  P        -16.7190  -22.9300   23.9200 P.3    10  DA10        0.2141
    179  OP1      -17.1980  -24.2310   24.4400 O.3    10  DA10       -0.4373
    180  OP2      -17.6830  -21.8540   23.5940 O.2    10  DA10       -0.5172
    181  O5'      -15.7540  -22.2600   25.0080 O.3    10  DA10       -0.3114
    182  C5'      -14.5920  -22.9510   25.4450 C.3    10  DA10        0.1811
    183  C4'      -13.5290  -22.0060   25.9470 C.3    10  DA10        0.1746
    184  O4'      -13.4740  -20.8320   25.0950 O.3    10  DA10       -0.3327
    185  C3'      -13.7490  -21.4210   27.3300 C.3    10  DA10        0.1558
    186  O3'      -13.4400  -22.3180   28.3830 O.3    10  DA10       -0.3138
    187  C2'      -12.8670  -20.1810   27.2760 C.3    10  DA10        0.0865
    188  C1'      -13.2060  -19.6850   25.8730 C.3    10  DA10        0.2094
    189  N9       -14.2890  -18.7310   25.7830 N.ar   10  DA10       -0.2714
    190  C8       -15.4770  -18.9510   25.1370 C.ar   10  DA10        0.1815
    191  N7       -16.1810  -17.8620   24.9390 N.ar   10  DA10       -0.2193
    192  C5       -15.4030  -16.8580   25.4930 C.ar   10  DA10        0.1518
    193  C6       -15.5900  -15.4690   25.6070 C.ar   10  DA10        0.1919
    194  N6       -16.6670  -14.8290   25.1460 N.pl3  10  DA10       -0.1054
    195  N1       -14.6210  -14.7540   26.2170 N.ar   10  DA10       -0.2040
    196  C2       -13.5420  -15.3970   26.6770 C.ar   10  DA10        0.2016
    197  N3       -13.2530  -16.6950   26.6290 N.ar   10  DA10       -0.2048
    198  C4       -14.2350  -17.3780   26.0180 C.ar   10  DA10        0.1691
    199  P        -14.3030  -22.2380   29.4150 P.3    11  DC11        0.2141
    200  OP1      -13.4710  -23.2290   30.1440 O.3    11  DC11       -0.4373
    201  OP2      -15.7750  -22.1770   29.5990 O.2    11  DC11       -0.5172
    202  O5'      -13.8120  -20.7590   29.7740 O.3    11  DC11       -0.3114
    203  C5'      -12.4840  -20.5160   30.2140 C.3    11  DC11        0.1811
    204  C4'      -12.3350  -19.1200   30.7670 C.3    11  DC11        0.1746
    205  O4'      -12.6790  -18.1620   29.7320 O.3    11  DC11       -0.3327
    206  C3'      -13.2500  -18.7330   31.9270 C.3    11  DC11        0.1558
    207  O3'      -12.8340  -19.2130   33.1970 O.3    11  DC11       -0.3138
    208  C2'      -13.2470  -17.2140   31.8320 C.3    11  DC11        0.0866
    209  C1'      -13.2910  -17.0290   30.3160 C.3    11  DC11        0.2106
    210  N1       -14.6780  -16.8550   29.7750 N.ar   11  DC11       -0.2556
    211  C2       -15.2750  -15.5900   29.8340 C.ar   11  DC11        0.3531
    212  O2       -14.6750  -14.6730   30.4190 O.2    11  DC11       -0.2443
    213  N3       -16.4860  -15.4050   29.2560 N.ar   11  DC11       -0.1739
    214  C4       -17.0940  -16.4190   28.6390 C.ar   11  DC11        0.1759
    215  N4       -18.2850  -16.1890   28.0830 N.pl3  11  DC11       -0.1070
    216  C5       -16.5050  -17.7080   28.5680 C.ar   11  DC11        0.0566
    217  C6       -15.3100  -17.8870   29.1410 C.ar   11  DC11        0.0849
    218  P        -13.9630  -19.6380   34.3480 P.3    12  DC12        0.2141
    219  OP1      -13.1420  -20.1600   35.4590 O.3    12  DC12       -0.4373
    220  OP2      -15.2310  -20.3210   33.9770 O.2    12  DC12       -0.5172
    221  O5'      -14.3130  -18.0950   34.6300 O.3    12  DC12       -0.3114
    222  C5'      -13.2930  -17.2130   35.0650 C.3    12  DC12        0.1811
    223  C4'      -13.7600  -15.7520   35.1530 C.3    12  DC12        0.1746
    224  O4'      -14.1120  -15.2360   33.8500 O.3    12  DC12       -0.3327
    225  C3'      -14.9800  -15.6180   35.9970 C.3    12  DC12        0.1558
    226  O3'      -14.6810  -15.4280   37.3660 O.3    12  DC12       -0.3138
    227  C2'      -15.7160  -14.4740   35.4380 C.3    12  DC12        0.0866
    228  C1'      -15.3040  -14.4030   33.9980 C.3    12  DC12        0.2106
    229  N1       -16.4260  -14.9230   33.1760 N.ar   12  DC12       -0.2556
    230  C2       -17.4340  -13.9910   32.9040 C.ar   12  DC12        0.3531
    231  O2       -17.2650  -12.8090   33.2480 O.2    12  DC12       -0.2443
    232  N3       -18.5610  -14.4030   32.2750 N.ar   12  DC12       -0.1739
    233  C4       -18.6990  -15.6820   31.9250 C.ar   12  DC12        0.1759
    234  N4       -19.8270  -16.0430   31.3080 N.pl3  12  DC12       -0.1070
    235  C5       -17.6890  -16.6420   32.1920 C.ar   12  DC12        0.0566
    236  C6       -16.5780  -16.2310   32.8120 C.ar   12  DC12        0.0849
    237  P        -15.7290  -15.9350   38.4100 P.3    13  DT13        0.2141
    238  OP1      -15.0410  -15.9970   39.7240 O.3    13  DT13       -0.4373
    239  OP2      -16.2310  -17.1740   37.7590 O.2    13  DT13       -0.5172
    240  O5'      -16.9190  -14.8760   38.5300 O.3    13  DT13       -0.3114
    241  C5'      -16.5830  -13.5390   38.9120 C.3    13  DT13        0.1811
    242  C4'      -17.6520  -12.5830   38.4630 C.3    13  DT13        0.1746
    243  O4'      -17.8000  -12.7150   37.0310 O.3    13  DT13       -0.3327
    244  C3'      -19.0350  -12.9460   38.9610 C.3    13  DT13        0.1558
    245  O3'      -19.2310  -12.6160   40.3260 O.3    13  DT13       -0.3138
    246  C2'      -19.8850  -12.1280   37.9930 C.3    13  DT13        0.0866
    247  C1'      -19.1460  -12.4310   36.6930 C.3    13  DT13        0.2106
    248  N1       -19.7220  -13.5250   35.9150 N.ar   13  DT13       -0.2559
    249  C2       -20.8860  -13.2680   35.2150 C.ar   13  DT13        0.3545
    250  O2       -21.4000  -12.1650   35.1640 O.2    13  DT13       -0.2443
    251  N3       -21.4310  -14.3540   34.5740 N.ar   13  DT13       -0.1533
    252  C4       -20.9400  -15.6430   34.5620 C.ar   13  DT13        0.2804
    253  O4       -21.5410  -16.5140   33.9390 O.2    13  DT13       -0.2654
    254  C5       -19.7300  -15.8300   35.3120 C.ar   13  DT13        0.0534
    255  C6       -19.1790  -14.7910   35.9450 C.ar   13  DT13        0.0824
    256  C7       -19.1170  -17.1980   35.3610 C.3    13  DT13        0.0377
    257  P        -20.2370  -13.3930   41.0590 P.3    14  DG14        0.2141
    258  OP1      -19.7920  -12.7640   42.3250 O.3    14  DG14       -0.4373
    259  OP2      -20.3220  -14.8660   40.9540 O.2    14  DG14       -0.5172
    260  O5'      -21.7140  -12.9030   40.6970 O.3    14  DG14       -0.3114
    261  C5'      -21.9790  -11.5120   40.6730 C.3    14  DG14        0.1811
    262  C4'      -23.3300  -11.2190   40.0700 C.3    14  DG14        0.1746
    263  O4'      -23.2760  -11.3690   38.6240 O.3    14  DG14       -0.3327
    264  C3'      -24.4690  -12.1500   40.4520 C.3    14  DG14        0.1558
    265  O3'      -24.9610  -11.9990   41.7760 O.3    14  DG14       -0.3138
    266  C2'      -25.4680  -11.8000   39.3580 C.3    14  DG14        0.0865
    267  C1'      -24.5330  -11.8100   38.1540 C.3    14  DG14        0.2094
    268  N9       -24.4180  -13.2060   37.5860 N.ar   14  DG14       -0.2713
    269  C8       -23.3540  -14.0710   37.6750 C.ar   14  DG14        0.1816
    270  N7       -23.5420  -15.1860   37.0230 N.ar   14  DG14       -0.2173
    271  C5       -24.8010  -15.0530   36.4690 C.ar   14  DG14        0.1748
    272  C6       -25.5510  -15.9410   35.6560 C.ar   14  DG14        0.3023
    273  O6       -25.2290  -17.0660   35.2520 O.2    14  DG14       -0.2633
    274  N1       -26.7910  -15.4110   35.3110 N.ar   14  DG14       -0.1709
    275  C2       -27.2520  -14.1760   35.7020 C.ar   14  DG14        0.2606
    276  N2       -28.4740  -13.8370   35.2690 N.pl3  14  DG14       -0.0859
    277  N3       -26.5670  -13.3400   36.4570 N.ar   14  DG14       -0.1918
    278  C4       -25.3600  -13.8350   36.8050 C.ar   14  DG14        0.1722
    279  P        -25.5200  -13.3520   42.6490 P.3    15  DC15        0.2141
    280  OP1      -25.3140  -12.7250   43.9890 O.3    15  DC15       -0.4373
    281  OP2      -24.6900  -14.5180   42.2410 O.2    15  DC15       -0.5172
    282  O5'      -27.0400  -13.7720   42.5100 O.3    15  DC15       -0.3114
    283  C5'      -28.0240  -12.8250   42.1200 C.3    15  DC15        0.1811
    284  C4'      -29.1820  -13.5530   41.5360 C.3    15  DC15        0.1746
    285  O4'      -28.9550  -13.7560   40.1250 O.3    15  DC15       -0.3327
    286  C3'      -29.3220  -14.9460   42.1200 C.3    15  DC15        0.1558
    287  O3'      -30.0000  -14.9450   43.3730 O.3    15  DC15       -0.3138
    288  C2'      -30.0150  -15.7220   41.0030 C.3    15  DC15        0.0866
    289  C1'      -29.4770  -15.0160   39.7450 C.3    15  DC15        0.2106
    290  N1       -28.4450  -15.7670   39.1260 N.ar   15  DC15       -0.2556
    291  C2       -28.7690  -16.7220   38.1560 C.ar   15  DC15        0.3531
    292  O2       -29.9380  -16.7760   37.7370 O.2    15  DC15       -0.2443
    293  N3       -27.8030  -17.5570   37.7040 N.ar   15  DC15       -0.1739
    294  C4       -26.5620  -17.4640   38.1830 C.ar   15  DC15        0.1759
    295  N4       -25.6440  -18.3080   37.7070 N.pl3  15  DC15       -0.1070
    296  C5       -26.2130  -16.5030   39.1660 C.ar   15  DC15        0.0566
    297  C6       -27.1700  -15.6800   39.6100 C.ar   15  DC15        0.0849
    298  P        -30.1290  -16.3260   44.1800 P.3    16  DT16        0.2141
    299  OP1      -30.6790  -15.9850   45.5140 O.3    16  DT16       -0.4373
    300  OP2      -28.6690  -16.4770   43.9880 O.2    16  DT16       -0.5172
    301  O5'      -30.7650  -17.7070   43.6680 O.3    16  DT16       -0.3113
    302  C5'      -32.1710  -17.9330   43.7110 C.3    16  DT16        0.1836
    303  C4'      -32.5600  -19.0600   42.7840 C.3    16  DT16        0.1992
    304  O4'      -31.7930  -18.9190   41.5710 O.3    16  DT16       -0.3301
    305  C3'      -32.3290  -20.4730   43.3080 C.3    16  DT16        0.2381
    306  O3'      -33.5940  -21.0670   43.6030 O.3    16  DT16       -0.2491
    307  C2'      -31.5190  -21.2020   42.2370 C.3    16  DT16        0.1137
    308  C1'      -31.3150  -20.1630   41.1310 C.3    16  DT16        0.2132
    309  N1       -30.1330  -20.0770   40.6410 N.ar   16  DT16       -0.2558
    310  C2       -29.7040  -21.0050   39.7110 C.ar   16  DT16        0.3545
    311  O2       -30.4650  -21.7420   39.1080 O.2    16  DT16       -0.2443
    312  N3       -28.3450  -21.0430   39.5120 N.ar   16  DT16       -0.1533
    313  C4       -27.3940  -20.2630   40.1350 C.ar   16  DT16        0.2804
    314  O4       -26.2080  -20.4130   39.8500 O.2    16  DT16       -0.2654
    315  C5       -27.9180  -19.3240   41.0870 C.ar   16  DT16        0.0534
    316  C6       -29.2350  -19.2660   41.3000 C.ar   16  DT16        0.0824
    317  C7       -26.9620  -18.4290   41.8180 C.3    16  DT16        0.0377
    318  P        -33.9500  -22.3920   44.0060 P.3    17  DC17        0.4833
    319  OP1      -35.1180  -22.7430   44.8530 O.2    17  DC17       -0.2269
    320  OP2      -32.7840  -21.6970   44.6020 O.3    17  DC17       -0.2491
    321  O5'      -33.4270  -23.7310   43.3240 O.3    17  DC17       -0.2704
    322  C5'      -34.2910  -24.5030   42.4880 C.3    17  DC17        0.1856
    323  C4'      -33.4900  -25.3580   41.5270 C.3    17  DC17        0.1749
    324  O4'      -32.4480  -24.5630   40.9050 O.3    17  DC17       -0.3326
    325  C3'      -32.7510  -26.5680   42.0780 C.3    17  DC17        0.1580
    326  O3'      -33.6010  -27.6970   42.1800 O.3    17  DC17       -0.3138
    327  C2'      -31.7160  -26.8250   40.9980 C.3    17  DC17        0.1098
    328  C1'      -31.3810  -25.4110   40.5270 C.3    17  DC17        0.2129
    329  N1       -30.1270  -24.9470   41.0690 N.ar   17  DC17       -0.2556
    330  C2       -28.9280  -25.4340   40.5360 C.ar   17  DC17        0.3531
    331  O2       -28.9770  -26.2140   39.5690 O.2    17  DC17       -0.2443
    332  N3       -27.7540  -25.0450   41.0890 N.ar   17  DC17       -0.1739
    333  C4       -27.7510  -24.2080   42.1270 C.ar   17  DC17        0.1759
    334  N4       -26.5700  -23.8520   42.6390 N.pl3  17  DC17       -0.1070
    335  C5       -28.9550  -23.7030   42.6810 C.ar   17  DC17        0.0566
    336  C6       -30.1120  -24.0900   42.1330 C.ar   17  DC17        0.0849
    337  P        -33.1040  -28.9070   43.0660 P.3    18  DT18        0.2140
    338  OP1      -33.9760  -29.9750   42.5010 O.2    18  DT18       -0.5172
    339  OP2      -32.7040  -28.9560   44.5040 O.3    18  DT18       -0.4373
    340  O5'      -31.8060  -28.8760   42.1480 O.3    18  DT18       -0.3138
    341  C5'      -31.9800  -28.6570   40.7600 C.3    18  DT18        0.1579
    342  C4'      -30.7440  -29.0110   40.0030 C.3    18  DT18        0.1723
    343  O4'      -29.7020  -28.0700   40.3180 O.3    18  DT18       -0.3328
    344  C3'      -30.1830  -30.3930   40.2470 C.3    18  DT18        0.1557
    345  O3'      -29.7410  -30.7860   38.9580 O.3    18  DT18       -0.3138
    346  C2'      -29.0650  -30.1260   41.2460 C.3    18  DT18        0.0866
    347  C1'      -28.5740  -28.7590   40.7940 C.3    18  DT18        0.2106
    348  N1       -27.9950  -28.0250   41.7410 N.ar   18  DT18       -0.2559
    349  C2       -26.6320  -27.8180   41.8250 C.ar   18  DT18        0.3545
    350  O2       -25.9080  -27.7540   40.8470 O.2    18  DT18       -0.2443
    351  N3       -26.1410  -27.6880   43.1020 N.ar   18  DT18       -0.1533
    352  C4       -26.8620  -27.7440   44.2770 C.ar   18  DT18        0.2804
    353  O4       -26.2790  -27.6090   45.3500 O.2    18  DT18       -0.2654
    354  C5       -28.2700  -27.9630   44.1060 C.ar   18  DT18        0.0534
    355  C6       -28.7740  -28.0920   42.8760 C.ar   18  DT18        0.0824
    356  C7       -29.1400  -28.0400   45.3250 C.3    18  DT18        0.0377
    357  P        -28.9200  -32.0500   38.9940 P.3    19  DA19        0.2141
    358  OP1      -30.0860  -32.0330   38.0630 O.2    19  DA19       -0.5172
    359  OP2      -28.2660  -33.3360   39.3240 O.3    19  DA19       -0.4373
    360  O5'      -27.8000  -31.1000   38.4060 O.3    19  DA19       -0.3114
    361  C5'      -26.5810  -30.8700   39.0860 C.3    19  DA19        0.1811
    362  C4'      -25.4370  -31.0330   38.1230 C.3    19  DA19        0.1746
    363  O4'      -24.9660  -32.3880   38.1900 O.3    19  DA19       -0.3327
    364  C3'      -25.7860  -30.8370   36.6530 C.3    19  DA19        0.1558
    365  O3'      -25.7590  -29.4690   36.2390 O.3    19  DA19       -0.3138
    366  C2'      -24.7260  -31.6510   35.9260 C.3    19  DA19        0.0865
    367  C1'      -24.3750  -32.7330   36.9520 C.3    19  DA19        0.2094
    368  N9       -24.9510  -34.3410   37.1020 N.ar   19  DA19       -0.2714
    369  C8       -25.8430  -34.8650   38.0010 C.ar   19  DA19        0.1815
    370  N7       -25.9170  -36.1740   37.9700 N.ar   19  DA19       -0.2193
    371  C5       -25.0130  -36.5350   36.9830 C.ar   19  DA19        0.1518
    372  C6       -24.6230  -37.7830   36.4670 C.ar   19  DA19        0.1919
    373  N6       -25.1180  -38.9470   36.8960 N.pl3  19  DA19       -0.1054
    374  N1       -23.6970  -37.7940   35.4850 N.ar   19  DA19       -0.2040
    375  C2       -23.2020  -36.6280   35.0570 C.ar   19  DA19        0.2016
    376  N3       -23.4880  -35.3930   35.4630 N.ar   19  DA19       -0.2048
    377  C4       -24.4110  -35.4160   36.4380 C.ar   19  DA19        0.1691
    378  P        -26.4220  -29.0780   34.7650 P.3    20  DT20        0.2141
    379  OP1      -26.0560  -30.2930   34.0180 O.2    20  DT20       -0.5172
    380  OP2      -25.6190  -27.8500   34.6510 O.3    20  DT20       -0.4373
    381  O5'      -27.8570  -28.5080   34.3530 O.3    20  DT20       -0.3114
    382  C5'      -29.0800  -29.2260   34.6070 C.3    20  DT20        0.1811
    383  C4'      -30.2690  -28.3100   34.8130 C.3    20  DT20        0.1746
    384  O4'      -30.2580  -27.8190   36.1750 O.3    20  DT20       -0.3327
    385  C3'      -30.2760  -27.0270   34.0010 C.3    20  DT20        0.1558
    386  O3'      -30.6390  -27.2920   32.6620 O.3    20  DT20       -0.3138
    387  C2'      -31.3650  -26.3240   34.7950 C.3    20  DT20        0.0866
    388  C1'      -30.9480  -26.6100   36.2260 C.3    20  DT20        0.2106
    389  N1       -30.0820  -25.5470   36.7650 N.ar   20  DT20       -0.2559
    390  C2       -30.5780  -24.3400   37.2180 C.ar   20  DT20        0.3545
    391  O2       -31.7400  -24.0030   37.0740 O.2    20  DT20       -0.2443
    392  N3       -29.6610  -23.5350   37.8490 N.ar   20  DT20       -0.1533
    393  C4       -28.3270  -23.8100   38.0670 C.ar   20  DT20        0.2804
    394  O4       -27.6270  -22.9860   38.6510 O.2    20  DT20       -0.2654
    395  C5       -27.8880  -25.0820   37.5660 C.ar   20  DT20        0.0534
    396  C6       -28.7590  -25.8840   36.9490 C.ar   20  DT20        0.0824
    397  C7       -26.4520  -25.4740   37.7530 C.3    20  DT20        0.0377
    398  P        -30.3950  -26.2920   31.5680 P.3    21  DT21        0.2141
    399  OP1      -30.6480  -27.0150   30.2760 O.2    21  DT21       -0.5172
    400  OP2      -29.0310  -26.2450   32.1480 O.3    21  DT21       -0.4373
    401  O5'      -30.9950  -24.8180   31.4760 O.3    21  DT21       -0.3114
    402  C5'      -32.3450  -24.6430   31.0800 C.3    21  DT21        0.1811
    403  C4'      -32.8710  -23.3300   31.5650 C.3    21  DT21        0.1746
    404  O4'      -32.6300  -23.2040   32.9830 O.3    21  DT21       -0.3327
    405  C3'      -32.2410  -22.1000   30.9590 C.3    21  DT21        0.1558
    406  O3'      -32.9270  -21.8210   29.7540 O.3    21  DT21       -0.3138
    407  C2'      -32.5430  -21.0460   32.0130 C.3    21  DT21        0.0866
    408  C1'      -32.4360  -21.8440   33.3130 C.3    21  DT21        0.2106
    409  N1       -31.0700  -21.7660   33.8380 N.ar   21  DT21       -0.2559
    410  C2       -30.7660  -20.6290   34.5620 C.ar   21  DT21        0.3545
    411  O2       -31.5990  -19.7970   34.8740 O.2    21  DT21       -0.2443
    412  N3       -29.4430  -20.4980   34.9090 N.ar   21  DT21       -0.1533
    413  C4       -28.4170  -21.3710   34.6110 C.ar   21  DT21        0.2804
    414  O4       -27.2770  -21.1170   34.9930 O.2    21  DT21       -0.2654
    415  C5       -28.8130  -22.5260   33.8560 C.ar   21  DT21        0.0534
    416  C6       -30.0930  -22.6790   33.5060 C.ar   21  DT21        0.0824
    417  C7       -27.7680  -23.5350   33.4810 C.3    21  DT21        0.0377
    418  P        -32.4350  -20.4600   28.7740 P.3    22  DC22        0.2141
    419  OP1      -33.4300  -20.1520   27.7090 O.2    22  DC22       -0.5172
    420  OP2      -31.0410  -20.8190   28.3930 O.3    22  DC22       -0.4373
    421  O5'      -32.3820  -19.2000   29.7470 O.3    22  DC22       -0.3114
    422  C5'      -33.5450  -18.3810   29.9410 C.3    22  DC22        0.1811
    423  C4'      -33.1610  -17.0700   30.5790 C.3    22  DC22        0.1746
    424  O4'      -32.6910  -17.3000   31.9340 O.3    22  DC22       -0.3327
    425  C3'      -32.0100  -16.3280   29.9250 C.3    22  DC22        0.1558
    426  O3'      -32.4030  -15.6150   28.7610 O.3    22  DC22       -0.3138
    427  C2'      -31.5520  -15.4170   31.0510 C.3    22  DC22        0.0866
    428  C1'      -31.6730  -16.3610   32.2510 C.3    22  DC22        0.2106
    429  N1       -30.3760  -17.1340   32.5340 N.ar   22  DC22       -0.2556
    430  C2       -29.4000  -16.6040   33.3860 C.ar   22  DC22        0.3531
    431  O2       -29.5930  -15.4870   33.8940 O.2    22  DC22       -0.2443
    432  N3       -28.2780  -17.3220   33.6310 N.ar   22  DC22       -0.1739
    433  C4       -28.1130  -18.5180   33.0630 C.ar   22  DC22        0.1759
    434  N4       -26.9910  -19.1890   33.3330 N.pl3  22  DC22       -0.1070
    435  C5       -29.0900  -19.0720   32.1970 C.ar   22  DC22        0.0566
    436  C6       -30.1970  -18.3600   31.9580 C.ar   22  DC22        0.0849
    437  P        -31.4070  -15.5810   27.4990 P.3    23  DC23        0.2141
    438  OP1      -32.2880  -15.2400   26.3550 O.2    23  DC23       -0.5172
    439  OP2      -30.3570  -16.6230   27.3440 O.3    23  DC23       -0.4373
    440  O5'      -30.7340  -14.2620   28.0630 O.3    23  DC23       -0.3114
    441  C5'      -31.5620  -13.1920   28.4280 C.3    23  DC23        0.1811
    442  C4'      -30.8500  -12.2640   29.3550 C.3    23  DC23        0.1746
    443  O4'      -30.4640  -12.9750   30.5640 O.3    23  DC23       -0.3327
    444  C3'      -29.5150  -11.7950   28.8200 C.3    23  DC23        0.1558
    445  O3'      -29.6460  -10.7650   27.8690 O.3    23  DC23       -0.3138
    446  C2'      -28.7960  -11.3520   30.0850 C.3    23  DC23        0.0866
    447  C1'      -29.2640  -12.4140   31.0740 C.3    23  DC23        0.2106
    448  N1       -28.2120  -13.5330   31.2620 N.ar   23  DC23       -0.2556
    449  C2       -27.0700  -13.3070   32.0390 C.ar   23  DC23        0.3531
    450  O2       -26.9580  -12.2220   32.6340 O.2    23  DC23       -0.2443
    451  N3       -26.1250  -14.2740   32.1200 N.ar   23  DC23       -0.1739
    452  C4       -26.2880  -15.4230   31.4630 C.ar   23  DC23        0.1759
    453  N4       -25.3300  -16.3460   31.5730 N.pl3  23  DC23       -0.1070
    454  C5       -27.4380  -15.6710   30.6700 C.ar   23  DC23        0.0566
    455  C6       -28.3690  -14.7140   30.5930 C.ar   23  DC23        0.0849
    456  P        -28.4600  -10.5430   26.7950 P.3    24  DT24        0.2141
    457  OP1      -28.9280   -9.9150   25.5350 O.2    24  DT24       -0.5172
    458  OP2      -27.9430  -11.9320   26.7740 O.3    24  DT24       -0.4373
    459  O5'      -27.2650   -9.7080   27.4670 O.3    24  DT24       -0.3114
    460  C5'      -27.5050   -8.6230   28.3550 C.3    24  DT24        0.1811
    461  C4'      -26.2830   -8.2640   29.1750 C.3    24  DT24        0.1746
    462  O4'      -26.0130   -9.2940   30.1630 O.3    24  DT24       -0.3327
    463  C3'      -24.9670   -8.1340   28.4260 C.3    24  DT24        0.1558
    464  O3'      -24.8180   -6.8880   27.7750 O.3    24  DT24       -0.3138
    465  C2'      -23.9460   -8.3250   29.5370 C.3    24  DT24        0.0866
    466  C1'      -24.6230   -9.3850   30.4000 C.3    24  DT24        0.2106
    467  N1       -24.1560  -10.7500   29.9620 N.ar   24  DT24       -0.2559
    468  C2       -22.9150  -11.1580   30.4130 C.ar   24  DT24        0.3545
    469  O2       -22.2060  -10.4660   31.1220 O.2    24  DT24       -0.2443
    470  N3       -22.5300  -12.4110   30.0030 N.ar   24  DT24       -0.1533
    471  C4       -23.2460  -13.2790   29.2040 C.ar   24  DT24        0.2804
    472  O4       -22.7670  -14.3740   28.9200 O.2    24  DT24       -0.2654
    473  C5       -24.5230  -12.7830   28.7750 C.ar   24  DT24        0.0534
    474  C6       -24.9220  -11.5680   29.1600 C.ar   24  DT24        0.0824
    475  C7       -25.3770  -13.6530   27.9010 C.3    24  DT24        0.0377
    476  P        -23.7590   -6.7540   26.7520 P.3    25  DC25        0.2141
    477  OP1      -24.1090   -5.4800   26.1180 O.3    25  DC25       -0.4373
    478  OP2      -23.2600   -7.9200   25.9240 O.2    25  DC25       -0.5172
    479  O5'      -22.6270   -6.4580   27.8430 O.3    25  DC25       -0.3114
    480  C5'      -21.5460   -5.5700   27.5540 C.3    25  DC25        0.1811
    481  C4'      -20.4310   -5.8140   28.5330 C.3    25  DC25        0.1746
    482  O4'      -20.7790   -7.0890   29.0940 O.3    25  DC25       -0.3327
    483  C3'      -19.0450   -6.1550   28.0560 C.3    25  DC25        0.1558
    484  O3'      -18.2460   -4.9930   27.7200 O.3    25  DC25       -0.3138
    485  C2'      -18.5210   -6.8700   29.2920 C.3    25  DC25        0.0866
    486  C1'      -19.6520   -7.8050   29.5620 C.3    25  DC25        0.2106
    487  N1       -19.7210   -9.0190   28.8220 N.ar   25  DC25       -0.2556
    488  C2       -18.8710  -10.1040   29.0600 C.ar   25  DC25        0.3531
    489  O2       -17.9160   -9.9550   29.8410 O.2    25  DC25       -0.2443
    490  N3       -19.1130  -11.2810   28.4340 N.ar   25  DC25       -0.1739
    491  C4       -20.1500  -11.3940   27.6030 C.ar   25  DC25        0.1759
    492  N4       -20.3480  -12.5730   27.0090 N.pl3  25  DC25       -0.1070
    493  C5       -21.0230  -10.3060   27.3490 C.ar   25  DC25        0.0566
    494  C6       -20.7810   -9.1460   27.9690 C.ar   25  DC25        0.0849
    495  P        -17.3580   -5.2330   26.5530 P.3    26  DT26        0.2141
    496  OP1      -17.1730   -3.8590   26.0370 O.3    26  DT26       -0.4373
    497  OP2      -18.2760   -6.1580   25.8630 O.2    26  DT26       -0.5172
    498  O5'      -15.9540   -5.9940   26.5710 O.3    26  DT26       -0.3114
    499  C5'      -14.8460   -5.5190   27.3080 C.3    26  DT26        0.1811
    500  C4'      -14.0750   -6.6880   27.8940 C.3    26  DT26        0.1746
    501  O4'      -15.0370   -7.7410   28.2000 O.3    26  DT26       -0.3327
    502  C3'      -13.0600   -7.4310   27.0270 C.3    26  DT26        0.1558
    503  O3'      -11.8040   -6.7550   26.9610 O.3    26  DT26       -0.3138
    504  C2'      -12.9200   -8.7320   27.8120 C.3    26  DT26        0.0866
    505  C1'      -14.3740   -8.9970   28.1940 C.3    26  DT26        0.2106
    506  N1       -15.0590   -9.9040   27.2590 N.ar   26  DT26       -0.2559
    507  C2       -14.6880  -11.2330   27.1820 C.ar   26  DT26        0.3545
    508  O2       -13.7440  -11.6960   27.7980 O.2    26  DT26       -0.2443
    509  N3       -15.4660  -12.0060   26.3540 N.ar   26  DT26       -0.1533
    510  C4       -16.5520  -11.5930   25.6110 C.ar   26  DT26        0.2804
    511  O4       -17.1520  -12.4060   24.9130 O.2    26  DT26       -0.2654
    512  C5       -16.8730  -10.2000   25.7430 C.ar   26  DT26        0.0534
    513  C6       -16.1340   -9.4250   26.5420 C.ar   26  DT26        0.0824
    514  C7       -18.0390   -9.6540   24.9730 C.3    26  DT26        0.0377
    515  P        -10.6040   -7.3640   25.9210 P.3    27  DG27        0.2141
    516  OP1       -9.5120   -6.3700   26.0900 O.3    27  DG27       -0.4373
    517  OP2      -11.3550   -7.4250   24.6440 O.2    27  DG27       -0.5172
    518  O5'      -10.0070   -8.8280   26.2400 O.3    27  DG27       -0.3114
    519  C5'       -8.9220   -8.9640   27.1580 C.3    27  DG27        0.1811
    520  C4'       -8.1930  -10.3070   27.0270 C.3    27  DG27        0.1746
    521  O4'       -9.0660  -11.3900   27.4250 O.3    27  DG27       -0.3327
    522  C3'       -7.7950  -10.5810   25.6120 C.3    27  DG27        0.1558
    523  O3'       -6.4680  -10.2110   25.3310 O.3    27  DG27       -0.3138
    524  C2'       -8.0110  -12.0190   25.4060 C.3    27  DG27        0.0865
    525  C1'       -9.0840  -12.3900   26.3650 C.3    27  DG27        0.2094
    526  N9       -10.3890  -12.3770   25.6450 N.ar   27  DG27       -0.2713
    527  C8       -11.2690  -11.3300   25.5150 C.ar   27  DG27        0.1816
    528  N7       -12.3310  -11.6330   24.8180 N.ar   27  DG27       -0.2173
    529  C5       -12.1450  -12.9570   24.4680 C.ar   27  DG27        0.1748
    530  C6       -12.9610  -13.8350   23.7080 C.ar   27  DG27        0.3023
    531  O6       -14.0530  -13.5980   23.1780 O.2    27  DG27       -0.2633
    532  N1       -12.3940  -15.1010   23.5890 N.ar   27  DG27       -0.1709
    533  C2       -11.1890  -15.4750   24.1340 C.ar   27  DG27        0.2606
    534  N2       -10.8080  -16.7410   23.9130 N.pl3  27  DG27       -0.0859
    535  N3       -10.4200  -14.6710   24.8410 N.ar   27  DG27       -0.1918
    536  C4       -10.9500  -13.4360   24.9690 C.ar   27  DG27        0.1722
    537  P         -6.0270   -9.9010   23.6270 P.3    28  DT28        0.2141
    538  OP1       -4.6380   -9.5060   23.3050 O.3    28  DT28       -0.4373
    539  OP2       -7.1640   -9.0870   23.1460 O.2    28  DT28       -0.5172
    540  O5'       -6.2310  -11.4060   23.1310 O.3    28  DT28       -0.3114
    541  C5'       -5.2610  -12.3880   23.4520 C.3    28  DT28        0.1811
    542  C4'       -5.6530  -13.7310   22.8670 C.3    28  DT28        0.1746
    543  O4'       -6.9100  -14.1830   23.4320 O.3    28  DT28       -0.3327
    544  C3'       -5.9480  -13.7230   21.3810 C.3    28  DT28        0.1558
    545  O3'       -4.7460  -13.6520   20.6240 O.3    28  DT28       -0.3138
    546  C2'       -6.6530  -15.0690   21.2710 C.3    28  DT28        0.0866
    547  C1'       -7.5950  -14.9620   22.4660 C.3    28  DT28        0.2106
    548  N1        -8.8750  -14.3410   22.1220 N.ar   28  DT28       -0.2559
    549  C2        -9.8330  -15.1180   21.4990 C.ar   28  DT28        0.3545
    550  O2        -9.6540  -16.2880   21.2110 O.2    28  DT28       -0.2443
    551  N3       -11.0150  -14.4730   21.2230 N.ar   28  DT28       -0.1533
    552  C4       -11.3280  -13.1590   21.5020 C.ar   28  DT28        0.2804
    553  O4       -12.4340  -12.7220   21.1930 O.2    28  DT28       -0.2654
    554  C5       -10.2810  -12.4180   22.1480 C.ar   28  DT28        0.0534
    555  C6        -9.1220  -13.0200   22.4280 C.ar   28  DT28        0.0824
    556  C7       -10.5240  -10.9780   22.4920 C.3    28  DT28        0.0377
    557  P         -4.7550  -12.9250   19.2480 P.3    29  DT29        0.2141
    558  OP1       -3.3580  -12.8590   18.7660 O.2    29  DT29       -0.5172
    559  OP2       -5.6360  -11.7460   19.1210 O.3    29  DT29       -0.4373
    560  O5'       -5.4820  -14.1610   18.5380 O.3    29  DT29       -0.3114
    561  C5'       -4.7820  -15.3910   18.3710 C.3    29  DT29        0.1811
    562  C4'       -5.7400  -16.5090   18.0070 C.3    29  DT29        0.1746
    563  O4'       -6.7840  -16.5960   19.0090 O.3    29  DT29       -0.3327
    564  C3'       -6.5210  -16.3220   16.7190 C.3    29  DT29        0.1558
    565  O3'       -5.7370  -16.6530   15.5950 O.3    29  DT29       -0.3138
    566  C2'       -7.6340  -17.3330   16.9460 C.3    29  DT29        0.0866
    567  C1'       -7.9920  -17.0060   18.3940 C.3    29  DT29        0.2106
    568  N1        -9.0360  -15.9350   18.4410 N.ar   29  DT29       -0.2559
    569  C2       -10.3650  -16.2610   18.2450 C.ar   29  DT29        0.3545
    570  O2       -10.7290  -17.3590   17.8610 O.2    29  DT29       -0.2443
    571  N3       -11.2570  -15.2520   18.5140 N.ar   29  DT29       -0.1533
    572  C4       -10.9610  -13.9770   18.9490 C.ar   29  DT29        0.2804
    573  O4       -11.8730  -13.1790   19.1490 O.2    29  DT29       -0.2654
    574  C5        -9.5600  -13.7150   19.1280 C.ar   29  DT29        0.0534
    575  C6        -8.6710  -14.6790   18.8740 C.ar   29  DT29        0.0824
    576  C7        -9.1360  -12.3560   19.5990 C.3    29  DT29        0.0377
    577  P         -5.7250  -15.7380   14.5360 P.3    30  DG30        0.2141
    578  OP1       -4.6810  -16.6090   13.9530 O.3    30  DG30       -0.4373
    579  OP2       -6.0130  -14.4120   13.9470 O.2    30  DG30       -0.5172
    580  O5'       -7.1390  -16.4930   14.5070 O.3    30  DG30       -0.3114
    581  C5'       -7.2090  -17.9130   14.4360 C.3    30  DG30        0.1811
    582  C4'       -8.5100  -18.4020   13.8390 C.3    30  DG30        0.1746
    583  O4'       -9.5830  -18.3040   14.8110 O.3    30  DG30       -0.3327
    584  C3'       -9.0300  -17.6430   12.6250 C.3    30  DG30        0.1558
    585  O3'       -8.4120  -18.0580   11.4180 O.3    30  DG30       -0.3138
    586  C2'      -10.5310  -17.9100   12.6610 C.3    30  DG30        0.0865
    587  C1'      -10.8040  -18.0040   14.1650 C.3    30  DG30        0.2094
    588  N9       -11.1760  -16.6740   14.8670 N.ar   30  DG30       -0.2713
    589  C8       -10.4150  -15.5990   15.2590 C.ar   30  DG30        0.1816
    590  N7       -11.1250  -14.5370   15.5260 N.ar   30  DG30       -0.2173
    591  C5       -12.4310  -14.9300   15.3010 C.ar   30  DG30        0.1748
    592  C6       -13.6460  -14.2090   15.4210 C.ar   30  DG30        0.3023
    593  O6       -13.8070  -13.0320   15.7660 O.2    30  DG30       -0.2633
    594  N1       -14.7500  -14.9900   15.0920 N.ar   30  DG30       -0.1709
    595  C2       -14.6910  -16.3050   14.6960 C.ar   30  DG30        0.2606
    596  N2       -15.8630  -16.8930   14.4220 N.pl3  30  DG30       -0.0859
    597  N3       -13.5690  -16.9880   14.5790 N.ar   30  DG30       -0.1918
    598  C4       -12.4840  -16.2490   14.8920 C.ar   30  DG30        0.1722
    599  P         -8.6660  -17.2130    9.9850 P.3    31  DA31        0.2141
    600  OP1       -8.1080  -18.1120    8.9190 O.2    31  DA31       -0.5172
    601  OP2       -8.1470  -15.8290   10.2760 O.3    31  DA31       -0.4373
    602  O5'      -10.1560  -16.9700    9.7330 O.3    31  DA31       -0.3114
    603  C5'      -10.7740  -18.0650    8.9310 C.3    31  DA31        0.1811
    604  C4'      -12.4170  -17.9140    8.8520 C.3    31  DA31        0.1746
    605  O4'      -13.0260  -17.6640   10.4400 O.3    31  DA31       -0.3327
    606  C3'      -12.7260  -16.7930    8.1140 C.3    31  DA31        0.1558
    607  O3'      -12.9050  -17.3290    6.8130 O.3    31  DA31       -0.3138
    608  C2'      -14.0340  -16.4000    8.8450 C.3    31  DA31        0.0865
    609  C1'      -13.9090  -16.6660   10.3630 C.3    31  DA31        0.2094
    610  N9       -13.3770  -15.2250   10.6970 N.ar   31  DA31       -0.2714
    611  C8       -12.0910  -14.8370   10.9650 C.ar   31  DA31        0.1815
    612  N7       -12.0070  -13.7210   11.6500 N.ar   31  DA31       -0.2193
    613  C5       -13.3280  -13.3500   11.8430 C.ar   31  DA31        0.1518
    614  C6       -13.9170  -12.2550   12.4990 C.ar   31  DA31        0.1919
    615  N6       -13.2170  -11.2940   13.1070 N.pl3  31  DA31       -0.1054
    616  N1       -15.2650  -12.1820   12.5100 N.ar   31  DA31       -0.2040
    617  C2       -15.9650  -13.1460   11.9020 C.ar   31  DA31        0.2016
    618  N3       -15.5260  -14.2230   11.2540 N.ar   31  DA31       -0.2048
    619  C4       -14.1830  -14.2660   11.2610 C.ar   31  DA31        0.1691
    620  P        -12.6570  -16.3720    5.5880 P.3    32  DA32        0.2141
    621  OP1      -13.0420  -17.1430    4.3810 O.2    32  DA32       -0.5172
    622  OP2      -11.3000  -15.7970    5.7170 O.3    32  DA32       -0.4373
    623  O5'      -13.6630  -15.1300    5.7700 O.3    32  DA32       -0.3114
    624  C5'      -15.0130  -15.2650    5.3340 C.3    32  DA32        0.1811
    625  C4'      -15.9460  -14.1920    5.8490 C.3    32  DA32        0.1746
    626  O4'      -15.6970  -13.9350    7.2540 O.3    32  DA32       -0.3327
    627  C3'      -15.8340  -12.8170    5.2120 C.3    32  DA32        0.1558
    628  O3'      -16.4590  -12.7140    3.9440 O.3    32  DA32       -0.3138
    629  C2'      -16.4780  -11.9320    6.2690 C.3    32  DA32        0.0865
    630  C1'      -15.9530  -12.5750    7.5490 C.3    32  DA32        0.2094
    631  N9       -14.7000  -11.8790    8.0350 N.ar   32  DA32       -0.2714
    632  C8       -13.4520  -12.4280    8.1740 C.ar   32  DA32        0.1815
    633  N7       -12.6080  -11.6640    8.8260 N.ar   32  DA32       -0.2193
    634  C5       -13.3520  -10.5370    9.1360 C.ar   32  DA32        0.1518
    635  C6       -13.0330   -9.3520    9.8230 C.ar   32  DA32        0.1919
    636  N6       -11.8290   -9.1010   10.3440 N.pl3  32  DA32       -0.1054
    637  N1       -14.0050   -8.4250    9.9580 N.ar   32  DA32       -0.2040
    638  C2       -15.2110   -8.6780    9.4370 C.ar   32  DA32        0.2016
    639  N3       -15.6310   -9.7520    8.7720 N.ar   32  DA32       -0.2048
    640  C4       -14.6420  -10.6540    8.6540 C.ar   32  DA32        0.1691
    641  P        -16.0010  -11.6860    3.1070 P.3    33  DG33        0.2141
    642  OP1      -16.7260  -11.8050    1.8180 O.2    33  DG33       -0.5172
    643  OP2      -14.5240  -11.7540    3.1200 O.3    33  DG33       -0.4373
    644  O5'      -16.4260  -10.3190    3.7990 O.3    33  DG33       -0.3114
    645  C5'      -17.8000  -10.0180    4.0120 C.3    33  DG33        0.1811
    646  C4'      -17.9510   -8.6010    4.4860 C.3    33  DG33        0.1746
    647  O4'      -17.5850   -8.5120    5.8870 O.3    33  DG33       -0.3327
    648  C3'      -17.0180   -7.6140    3.8160 C.3    33  DG33        0.1558
    649  O3'      -17.4620   -7.2000    2.5380 O.3    33  DG33       -0.3138
    650  C2'      -17.0040   -6.4800    4.8220 C.3    33  DG33        0.0865
    651  C1'      -16.9470   -7.2660    6.1330 C.3    33  DG33        0.2094
    652  N9       -15.5420   -7.5820    6.5500 N.ar   33  DG33       -0.2713
    653  C8       -14.7630   -8.6810    6.2820 C.ar   33  DG33        0.1816
    654  N7       -13.5140   -8.5240    6.6270 N.ar   33  DG33       -0.2173
    655  C5       -13.4620   -7.2470    7.1550 C.ar   33  DG33        0.1748
    656  C6       -12.3730   -6.5140    7.6940 C.ar   33  DG33        0.3023
    657  O6       -11.1940   -6.8710    7.8140 O.2    33  DG33       -0.2633
    658  N1       -12.7590   -5.2460    8.1200 N.ar   33  DG33       -0.1709
    659  C2       -14.0360   -4.7450    8.0360 C.ar   33  DG33        0.2606
    660  N2       -14.2140   -3.5010    8.4990 N.pl3  33  DG33       -0.0859
    661  N3       -15.0570   -5.4140    7.5370 N.ar   33  DG33       -0.1918
    662  C4       -14.7060   -6.6480    7.1170 C.ar   33  DG33        0.1722
    663  P        -16.3730   -6.7340    1.4130 P.3    34  DA34        0.2141
    664  OP1      -16.3020   -6.0610    0.0880 O.2    34  DA34       -0.5172
    665  OP2      -15.3950   -7.7970    1.7570 O.3    34  DA34       -0.4373
    666  O5'      -16.3150   -5.6390    2.5730 O.3    34  DA34       -0.3114
    667  C5'      -17.2660   -4.5430    2.6180 C.3    34  DA34        0.1811
    668  C4'      -16.5330   -3.2220    2.6920 C.3    34  DA34        0.1746
    669  O4'      -15.8890   -3.0870    3.9760 O.3    34  DA34       -0.3327
    670  C3'      -15.4430   -3.0790    1.6450 C.3    34  DA34        0.1558
    671  O3'      -15.9880   -2.3790    0.5420 O.3    34  DA34       -0.3138
    672  C2'      -14.3750   -2.2430    2.3290 C.3    34  DA34        0.0865
    673  C1'      -14.5760   -2.6030    3.8050 C.3    34  DA34        0.2094
    674  N9       -13.7650   -3.6200    4.5380 N.ar   34  DA34       -0.2714
    675  C8       -13.5690   -4.9010    4.0930 C.ar   34  DA34        0.1815
    676  N7       -12.3860   -5.3870    4.3840 N.ar   34  DA34       -0.2193
    677  C5       -11.7620   -4.3550    5.0670 C.ar   34  DA34        0.1518
    678  C6       -10.4850   -4.2380    5.6450 C.ar   34  DA34        0.1919
    679  N6        -9.5730   -5.2130    5.6250 N.pl3  34  DA34       -0.1054
    680  N1       -10.1760   -3.0720    6.2500 N.ar   34  DA34       -0.2040
    681  C2       -11.0910   -2.0960    6.2700 C.ar   34  DA34        0.2016
    682  N3       -12.3220   -2.0870    5.7640 N.ar   34  DA34       -0.2048
    683  C4       -12.5980   -3.2590    5.1680 C.ar   34  DA34        0.1691
    684  P        -15.0390   -2.0080   -0.7380 P.3    35  DA35        0.2141
    685  OP1      -16.0020   -1.3690   -1.6460 O.2    35  DA35       -0.5172
    686  OP2      -14.6320   -3.4070   -0.9790 O.3    35  DA35       -0.4373
    687  O5'      -13.7440   -1.0940   -0.7550 O.3    35  DA35       -0.3114
    688  C5'      -13.9050    0.3210   -0.7980 C.3    35  DA35        0.1811
    689  C4'      -12.8060    1.0200   -0.0410 C.3    35  DA35        0.1746
    690  O4'      -12.4510    0.2960    1.1640 O.3    35  DA35       -0.3327
    691  C3'      -11.4650    1.1670   -0.7210 C.3    35  DA35        0.1558
    692  O3'      -11.5490    2.1700   -1.7210 O.3    35  DA35       -0.3138
    693  C2'      -10.6280    1.6230    0.4650 C.3    35  DA35        0.0865
    694  C1'      -11.1550    0.7020    1.5680 C.3    35  DA35        0.2094
    695  N9       -10.3520   -0.5470    1.8220 N.ar   35  DA35       -0.2714
    696  C8       -10.6160   -1.8430    1.4630 C.ar   35  DA35        0.1815
    697  N7        -9.9790   -2.7330    2.1870 N.ar   35  DA35       -0.2193
    698  C5        -9.2450   -1.9700    3.0810 C.ar   35  DA35        0.1518
    699  C6        -8.3600   -2.3170    4.1170 C.ar   35  DA35        0.1919
    700  N6        -8.0550   -3.5760    4.4370 N.pl3  35  DA35       -0.1054
    701  N1        -7.7940   -1.3130    4.8200 N.ar   35  DA35       -0.2040
    702  C2        -8.1020   -0.0510    4.4980 C.ar   35  DA35        0.2016
    703  N3        -8.9180    0.4000    3.5480 N.ar   35  DA35       -0.2048
    704  C4        -9.4640   -0.6220    2.8680 C.ar   35  DA35        0.1691
    705  P        -10.3550    2.3400   -2.8890 P.3    36  DC36        0.2141
    706  OP1      -10.3890    3.0000   -4.2060 O.2    36  DC36       -0.5172
    707  OP2      -10.4070    0.8700   -2.8070 O.3    36  DC36       -0.4373
    708  O5'       -8.9980    2.7270   -2.1400 O.3    36  DC36       -0.3114
    709  C5'       -8.3800    3.9730   -2.4110 C.3    36  DC36        0.1811
    710  C4'       -7.3900    4.3300   -1.3340 C.3    36  DC36        0.1746
    711  O4'       -7.8230    3.7410   -0.0850 O.3    36  DC36       -0.3327
    712  C3'       -5.9880    3.7690   -1.4850 C.3    36  DC36        0.1558
    713  O3'       -5.1910    4.4500   -2.4300 O.3    36  DC36       -0.3138
    714  C2'       -5.4610    3.8450   -0.0600 C.3    36  DC36        0.0866
    715  C1'       -6.6980    3.3650    0.6800 C.3    36  DC36        0.2106
    716  N1        -6.6770    1.8950    0.8410 N.ar   36  DC36       -0.2556
    717  C2        -5.8430    1.2420    1.7550 C.ar   36  DC36        0.3531
    718  O2        -5.0350    1.9170    2.4160 O.2    36  DC36       -0.2443
    719  N3        -5.9400   -0.1020    1.8930 N.ar   36  DC36       -0.1739
    720  C4        -6.8220   -0.7850    1.1620 C.ar   36  DC36        0.1759
    721  N4        -6.8810   -2.1080    1.3320 N.pl3  36  DC36       -0.1070
    722  C5        -7.6760   -0.1420    0.2300 C.ar   36  DC36        0.0566
    723  C6        -7.5770    1.1850    0.0970 C.ar   36  DC36        0.0849
    724  P         -4.8210    3.6030   -3.5160 P.3    37  DC37        0.2141
    725  OP1       -4.4030    4.7990   -4.2920 O.2    37  DC37       -0.5172
    726  OP2       -4.9320    2.2900   -4.1950 O.3    37  DC37       -0.4373
    727  O5'       -3.8630    3.4790   -2.2540 O.3    37  DC37       -0.3114
    728  C5'       -2.9700    4.5260   -1.9060 C.3    37  DC37        0.1811
    729  C4'       -1.7830    3.9710   -1.1610 C.3    37  DC37        0.1746
    730  O4'       -2.2590    3.2960    0.0330 O.3    37  DC37       -0.3327
    731  C3'       -0.9460    2.9150   -1.8770 C.3    37  DC37        0.1558
    732  O3'        0.0190    3.5330   -2.7260 O.3    37  DC37       -0.3138
    733  C2'       -0.3020    2.1950   -0.7010 C.3    37  DC37        0.0866
    734  C1'       -1.4340    2.1820    0.3210 C.3    37  DC37        0.2106
    735  N1        -2.0770    0.9460    0.2990 N.ar   37  DC37       -0.2556
    736  C2        -1.6150   -0.0930    1.1140 C.ar   37  DC37        0.3531
    737  O2        -0.6630    0.1280    1.8820 O.2    37  DC37       -0.2443
    738  N3        -2.2140   -1.3060    1.0410 N.ar   37  DC37       -0.1739
    739  C4        -3.2320   -1.4970    0.2000 C.ar   37  DC37        0.1759
    740  N4        -3.7910   -2.7090    0.1620 N.pl3  37  DC37       -0.1070
    741  C5        -3.7150   -0.4570   -0.6340 C.ar   37  DC37        0.0566
    742  C6        -3.1210    0.7390   -0.5590 C.ar   37  DC37        0.0849
    743  P          1.0460    2.6060   -3.5730 P.3    38  DA38        0.2141
    744  OP1        1.5240    1.2060   -3.4900 O.2    38  DA38       -0.5172
    745  OP2        1.9270    3.7140   -3.1380 O.3    38  DA38       -0.4373
    746  O5'        0.5260    2.9450   -5.0350 O.3    38  DA38       -0.3114
    747  C5'       -0.5080    2.1750   -5.6050 C.3    38  DA38        0.1811
    748  C4'       -1.0380    2.8560   -6.8300 C.3    38  DA38        0.1746
    749  O4'       -1.6170    4.1320   -6.4450 O.3    38  DA38       -0.3327
    750  C3'        0.0120    3.2290   -7.8640 C.3    38  DA38        0.1558
    751  O3'        0.3520    2.1410   -8.7150 O.3    38  DA38       -0.3138
    752  C2'       -0.6960    4.3370   -8.6240 C.3    38  DA38        0.0865
    753  C1'       -1.4100    5.0740   -7.4840 C.3    38  DA38        0.2094
    754  N9        -0.5860    6.1330   -6.9940 N.ar   38  DA38       -0.2714
    755  C8         0.2210    6.0730   -5.8880 C.ar   38  DA38        0.1815
    756  N7         0.8390    7.2000   -5.6220 N.ar   38  DA38       -0.2193
    757  C5         0.4090    8.0570   -6.6230 C.ar   38  DA38        0.1518
    758  C6         0.7000    9.4040   -6.9030 C.ar   38  DA38        0.1919
    759  N6         1.5260   10.1510   -6.1670 N.pl3  38  DA38       -0.1054
    760  N1         0.1050    9.9630   -7.9780 N.ar   38  DA38       -0.2040
    761  C2        -0.7240    9.2140   -8.7150 C.ar   38  DA38        0.2016
    762  N3        -1.0760    7.9400   -8.5510 N.ar   38  DA38       -0.2048
    763  C4        -0.4670    7.4140   -7.4760 C.ar   38  DA38        0.1691
    764  P          1.9140    2.0720   -9.4940 P.3    39  DC39        0.2141
    765  OP1        1.9230    0.8000  -10.2500 O.2    39  DC39       -0.5172
    766  OP2        3.0120    2.3880   -8.5550 O.3    39  DC39       -0.4373
    767  O5'        1.7890    3.2670  -10.5480 O.3    39  DC39       -0.3114
    768  C5'        1.2920    3.0370  -11.8610 C.3    39  DC39        0.1811
    769  C4'        0.9800    4.3590  -12.5430 C.3    39  DC39        0.1746
    770  O4'        0.4850    5.3190  -11.5740 O.3    39  DC39       -0.3327
    771  C3'        2.1670    5.0710  -13.1710 C.3    39  DC39        0.1558
    772  O3'        2.4620    4.5200  -14.4440 O.3    39  DC39       -0.3138
    773  C2'        1.6050    6.4800  -13.2910 C.3    39  DC39        0.0866
    774  C1'        0.8960    6.6220  -11.9470 C.3    39  DC39        0.2106
    775  N1         1.7650    7.2140  -10.9390 N.ar   39  DC39       -0.2556
    776  C2         1.9500    8.5990  -10.8490 C.ar   39  DC39        0.3531
    777  O2         1.5010    9.3220  -11.7550 O.2    39  DC39       -0.2443
    778  N3         2.6100    9.1080   -9.7820 N.ar   39  DC39       -0.1739
    779  C4         3.0760    8.2940   -8.8340 C.ar   39  DC39        0.1759
    780  N4         3.7200    8.8420   -7.8010 N.pl3  39  DC39       -0.1070
    781  C5         2.8990    6.8880   -8.9070 C.ar   39  DC39        0.0566
    782  C6         2.2460    6.3890   -9.9620 C.ar   39  DC39        0.0849
    783  P          3.9010    4.6400  -15.0490 P.3    40  DT40        0.2141
    784  OP1        4.4240    3.6860  -16.0650 O.2    40  DT40       -0.5172
    785  OP2        4.7360    4.9990  -13.8700 O.3    40  DT40       -0.4373
    786  O5'        3.4270    5.9960  -15.7540 O.3    40  DT40       -0.3114
    787  C5'        2.5140    5.9780  -16.8660 C.3    40  DT40        0.1811
    788  C4'        2.0650    7.3770  -17.2220 C.3    40  DT40        0.1767
    789  O4'        1.4520    7.9780  -16.0560 O.3    40  DT40       -0.3327
    790  C3'        3.1800    8.3280  -17.6080 C.3    40  DT40        0.2180
    791  O3'        3.5170    8.2230  -18.9910 O.3    40  DT40       -0.2106
    792  C2'        2.6070    9.6870  -17.2360 C.3    40  DT40        0.0586
    793  C1'        1.7920    9.3540  -15.9840 C.3    40  DT40        0.2082
    794  N1         2.4780    9.5510  -14.6970 N.ar   40  DT40       -0.2559
    795  C2         2.5670   10.8610  -14.2670 C.ar   40  DT40        0.3545
    796  O2         2.0170   11.7870  -14.8380 O.2    40  DT40       -0.2443
    797  N3         3.3270   11.0520  -13.1380 N.ar   40  DT40       -0.1533
    798  C4         3.9920   10.0860  -12.4130 C.ar   40  DT40        0.2804
    799  O4         4.6350   10.4120  -11.4180 O.2    40  DT40       -0.2654
    800  C5         3.8520    8.7510  -12.9230 C.ar   40  DT40        0.0534
    801  C6         3.1190    8.5370  -14.0190 C.ar   40  DT40        0.0824
    802  C7         4.5390    7.6290  -12.2030 C.3    40  DT40        0.0377
    803  P          4.7600    9.0230  -19.5950 P.3    41  DT41        0.3939
    804  OP1        6.0810    8.8380  -20.2440 O.3    41  DT41       -0.1425
    805  OP2        4.4050    8.1790  -18.4120 O.3    41  DT41       -0.1495
    806  O5'        4.6600   10.5740  -19.1960 O.3    41  DT41       -0.2926
    807  C5'        3.6920   11.3170  -19.9190 C.3    41  DT41        0.1828
    808  C4'        3.6090   12.7240  -19.4290 C.3    41  DT41        0.1747
    809  O4'        3.3900   12.6730  -18.0000 O.3    41  DT41       -0.3327
    810  C3'        4.9000   13.5070  -19.6140 C.3    41  DT41        0.1558
    811  O3'        5.0690   14.0240  -20.9390 O.3    41  DT41       -0.3138
    812  C2'        4.6210   14.6030  -18.6060 C.3    41  DT41        0.0866
    813  C1'        4.0370   13.7880  -17.4340 C.3    41  DT41        0.2106
    814  N1         4.8930   13.3870  -16.3430 N.ar   41  DT41       -0.2559
    815  C2         5.2310   14.2830  -15.3480 C.ar   41  DT41        0.3545
    816  O2         4.8470   15.4390  -15.3360 O.2    41  DT41       -0.2443
    817  N3         6.0420   13.7770  -14.3610 N.ar   41  DT41       -0.1533
    818  C4         6.5360   12.4920  -14.2710 C.ar   41  DT41        0.2804
    819  O4         7.2530   12.1850  -13.3220 O.2    41  DT41       -0.2654
    820  C5         6.1410   11.6220  -15.3420 C.ar   41  DT41        0.0534
    821  C6         5.3530   12.0880  -16.3150 C.ar   41  DT41        0.0824
    822  C7         6.6280   10.2030  -15.3350 C.3    41  DT41        0.0377
    823  P          6.6070   14.1740  -21.5890 P.3    42  DC42        0.2141
    824  OP1        6.6180   13.8730  -23.0360 O.2    42  DC42       -0.5172
    825  OP2        7.1420   13.0130  -20.8240 O.3    42  DC42       -0.4373
    826  O5'        7.4120   15.4900  -21.0600 O.3    42  DC42       -0.3114
    827  C5'        6.5350   16.6550  -21.1830 C.3    42  DC42        0.1811
    828  C4'        6.8920   17.5630  -20.0470 C.3    42  DC42        0.1746
    829  O4'        6.5040   17.0900  -18.7930 O.3    42  DC42       -0.3327
    830  C3'        8.3810   17.8960  -19.8730 C.3    42  DC42        0.1558
    831  O3'        8.8010   18.8130  -20.8740 O.3    42  DC42       -0.3138
    832  C2'        8.3200   18.5930  -18.5000 C.3    42  DC42        0.0866
    833  C1'        7.3680   17.6980  -17.8050 C.3    42  DC42        0.2106
    834  N1         7.9720   16.6230  -16.9870 N.ar   42  DC42       -0.2556
    835  C2         8.6070   16.9740  -15.7900 C.ar   42  DC42        0.3531
    836  O2         8.5600   18.1570  -15.4130 O.2    42  DC42       -0.2443
    837  N3         9.2530   16.0180  -15.0810 N.ar   42  DC42       -0.1739
    838  C4         9.2790   14.7600  -15.5240 C.ar   42  DC42        0.1759
    839  N4         9.9270   13.8520  -14.7920 N.pl3  42  DC42       -0.1070
    840  C5         8.6410   14.3840  -16.7340 C.ar   42  DC42        0.0566
    841  C6         8.0050   15.3310  -17.4320 C.ar   42  DC42        0.0849
    842  P         10.5170   18.9710  -21.1910 P.3    43  DC43        0.2141
    843  OP1       10.9720   19.8300  -22.3090 O.2    43  DC43       -0.5172
    844  OP2       11.0950   17.6090  -21.0410 O.3    43  DC43       -0.4373
    845  O5'       10.7550   19.7830  -19.8380 O.3    43  DC43       -0.3114
    846  C5'       10.3810   21.1710  -19.7250 C.3    43  DC43        0.1811
    847  C4'       11.0300   21.8000  -18.5100 C.3    43  DC43        0.1746
    848  O4'       10.6000   21.1100  -17.3080 O.3    43  DC43       -0.3327
    849  C3'       12.5460   21.7290  -18.4430 C.3    43  DC43        0.1558
    850  O3'       13.1600   22.7480  -19.2140 O.3    43  DC43       -0.3138
    851  C2'       12.8110   21.9090  -16.9560 C.3    43  DC43        0.0866
    852  C1'       11.6520   21.1190  -16.3510 C.3    43  DC43        0.2106
    853  N1        12.0470   19.7120  -16.0600 N.ar   43  DC43       -0.2556
    854  C2        12.8220   19.4900  -14.9160 C.ar   43  DC43        0.3531
    855  O2        13.1060   20.4580  -14.1900 O.2    43  DC43       -0.2443
    856  N3        13.2380   18.2330  -14.6340 N.ar   43  DC43       -0.1739
    857  C4        12.9100   17.2240  -15.4430 C.ar   43  DC43        0.1759
    858  N4        13.3420   16.0020  -15.1250 N.pl3  43  DC43       -0.1070
    859  C5        12.1260   17.4280  -16.6070 C.ar   43  DC43        0.0566
    860  C6        11.7170   18.6710  -16.8820 C.ar   43  DC43        0.0849
    861  P         14.7150   22.5600  -19.7880 P.3    44  DG44        0.2141
    862  OP1       15.0770   23.8280  -20.4630 O.3    44  DG44       -0.4373
    863  OP2       14.7890   21.2840  -20.5300 O.2    44  DG44       -0.5172
    864  O5'       15.6350   22.3210  -18.4930 O.3    44  DG44       -0.3114
    865  C5'       15.9010   23.3780  -17.5780 C.3    44  DG44        0.1811
    866  C4'       16.7120   22.9340  -16.3800 C.3    44  DG44        0.1746
    867  O4'       16.0270   21.8600  -15.6880 O.3    44  DG44       -0.3327
    868  C3'       18.1070   22.3820  -16.6520 C.3    44  DG44        0.1558
    869  O3'       19.0800   23.4000  -16.8360 O.3    44  DG44       -0.3138
    870  C2'       18.3630   21.4930  -15.4360 C.3    44  DG44        0.0865
    871  C1'       16.9620   20.9570  -15.1440 C.3    44  DG44        0.2093
    872  N9        16.6560   19.5950  -15.6550 N.ar   44  DG44       -0.2728
    873  C8        15.8760   19.2040  -16.7160 C.ar   44  DG44        0.1814
    874  N7        15.8480   17.9110  -16.8870 N.ar   44  DG44       -0.2177
    875  C5        16.6540   17.4140  -15.8790 C.ar   44  DG44        0.1711
    876  C6        17.0090   16.0800  -15.5540 C.2    44  DG44        0.2985
    877  O6        16.6620   15.0360  -16.1190 O.2    44  DG44       -0.2655
    878  N1        17.8560   16.0210  -14.4500 N.am   44  DG44       -0.1042
    879  C2        18.3040   17.1130  -13.7470 C.1    44  DG44        0.1460
    880  N2        19.1140   16.8560  -12.7100 N.2    44  DG44       -0.0024
    881  N3        17.9840   18.3580  -14.0370 N.pl3  44  DG44       -0.1259
    882  C4        17.1630   18.4400  -15.1060 C.ar   44  DG44        0.1688
    883  P         20.4070   23.2690  -17.8250 P.3    45  DG45        0.2141
    884  OP1       21.2100   24.5080  -17.9570 O.3    45  DG45       -0.4373
    885  OP2       19.9500   22.5570  -19.0440 O.2    45  DG45       -0.5172
    886  O5'       21.2060   22.2320  -16.9200 O.3    45  DG45       -0.3114
    887  C5'       21.7250   22.6130  -15.6360 C.3    45  DG45        0.1811
    888  C4'       22.2550   21.4000  -14.9060 C.3    45  DG45        0.1746
    889  O4'       21.1560   20.5240  -14.5460 O.3    45  DG45       -0.3327
    890  C3'       23.2170   20.5090  -15.6760 C.3    45  DG45        0.1558
    891  O3'       24.5580   20.9510  -15.5970 O.3    45  DG45       -0.3138
    892  C2'       23.0770   19.1750  -14.9620 C.3    45  DG45        0.0865
    893  C1'       21.5980   19.1790  -14.5680 C.3    45  DG45        0.2094
    894  N9        20.7770   18.4160  -15.5120 N.ar   45  DG45       -0.2713
    895  C8        20.0400   18.8520  -16.5860 C.ar   45  DG45        0.1816
    896  N7        19.5590   17.8780  -17.3100 N.ar   45  DG45       -0.2173
    897  C5        20.0010   16.7310  -16.6790 C.ar   45  DG45        0.1748
    898  C6        19.8000   15.3640  -17.0010 C.ar   45  DG45        0.3023
    899  O6        19.1630   14.8850  -17.9480 O.2    45  DG45       -0.2633
    900  N1        20.4280   14.5170  -16.0920 N.ar   45  DG45       -0.1709
    901  C2        21.1600   14.9350  -15.0070 C.ar   45  DG45        0.2606
    902  N2        21.6900   13.9700  -14.2430 N.pl3  45  DG45       -0.0859
    903  N3        21.3560   16.2010  -14.6950 N.ar   45  DG45       -0.1918
    904  C4        20.7560   17.0420  -15.5640 C.ar   45  DG45        0.1722
    905  P         25.6580   20.3780  -16.6400 P.3    46  DA46        0.2141
    906  OP1       26.8200   21.2100  -17.0550 O.3    46  DA46       -0.4373
    907  OP2       24.5250   20.1920  -17.5890 O.2    46  DA46       -0.5172
    908  O5'       26.1860   18.9380  -16.1550 O.3    46  DA46       -0.3114
    909  C5'       27.5880   18.6680  -15.9230 C.3    46  DA46        0.1811
    910  C4'       27.8260   17.2110  -15.4790 C.3    46  DA46        0.1746
    911  O4'       26.6070   16.6460  -14.9180 O.3    46  DA46       -0.3327
    912  C3'       28.2680   16.1740  -16.5190 C.3    46  DA46        0.1558
    913  O3'       29.6660   16.1400  -16.7800 O.3    46  DA46       -0.3138
    914  C2'       27.8540   14.8600  -15.8820 C.3    46  DA46        0.0865
    915  C1'       26.5510   15.2550  -15.1980 C.3    46  DA46        0.2094
    916  N9        25.3450   15.0240  -16.1060 N.ar   46  DA46       -0.2714
    917  C8        24.7320   15.9520  -16.9050 C.ar   46  DA46        0.1815
    918  N7        23.7430   15.4670  -17.6170 N.ar   46  DA46       -0.2193
    919  C5        23.7040   14.1280  -17.2620 C.ar   46  DA46        0.1518
    920  C6        22.8770   13.0650  -17.6660 C.ar   46  DA46        0.1919
    921  N6        21.8880   13.1950  -18.5540 N.pl3  46  DA46       -0.1054
    922  N1        23.1040   11.8520  -17.1200 N.ar   46  DA46       -0.2040
    923  C2        24.0940   11.7240  -16.2300 C.ar   46  DA46        0.2016
    924  N3        24.9370   12.6460  -15.7700 N.ar   46  DA46       -0.2048
    925  C4        24.6860   13.8400  -16.3330 C.ar   46  DA46        0.1691
    926  P         30.1930   15.8950  -18.3380 P.3    47  DA47        0.2141
    927  OP1       31.6500   16.1310  -18.2390 O.3    47  DA47       -0.4373
    928  OP2       29.3920   16.6260  -19.3420 O.2    47  DA47       -0.5172
    929  O5'       29.9430   14.3290  -18.5540 O.3    47  DA47       -0.3114
    930  C5'       30.7180   13.3820  -17.8220 C.3    47  DA47        0.1811
    931  C4'       30.0990   12.0010  -17.9080 C.3    47  DA47        0.1746
    932  O4'       28.7230   12.0590  -17.4570 O.3    47  DA47       -0.3327
    933  C3'       29.9740   11.4140  -19.3020 C.3    47  DA47        0.1558
    934  O3'       31.1990   10.8710  -19.7390 O.3    47  DA47       -0.3138
    935  C2'       28.9430   10.3300  -19.0310 C.3    47  DA47        0.0865
    936  C1'       27.9500   11.1190  -18.1810 C.3    47  DA47        0.2094
    937  N9        26.8960   11.7970  -19.0230 N.ar   47  DA47       -0.2714
    938  C8        26.8190   13.1380  -19.2970 C.ar   47  DA47        0.1815
    939  N7        25.6870   13.5000  -19.8530 N.ar   47  DA47       -0.2193
    940  C5        24.9720   12.3170  -19.9520 C.ar   47  DA47        0.1518
    941  C6        23.6920   12.0240  -20.4540 C.ar   47  DA47        0.1919
    942  N6        22.8730   12.9420  -20.9720 N.pl3  47  DA47       -0.1054
    943  N1        23.2790   10.7390  -20.4050 N.ar   47  DA47       -0.2040
    944  C2        24.1000    9.8200  -19.8840 C.ar   47  DA47        0.2016
    945  N3        25.3220    9.9730  -19.3810 N.ar   47  DA47       -0.2048
    946  C4        25.7040   11.2590  -19.4450 C.ar   47  DA47        0.1691
    947  P         31.6680   11.1470  -21.1990 P.3    48  DA48        0.2141
    948  OP1       33.0940   10.8400  -21.1760 O.3    48  DA48       -0.4373
    949  OP2       31.1290   12.4730  -21.6110 O.2    48  DA48       -0.5172
    950  O5'       30.8020   10.0670  -21.9850 O.3    48  DA48       -0.3114
    951  C5'       31.3960    8.8270  -22.1680 C.3    48  DA48        0.1811
    952  C4'       30.2780    7.8320  -22.3140 C.3    48  DA48        0.1746
    953  O4'       29.2170    8.3900  -21.5710 O.3    48  DA48       -0.3327
    954  C3'       29.6320    7.7010  -23.6610 C.3    48  DA48        0.1558
    955  O3'       30.3380    6.8250  -24.5550 O.3    48  DA48       -0.3138
    956  C2'       28.3520    7.0940  -23.1760 C.3    48  DA48        0.0865
    957  C1'       27.9740    8.0380  -22.1340 C.3    48  DA48        0.2094
    958  N9        27.1880    9.0800  -22.7080 N.ar   48  DA48       -0.2714
    959  C8        27.5790   10.3790  -22.5160 C.ar   48  DA48        0.1815
    960  N7        26.6410   11.2590  -22.7780 N.ar   48  DA48       -0.2193
    961  C5        25.5600   10.4840  -23.1690 C.ar   48  DA48        0.1518
    962  C6        24.2560   10.8170  -23.5760 C.ar   48  DA48        0.1919
    963  N6        23.8050   12.0710  -23.6590 N.pl3  48  DA48       -0.1054
    964  N1        23.4240    9.8050  -23.8990 N.ar   48  DA48       -0.2040
    965  C2        23.8770    8.5490  -23.8150 C.ar   48  DA48        0.2016
    966  N3        25.0780    8.1110  -23.4450 N.ar   48  DA48       -0.2048
    967  C4        25.8820    9.1410  -23.1320 C.ar   48  DA48        0.1691
    968  P         30.8280    7.5470  -25.9270 P.3    49  DT49        0.2141
    969  OP1       32.0740    6.7560  -26.1050 O.3    49  DT49       -0.4373
    970  OP2       30.8070    8.9850  -26.2810 O.2    49  DT49       -0.5172
    971  O5'       29.6400    6.8320  -26.7210 O.3    49  DT49       -0.3114
    972  C5'       29.3730    5.4440  -26.5470 C.3    49  DT49        0.1811
    973  C4'       27.9980    5.1040  -27.0890 C.3    49  DT49        0.1746
    974  O4'       26.9740    5.7890  -26.3100 O.3    49  DT49       -0.3327
    975  C3'       27.7280    5.4980  -28.5370 C.3    49  DT49        0.1558
    976  O3'       28.1910    4.5040  -29.4630 O.3    49  DT49       -0.3138
    977  C2'       26.2070    5.6230  -28.5630 C.3    49  DT49        0.0866
    978  C1'       25.8960    6.1410  -27.1510 C.3    49  DT49        0.2106
    979  N1        25.6580    7.6670  -26.9900 N.ar   49  DT49       -0.2559
    980  C2        24.3780    8.0700  -27.3200 C.ar   49  DT49        0.3545
    981  O2        23.4900    7.2880  -27.6110 O.2    49  DT49       -0.2443
    982  N3        24.1720    9.4280  -27.2980 N.ar   49  DT49       -0.1533
    983  C4        25.0980   10.4020  -26.9860 C.ar   49  DT49        0.2804
    984  O4        24.7630   11.5840  -27.0090 O.2    49  DT49       -0.2654
    985  C5        26.4040    9.9040  -26.6560 C.ar   49  DT49        0.0534
    986  C6        26.6310    8.5880  -26.6690 C.ar   49  DT49        0.0824
    987  C7        27.4820   10.8860  -26.3030 C.3    49  DT49        0.0377
    988  P         28.4860    4.8920  -31.0810 P.3    50  DA50        0.2141
    989  OP1       29.3020    3.8370  -31.7210 O.2    50  DA50       -0.5172
    990  OP2       28.5940    6.2930  -31.5440 O.3    50  DA50       -0.4373
    991  O5'       26.9580    4.4390  -31.1780 O.3    50  DA50       -0.3114
    992  C5'       26.3500    4.2430  -32.4450 C.3    50  DA50        0.1811
    993  C4'       24.8550    4.2240  -32.2260 C.3    50  DA50        0.1746
    994  O4'       24.5790    4.9260  -30.9910 O.3    50  DA50       -0.3327
    995  C3'       24.0330    4.9860  -33.2420 C.3    50  DA50        0.1558
    996  O3'       23.8490    4.1890  -34.3860 O.3    50  DA50       -0.3138
    997  C2'       22.7530    5.1870  -32.4500 C.3    50  DA50        0.0865
    998  C1'       23.3700    5.6500  -31.1360 C.3    50  DA50        0.2094
    999  N9        23.5730    7.1460  -30.9650 N.ar   50  DA50       -0.2714
   1000  C8        24.6520    7.5100  -30.2020 C.ar   50  DA50        0.1815
   1001  N7        24.6630    8.7800  -29.8730 N.ar   50  DA50       -0.2193
   1002  C5        23.5140    9.2850  -30.4610 C.ar   50  DA50        0.1518
   1003  C6        22.9520   10.5740  -30.4850 C.ar   50  DA50        0.1919
   1004  N6        23.4970   11.6290  -29.8760 N.pl3  50  DA50       -0.1054
   1005  N1        21.7970   10.7410  -31.1640 N.ar   50  DA50       -0.2040
   1006  C2        21.2510    9.6820  -31.7730 C.ar   50  DA50        0.2016
   1007  N3        21.6840    8.4240  -31.8210 N.ar   50  DA50       -0.2048
   1008  C4        22.8330    8.2910  -31.1380 C.ar   50  DA50        0.1691
   1009  P         24.7480    4.5300  -35.5530 P.3    51  DA51        0.2141
   1010  OP1       24.5680    3.4590  -36.5660 O.2    51  DA51       -0.5172
   1011  OP2       25.8390    5.5330  -35.7180 O.3    51  DA51       -0.4373
   1012  O5'       23.3980    5.3570  -35.5050 O.3    51  DA51       -0.3114
   1013  C5'       22.1650    4.7120  -35.7080 C.3    51  DA51        0.1811
   1014  C4'       21.1190    5.7230  -36.0380 C.3    51  DA51        0.1746
   1015  O4'       20.9820    6.6230  -34.9140 O.3    51  DA51       -0.3327
   1016  C3'       21.4530    6.6260  -37.2050 C.3    51  DA51        0.1558
   1017  O3'       21.1240    6.0220  -38.4310 O.3    51  DA51       -0.3138
   1018  C2'       20.6160    7.8540  -36.9160 C.3    51  DA51        0.0865
   1019  C1'       20.7050    7.9330  -35.3950 C.3    51  DA51        0.2094
   1020  N9        21.8290    8.8170  -35.0420 N.ar   51  DA51       -0.2714
   1021  C8        23.0990    8.4540  -34.6740 C.ar   51  DA51        0.1815
   1022  N7        23.8600    9.4660  -34.3310 N.ar   51  DA51       -0.2193
   1023  C5        23.0340   10.5690  -34.4850 C.ar   51  DA51        0.1518
   1024  C6        23.2450   11.9440  -34.2810 C.ar   51  DA51        0.1919
   1025  N6        24.4020   12.4600  -33.8600 N.pl3  51  DA51       -0.1054
   1026  N1        22.2130   12.7790  -34.5290 N.ar   51  DA51       -0.2040
   1027  C2        21.0540   12.2610  -34.9500 C.ar   51  DA51        0.2016
   1028  N3        20.7350   10.9890  -35.1770 N.ar   51  DA51       -0.2048
   1029  C4        21.7810   10.1850  -34.9230 C.ar   51  DA51        0.1691
   1030  P         22.1020    6.2170  -39.6480 P.3    52  DG52        0.2141
   1031  OP1       21.8410    5.5100  -40.9140 O.2    52  DG52       -0.5172
   1032  OP2       23.4620    6.7420  -39.3950 O.3    52  DG52       -0.4373
   1033  O5'       21.0510    7.3940  -39.5040 O.3    52  DG52       -0.3114
   1034  C5'       20.0690    7.6210  -40.4410 C.3    52  DG52        0.1811
   1035  C4'       19.9960    9.1000  -40.6100 C.3    52  DG52        0.1746
   1036  O4'       20.0980    9.7540  -39.3300 O.3    52  DG52       -0.3327
   1037  C3'       21.1710    9.6840  -41.3330 C.3    52  DG52        0.1558
   1038  O3'       21.1040    9.3780  -42.7200 O.3    52  DG52       -0.3138
   1039  C2'       20.9980   11.1600  -40.9900 C.3    52  DG52        0.0865
   1040  C1'       20.6150   11.0570  -39.5300 C.3    52  DG52        0.2094
   1041  N9        21.7000   11.1420  -38.6670 N.ar   52  DG52       -0.2713
   1042  C8        22.4610   10.1060  -38.1840 C.ar   52  DG52        0.1816
   1043  N7        23.5800   10.4990  -37.6380 N.ar   52  DG52       -0.2173
   1044  C5        23.5580   11.8750  -37.7640 C.ar   52  DG52        0.1748
   1045  C6        24.5010   12.8550  -37.3590 C.ar   52  DG52        0.3025
   1046  O6        25.5840   12.6840  -36.7860 O.2    52  DG52       -0.2633
   1047  N1        24.0850   14.1430  -37.6830 N.ar   52  DG52       -0.1685
   1048  C2        22.9060   14.4500  -38.3180 C.ar   52  DG52        0.2746
   1049  N2        22.6780   15.7510  -38.5440 N.ar   52  DG52       -0.1050
   1050  N3        22.0200   13.5520  -38.7000 N.ar   52  DG52       -0.1895
   1051  C4        22.4030   12.2930  -38.3970 C.ar   52  DG52        0.1725
   1052  P         22.5170    9.5330  -43.8420 P.3    53  DA53        0.2141
   1053  OP1       22.0870    9.0700  -45.1810 O.2    53  DA53       -0.5172
   1054  OP2       23.7970    9.0790  -43.2510 O.3    53  DA53       -0.4373
   1055  O5'       22.6540   11.1240  -43.8940 O.3    53  DA53       -0.3114
   1056  C5'       21.5290   11.9160  -44.2220 C.3    53  DA53        0.1811
   1057  C4'       21.7200   13.3210  -43.7210 C.3    53  DA53        0.1746
   1058  O4'       21.7570   13.3420  -42.2700 O.3    53  DA53       -0.3327
   1059  C3'       23.0350   13.9690  -44.1020 C.3    53  DA53        0.1558
   1060  O3'       23.0750   14.3950  -45.4500 O.3    53  DA53       -0.3138
   1061  C2'       23.1370   15.0970  -43.0840 C.3    53  DA53        0.0865
   1062  C1'       22.5950   14.3960  -41.8390 C.3    53  DA53        0.2094
   1063  N9        23.6810   13.8240  -41.0900 N.ar   53  DA53       -0.2714
   1064  C8        23.9270   12.4930  -40.8720 C.ar   53  DA53        0.1815
   1065  N7        24.9490   12.2670  -40.0810 N.ar   53  DA53       -0.2193
   1066  C5        25.4060   13.5340  -39.7580 C.ar   53  DA53        0.1518
   1067  C6        26.4670   13.9800  -38.9510 C.ar   53  DA53        0.1919
   1068  N6        27.2920   13.1600  -38.2960 N.pl3  53  DA53       -0.1054
   1069  N1        26.6520   15.3130  -38.8400 N.ar   53  DA53       -0.2040
   1070  C2        25.8240   16.1340  -39.4960 C.ar   53  DA53        0.2016
   1071  N3        24.7930   15.8350  -40.2820 N.ar   53  DA53       -0.2048
   1072  C4        24.6360   14.5030  -40.3730 C.ar   53  DA53        0.1691
   1073  P         24.2570   13.7280  -46.3030 P.3    54  DG54        0.2141
   1074  OP1       23.5440   14.1170  -47.5380 O.2    54  DG54       -0.5172
   1075  OP2       25.0330   12.4710  -46.2440 O.3    54  DG54       -0.4373
   1076  O5'       25.3160   14.8550  -45.9030 O.3    54  DG54       -0.3114
   1077  C5'       24.9570   16.2100  -46.1170 C.3    54  DG54        0.1811
   1078  C4'       25.5760   17.1330  -45.0980 C.3    54  DG54        0.1746
   1079  O4'       25.3800   16.6030  -43.7620 O.3    54  DG54       -0.3327
   1080  C3'       27.0810   17.3080  -45.1730 C.3    54  DG54        0.1558
   1081  O3'       27.5060   18.1470  -46.2270 O.3    54  DG54       -0.3138
   1082  C2'       27.3860   17.8600  -43.7900 C.3    54  DG54        0.0865
   1083  C1'       26.4680   16.9810  -42.9460 C.3    54  DG54        0.2094
   1084  N9        27.1160   15.7650  -42.4930 N.ar   54  DG54       -0.2713
   1085  C8        26.6790   14.5030  -42.8170 C.ar   54  DG54        0.1816
   1086  N7        27.2890   13.5600  -42.1540 N.ar   54  DG54       -0.2173
   1087  C5        28.1810   14.2340  -41.3410 C.ar   54  DG54        0.1748
   1088  C6        29.1210   13.7450  -40.3960 C.ar   54  DG54        0.3023
   1089  O6        29.3520   12.5710  -40.0830 O.2    54  DG54       -0.2633
   1090  N1        29.8310   14.7760  -39.7880 N.ar   54  DG54       -0.1709
   1091  C2        29.6590   16.1130  -40.0560 C.ar   54  DG54        0.2606
   1092  N2        30.4360   16.9590  -39.3680 N.pl3  54  DG54       -0.0859
   1093  N3        28.7910   16.5820  -40.9320 N.ar   54  DG54       -0.1918
   1094  C4        28.0900   15.5990  -41.5350 C.ar   54  DG54        0.1722
   1095  P         28.9060   17.7360  -46.9240 P.3    55  DT55        0.2141
   1096  OP1       29.2470   18.6140  -48.0750 O.2    55  DT55       -0.5172
   1097  OP2       28.6150   16.2960  -47.1630 O.3    55  DT55       -0.4373
   1098  O5'       30.0820   17.8370  -45.8490 O.3    55  DT55       -0.3114
   1099  C5'       30.6190   19.1200  -45.4560 C.3    55  DT55        0.1811
   1100  C4'       31.6120   18.9640  -44.3220 C.3    55  DT55        0.1746
   1101  O4'       30.9810   18.2630  -43.2190 O.3    55  DT55       -0.3327
   1102  C3'       32.8830   18.1710  -44.6020 C.3    55  DT55        0.1558
   1103  O3'       33.8990   18.9860  -45.1890 O.3    55  DT55       -0.3138
   1104  C2'       33.3030   17.7020  -43.2130 C.3    55  DT55        0.0866
   1105  C1'       31.9550   17.5050  -42.5170 C.3    55  DT55        0.2106
   1106  N1        31.5560   16.1000  -42.5340 N.ar   55  DT55       -0.2568
   1107  C2        32.1120   15.2890  -41.5620 C.ar   55  DT55        0.3417
   1108  O2        32.8710   15.7050  -40.7050 O.3    55  DT55       -0.2852
   1109  N3        31.7460   13.9670  -41.6300 N.ar   55  DT55       -0.1543
   1110  C4        30.8990   13.3860  -42.5510 C.ar   55  DT55        0.2804
   1111  O4        30.6650   12.1820  -42.4830 O.2    55  DT55       -0.2654
   1112  C5        30.3640   14.2930  -43.5280 C.ar   55  DT55        0.0534
   1113  C6        30.7030   15.5840  -43.4850 C.ar   55  DT55        0.0824
   1114  C7        29.4330   13.7570  -44.5750 C.3    55  DT55        0.0377
   1115  P         34.8010   18.0980  -45.3600 P.3    56  DG56        0.2141
   1116  OP1       35.7440   19.1670  -45.7570 O.3    56  DG56       -0.4373
   1117  OP2       34.7710   16.8310  -46.1200 O.2    56  DG56       -0.5172
   1118  O5'       35.0340   17.7390  -43.8210 O.3    56  DG56       -0.3114
   1119  C5'       36.0780   16.8670  -43.4000 C.3    56  DG56        0.1811
   1120  C4'       36.6240   17.3240  -42.0620 C.3    56  DG56        0.1748
   1121  O4'       37.1350   18.6760  -42.1980 O.3    56  DG56       -0.3327
   1122  C3'       35.6280   17.4040  -40.9160 C.3    56  DG56        0.1602
   1123  O3'       35.5420   16.1440  -40.2650 O.3    56  DG56       -0.2710
   1124  C2'       36.2600   18.4440  -39.9990 C.3    56  DG56        0.0867
   1125  C1'       36.8670   19.4090  -41.0170 C.3    56  DG56        0.2094
   1126  N9        35.9080   20.5430  -41.5570 N.ar   56  DG56       -0.2713
   1127  C8        35.3400   20.7200  -42.7960 C.ar   56  DG56        0.1816
   1128  N7        34.5140   21.7290  -42.8450 N.ar   56  DG56       -0.2173
   1129  C5        34.5370   22.2540  -41.5660 C.ar   56  DG56        0.1748
   1130  C6        33.8430   23.3580  -41.0080 C.ar   56  DG56        0.3023
   1131  O6        33.0400   24.1180  -41.5640 O.2    56  DG56       -0.2633
   1132  N1        34.1570   23.5450  -39.6650 N.ar   56  DG56       -0.1709
   1133  C2        35.0310   22.7650  -38.9470 C.ar   56  DG56        0.2606
   1134  N2        35.2060   23.1020  -37.6620 N.pl3  56  DG56       -0.0859
   1135  N3        35.6830   21.7360  -39.4510 N.ar   56  DG56       -0.1918
   1136  C4        35.3930   21.5340  -40.7540 C.ar   56  DG56        0.1722
   1137  P         34.7230   15.8140  -39.0760 P.3    57  DG57        0.5146
   1138  OP1       35.0950   14.5500  -38.3640 O.2    57  DG57       -0.2240
   1139  OP2       33.4740   15.8650  -39.8820 O.3    57  DG57       -0.0705
   1140  O5'       34.6860   17.0140  -38.0190 O.3    57  DG57       -0.2685
   1141  C5'       35.8240   17.3210  -37.1900 C.3    57  DG57        0.1858
   1142  C4'       35.6100   18.6340  -36.4600 C.3    57  DG57        0.1777
   1143  O4'       35.4730   19.6960  -37.4430 O.3    57  DG57       -0.3325
   1144  C3'       34.3480   18.7310  -35.6010 C.3    57  DG57        0.1887
   1145  O3'       34.5400   18.2540  -34.2630 O.3    57  DG57       -0.2132
   1146  C2'       34.0440   20.2290  -35.6000 C.3    57  DG57        0.1127
   1147  C1'       34.5460   20.6700  -36.9800 C.3    57  DG57        0.2118
   1148  N9        33.5640   20.8720  -37.9560 N.ar   57  DG57       -0.2713
   1149  C8        33.3740   20.0660  -39.0520 C.ar   57  DG57        0.1816
   1150  N7        32.3710   20.4410  -39.7990 N.ar   57  DG57       -0.2173
   1151  C5        31.8690   21.5610  -39.1630 C.ar   57  DG57        0.1748
   1152  C6        30.7790   22.4040  -39.5000 C.ar   57  DG57        0.3023
   1153  O6        30.0150   22.3170  -40.4690 O.2    57  DG57       -0.2633
   1154  N1        30.6110   23.4320  -38.5770 N.ar   57  DG57       -0.1709
   1155  C2        31.3970   23.6250  -37.4660 C.ar   57  DG57        0.2606
   1156  N2        31.0810   24.6740  -36.6940 N.pl3  57  DG57       -0.0859
   1157  N3        32.4120   22.8510  -37.1390 N.ar   57  DG57       -0.1918
   1158  C4        32.5940   21.8450  -38.0210 C.ar   57  DG57        0.1722
   1159  P         33.2520   17.6400  -33.4160 P.3    58  DT58        0.3938
   1160  OP1       34.4940   18.3030  -32.9500 O.3    58  DT58       -0.1496
   1161  OP2       32.2630   17.1650  -32.4240 O.3    58  DT58       -0.1425
   1162  O5'       32.5020   18.6110  -34.4340 O.3    58  DT58       -0.2950
   1163  C5'       32.5700   20.0410  -34.3700 C.3    58  DT58        0.1597
   1164  C4'       31.3240   20.5980  -35.0070 C.3    58  DT58        0.1724
   1165  O4'       31.1760   19.8860  -36.2650 O.3    58  DT58       -0.3328
   1166  C3'       30.1000   20.2280  -34.1690 C.3    58  DT58        0.1557
   1167  O3'       29.7460   21.3750  -33.3940 O.3    58  DT58       -0.3138
   1168  C2'       29.0290   19.8450  -35.1840 C.3    58  DT58        0.0866
   1169  C1'       29.8360   19.4780  -36.4340 C.3    58  DT58        0.2106
   1170  N1        29.7100   18.1610  -36.6280 N.ar   58  DT58       -0.2559
   1171  C2        28.7480   17.5920  -37.4400 C.ar   58  DT58        0.3545
   1172  O2        28.0630   18.2400  -38.2120 O.2    58  DT58       -0.2443
   1173  N3        28.6130   16.2310  -37.3150 N.ar   58  DT58       -0.1533
   1174  C4        29.3290   15.4000  -36.4780 C.ar   58  DT58        0.2804
   1175  O4        29.0940   14.1940  -36.4790 O.2    58  DT58       -0.2654
   1176  C5        30.3080   16.0650  -35.6670 C.ar   58  DT58        0.0534
   1177  C6        30.4600   17.3880  -35.7680 C.ar   58  DT58        0.0824
   1178  C7        31.1380   15.2460  -34.7230 C.3    58  DT58        0.0377
   1179  P         28.3420   21.3650  -32.4070 P.3    59  DG59        0.2141
   1180  OP1       28.7490   22.4100  -31.4320 O.3    59  DG59       -0.4373
   1181  OP2       27.4870   20.2210  -31.9330 O.2    59  DG59       -0.5172
   1182  O5'       27.4600   22.1730  -33.4470 O.3    59  DG59       -0.3114
   1183  C5'       26.0590   22.1890  -33.3130 C.3    59  DG59        0.1811
   1184  C4'       25.4050   21.9970  -34.6570 C.3    59  DG59        0.1746
   1185  O4'       26.1430   21.0300  -35.4440 O.3    59  DG59       -0.3327
   1186  C3'       24.0320   21.3780  -34.5500 C.3    59  DG59        0.1558
   1187  O3'       23.0850   22.3410  -34.1890 O.3    59  DG59       -0.3138
   1188  C2'       23.8330   20.7700  -35.9240 C.3    59  DG59        0.0865
   1189  C1'       25.2350   20.2160  -36.1800 C.3    59  DG59        0.2094
   1190  N9        25.2170   18.7700  -35.6800 N.ar   59  DG59       -0.2713
   1191  C8        26.2570   18.3680  -34.8780 C.ar   59  DG59        0.1816
   1192  N7        26.3380   17.0720  -34.7500 N.ar   59  DG59       -0.2173
   1193  C5        25.2930   16.5860  -35.5140 C.ar   59  DG59        0.1748
   1194  C6        24.8710   15.2540  -35.7610 C.ar   59  DG59        0.3025
   1195  O6        25.3650   14.2030  -35.3340 O.2    59  DG59       -0.2633
   1196  N1        23.7590   15.2070  -36.5960 N.ar   59  DG59       -0.1685
   1197  C2        23.1300   16.3070  -37.1280 C.ar   59  DG59        0.2746
   1198  N2        22.0720   16.0610  -37.9130 N.ar   59  DG59       -0.1050
   1199  N3        23.5090   17.5500  -36.9070 N.ar   59  DG59       -0.1895
   1200  C4        24.5870   17.6200  -36.0970 C.ar   59  DG59        0.1725
   1201  P         22.2650   22.1590  -32.8560 P.3    60  DT60        0.2141
   1202  OP1       21.4080   23.2540  -32.3680 O.2    60  DT60       -0.5172
   1203  OP2       23.2000   21.4610  -31.9240 O.3    60  DT60       -0.4373
   1204  O5'       21.3900   21.0590  -33.5920 O.3    60  DT60       -0.3114
   1205  C5'       20.1940   21.4080  -34.2650 C.3    60  DT60        0.1811
   1206  C4'       19.3420   20.1810  -34.4810 C.3    60  DT60        0.1746
   1207  O4'       20.0810   19.2590  -35.3140 O.3    60  DT60       -0.3327
   1208  C3'       18.9620   19.3730  -33.2460 C.3    60  DT60        0.1558
   1209  O3'       17.8040   19.9240  -32.6030 O.3    60  DT60       -0.3138
   1210  C2'       18.7290   17.9910  -33.8410 C.3    60  DT60        0.0866
   1211  C1'       19.8160   17.9300  -34.9150 C.3    60  DT60        0.2106
   1212  N1        21.1280   17.2620  -34.4880 N.ar   60  DT60       -0.2559
   1213  C2        21.1810   15.8810  -34.5250 C.ar   60  DT60        0.3545
   1214  O2        20.2890   15.1950  -34.9910 O.2    60  DT60       -0.2443
   1215  N3        22.3220   15.3290  -33.9950 N.ar   60  DT60       -0.1533
   1216  C4        23.3910   16.0030  -33.4420 C.ar   60  DT60        0.2804
   1217  O4        24.3470   15.3670  -33.0060 O.2    60  DT60       -0.2654
   1218  C5        23.2600   17.4330  -33.4390 C.ar   60  DT60        0.0534
   1219  C6        22.1620   17.9970  -33.9490 C.ar   60  DT60        0.0824
   1220  C7        24.3710   18.2560  -32.8580 C.3    60  DT60        0.0377
   1221  P         17.4310   19.5440  -31.0470 P.3    61  DT61        0.2141
   1222  OP1       16.4070   20.5870  -30.7390 O.2    61  DT61       -0.5172
   1223  OP2       18.7360   19.5210  -30.3120 O.3    61  DT61       -0.4373
   1224  O5'       16.7420   18.0880  -30.9640 O.3    61  DT61       -0.3114
   1225  C5'       15.5080   17.6960  -31.6630 C.3    61  DT61        0.1811
   1226  C4'       15.3830   16.1690  -31.7310 C.3    61  DT61        0.1746
   1227  O4'       16.4620   15.5790  -32.5180 O.3    61  DT61       -0.3327
   1228  C3'       15.4960   15.4100  -30.4200 C.3    61  DT61        0.1558
   1229  O3'       14.2900   15.4760  -29.7130 O.3    61  DT61       -0.3138
   1230  C2'       15.8460   14.0030  -30.8970 C.3    61  DT61        0.0866
   1231  C1'       16.7530   14.2720  -32.0850 C.3    61  DT61        0.2106
   1232  N1        18.2440   14.2440  -31.6960 N.ar   61  DT61       -0.2559
   1233  C2        18.8790   13.0170  -31.7420 C.ar   61  DT61        0.3545
   1234  O2        18.3020   11.9810  -32.0230 O.2    61  DT61       -0.2443
   1235  N3        20.2200   13.0450  -31.4450 N.ar   61  DT61       -0.1533
   1236  C4        20.9740   14.1510  -31.1140 C.ar   61  DT61        0.2804
   1237  O4        22.1710   14.0180  -30.8730 O.2    61  DT61       -0.2654
   1238  C5        20.2430   15.3870  -31.0860 C.ar   61  DT61        0.0534
   1239  C6        18.9380   15.3890  -31.3710 C.ar   61  DT61        0.0824
   1240  C7        20.9750   16.6480  -30.7350 C.3    61  DT61        0.0377
   1241  P         14.3470   15.2360  -28.1860 P.3    62  DG62        0.2141
   1242  OP1       12.8710   15.4520  -28.1040 O.2    62  DG62       -0.5172
   1243  OP2       15.2370   15.8120  -27.1460 O.3    62  DG62       -0.4373
   1244  O5'       14.6400   13.6710  -28.2300 O.3    62  DG62       -0.3114
   1245  C5'       13.6950   12.7610  -28.8000 C.3    62  DG62        0.1811
   1246  C4'       14.1390   11.3310  -28.5870 C.3    62  DG62        0.1767
   1247  O4'       15.2850   11.0310  -29.4290 O.3    62  DG62       -0.3154
   1248  C3'       14.5280   10.9350  -27.1690 C.3    62  DG62        0.1581
   1249  O3'       14.0230    9.6470  -26.8880 O.3    62  DG62       -0.3138
   1250  C2'       16.0530   10.9090  -27.2190 C.3    62  DG62        0.1126
   1251  C1'       16.3120   10.4650  -28.6540 C.3    62  DG62        0.2911
   1252  N9        17.2710   10.7990  -29.1260 N.pl3  62  DG62       -0.1302
   1253  C8        17.5460   12.1410  -29.0160 C.2    62  DG62        0.2799
   1254  N7        18.7560   12.3860  -28.5930 N.2    62  DG62       -0.2096
   1255  C5        19.3170   11.1350  -28.4160 C.3    62  DG62        0.3072
   1256  C6        20.6110   10.7590  -27.9710 C.2    62  DG62        0.3535
   1257  O6        21.5490   11.4920  -27.6350 O.2    62  DG62       -0.2506
   1258  N1        20.7660    9.3760  -27.9340 N.am   62  DG62        0.0136
   1259  C2        19.7960    8.4680  -28.2830 C.2    62  DG62        0.5244
   1260  N2        20.1330    7.1750  -28.1830 N.pl3  62  DG62        0.1572
   1261  N3        18.5900    8.8020  -28.6970 N.2    62  DG62        0.0290
   1262  C4        18.4150   10.1400  -28.7400 C.2    62  DG62        0.3467
   1263  P         12.7630    9.5360  -25.5080 P.3    63  DG63        0.2141
   1264  OP1       11.4460    9.0740  -25.0000 O.2    63  DG63       -0.5172
   1265  OP2       13.3510   10.8000  -24.9900 O.3    63  DG63       -0.4373
   1266  O5'       13.8040    8.3650  -25.2630 O.3    63  DG63       -0.3114
   1267  C5'       13.6550    7.1470  -25.9650 C.3    63  DG63        0.1811
   1268  C4'       14.9060    6.3340  -25.8650 C.3    63  DG63        0.1746
   1269  O4'       16.0120    7.0250  -26.4970 O.3    63  DG63       -0.3327
   1270  C3'       15.4230    6.1320  -24.4630 C.3    63  DG63        0.1558
   1271  O3'       14.6710    5.1520  -23.7800 O.3    63  DG63       -0.3138
   1272  C2'       16.8520    5.6820  -24.7290 C.3    63  DG63        0.0865
   1273  C1'       17.2230    6.5600  -25.9250 C.3    63  DG63        0.2094
   1274  N9        18.0440    7.6980  -25.5330 N.ar   63  DG63       -0.2713
   1275  C8        17.7120    9.0290  -25.4720 C.ar   63  DG63        0.1816
   1276  N7        18.6960    9.7870  -25.0710 N.ar   63  DG63       -0.2173
   1277  C5        19.7410    8.9080  -24.8560 C.ar   63  DG63        0.1748
   1278  C6        21.0680    9.1420  -24.4120 C.ar   63  DG63        0.3023
   1279  O6        21.5960   10.2200  -24.1110 O.2    63  DG63       -0.2633
   1280  N1        21.8050    7.9640  -24.3290 N.ar   63  DG63       -0.1709
   1281  C2        21.3230    6.7140  -24.6360 C.ar   63  DG63        0.2606
   1282  N2        22.1840    5.6980  -24.4960 N.pl3  63  DG63       -0.0859
   1283  N3        20.0920    6.4810  -25.0490 N.ar   63  DG63       -0.1918
   1284  C4        19.3580    7.6110  -25.1360 C.ar   63  DG63        0.1722
   1285  P         14.9710    4.8970  -22.1830 P.3    64  DC64        0.2141
   1286  OP1       14.1610    3.7160  -21.8080 O.3    64  DC64       -0.4373
   1287  OP2       14.4720    6.2580  -21.8590 O.2    64  DC64       -0.5172
   1288  O5'       16.4590    4.7460  -21.6010 O.3    64  DC64       -0.3114
   1289  C5'       17.0840    3.4700  -21.5300 C.3    64  DC64        0.1811
   1290  C4'       18.4970    3.5710  -20.9740 C.3    64  DC64        0.1746
   1291  O4'       19.3050    4.4140  -21.8290 O.3    64  DC64       -0.3327
   1292  C3'       18.6430    4.2340  -19.6150 C.3    64  DC64        0.1558
   1293  O3'       18.3440    3.3440  -18.5670 O.3    64  DC64       -0.3138
   1294  C2'       20.1160    4.5990  -19.6130 C.3    64  DC64        0.0866
   1295  C1'       20.2910    5.0720  -21.0480 C.3    64  DC64        0.2106
   1296  N1        20.0590    6.5950  -21.1040 N.ar   64  DC64       -0.2556
   1297  C2        21.1280    7.4500  -20.8090 C.ar   64  DC64        0.3531
   1298  O2        22.1790    6.9600  -20.3630 O.2    64  DC64       -0.2443
   1299  N3        20.9850    8.7800  -21.0180 N.ar   64  DC64       -0.1739
   1300  C4        19.8380    9.2620  -21.4980 C.ar   64  DC64        0.1759
   1301  N4        19.7440   10.5800  -21.6870 N.pl3  64  DC64       -0.1070
   1302  C5        18.7430    8.4130  -21.8030 C.ar   64  DC64        0.0566
   1303  C6        18.8880    7.0990  -21.5960 C.ar   64  DC64        0.0849
   1304  P         17.4090    3.8730  -17.4500 P.3    65  DT65        0.2141
   1305  OP1       16.9360    2.8820  -16.4520 O.3    65  DT65       -0.4373
   1306  OP2       16.5490    5.0370  -17.7920 O.2    65  DT65       -0.5172
   1307  O5'       18.8350    4.4130  -16.9840 O.3    65  DT65       -0.3114
   1308  C5'       19.9490    3.5140  -16.8450 C.3    65  DT65        0.1811
   1309  C4'       21.2200    4.2840  -16.5870 C.3    65  DT65        0.1746
   1310  O4'       21.5040    5.1540  -17.7150 O.3    65  DT65       -0.3327
   1311  C3'       21.1830    5.2300  -15.4020 C.3    65  DT65        0.1558
   1312  O3'       21.4110    4.5460  -14.1790 O.3    65  DT65       -0.3138
   1313  C2'       22.3030    6.2050  -15.7340 C.3    65  DT65        0.0866
   1314  C1'       22.1420    6.3340  -17.2510 C.3    65  DT65        0.2106
   1315  N1        21.3500    7.5090  -17.6080 N.ar   65  DT65       -0.2559
   1316  C2        21.9570    8.7500  -17.5780 C.ar   65  DT65        0.3545
   1317  O2        23.1040    8.9200  -17.2030 O.2    65  DT65       -0.2443
   1318  N3        21.1700    9.7920  -18.0050 N.ar   65  DT65       -0.1533
   1319  C4        19.8660    9.7190  -18.4480 C.ar   65  DT65        0.2804
   1320  O4        19.2880   10.7450  -18.8000 O.2    65  DT65       -0.2654
   1321  C5        19.3060    8.3970  -18.4480 C.ar   65  DT65        0.0534
   1322  C6        20.0500    7.3660  -18.0390 C.ar   65  DT65        0.0824
   1323  C7        17.8920    8.2130  -18.9120 C.3    65  DT65        0.0377
   1324  P         20.6440    4.9780  -12.9520 P.3    66  DC66        0.2141
   1325  OP1       20.8640    4.3360  -11.6280 O.3    66  DC66       -0.4373
   1326  OP2       19.2710    5.2990  -13.3890 O.2    66  DC66       -0.5172
   1327  O5'       21.5170    6.3090  -13.0060 O.3    66  DC66       -0.3114
   1328  C5'       22.9050    6.3100  -12.6030 C.3    66  DC66        0.1811
   1329  C4'       23.4060    7.7280  -12.4600 C.3    66  DC66        0.1746
   1330  O4'       23.5110    8.3580  -13.7640 O.3    66  DC66       -0.3327
   1331  C3'       22.4920    8.6580  -11.6810 C.3    66  DC66        0.1558
   1332  O3'       22.6700    8.5100  -10.2850 O.3    66  DC66       -0.3138
   1333  C2'       22.9290   10.0260  -12.1720 C.3    66  DC66        0.0866
   1334  C1'       23.2010    9.7390  -13.6490 C.3    66  DC66        0.2106
   1335  N1        22.0700   10.0270  -14.5080 N.ar   66  DC66       -0.2556
   1336  C2        21.9020   11.3290  -14.9940 C.ar   66  DC66        0.3531
   1337  O2        22.7740   12.1790  -14.7420 O.2    66  DC66       -0.2443
   1338  N3        20.7990   11.6240  -15.7230 N.ar   66  DC66       -0.1739
   1339  C4        19.8900   10.6800  -15.9680 C.ar   66  DC66        0.1759
   1340  N4        18.8190   11.0170  -16.6910 N.pl3  66  DC66       -0.1070
   1341  C5        20.0410    9.3550  -15.4840 C.ar   66  DC66        0.0566
   1342  C6        21.1320    9.0680  -14.7650 C.ar   66  DC66        0.0849
   1343  P         21.2010    8.4110   -9.1540 P.3    67  DC67        0.2141
   1344  OP1       21.4480    7.7450   -7.8480 O.3    67  DC67       -0.4373
   1345  OP2       19.8820    8.2460   -9.8250 O.2    67  DC67       -0.5172
   1346  O5'       21.4170    9.9710   -8.9460 O.3    67  DC67       -0.3114
   1347  C5'       20.3610   10.7720   -8.4060 C.3    67  DC67        0.1811
   1348  C4'       20.6400   12.2410   -8.6090 C.3    67  DC67        0.1744
   1349  O4'       21.0600   12.4970   -9.9760 O.3    67  DC67       -0.3348
   1350  C3'       19.3920   13.0810   -8.4170 C.3    67  DC67        0.1555
   1351  O3'       19.1730   13.3770   -7.0440 O.3    67  DC67       -0.3139
   1352  C2'       19.6490   14.2990   -9.2950 C.3    67  DC67        0.0836
   1353  C1'       20.4410   13.6820  -10.4550 C.3    67  DC67        0.1999
   1354  N1        19.6910   13.2220  -11.5010 N.pl3  67  DC67       -0.2132
   1355  C2        19.1480   14.1830  -12.3610 C.2    67  DC67        0.4331
   1356  O2        19.5050   15.3670  -12.2370 O.2    67  DC67       -0.2850
   1357  N3        18.2510   13.7960  -13.3000 N.2    67  DC67        0.0237
   1358  C4        17.8960   12.5140  -13.3950 C.2    67  DC67        0.4172
   1359  N4        17.0090   12.1800  -14.3350 N.pl3  67  DC67        0.2162
   1360  C5        18.4350   11.5250  -12.5330 C.2    67  DC67        0.0937
   1361  C6        19.3200   11.9110  -11.6080 C.3    67  DC67        0.1340
   1362  P         17.4980   13.3190   -6.2690 P.3    68  DC68        0.2141
   1363  OP1       17.3530   13.3900   -4.7990 O.3    68  DC68       -0.4373
   1364  OP2       16.4090   12.6940   -7.0810 O.2    68  DC68       -0.5172
   1365  O5'       17.7140   14.8170   -6.7660 O.3    68  DC68       -0.3114
   1366  C5'       18.7020   15.6600   -6.1660 C.3    68  DC68        0.1811
   1367  C4'       18.6250   17.0420   -6.7640 C.3    68  DC68        0.1746
   1368  O4'       19.0570   16.9910   -8.1570 O.3    68  DC68       -0.3327
   1369  C3'       17.1980   17.5550   -6.8320 C.3    68  DC68        0.1558
   1370  O3'       16.7410   18.1380   -5.6200 O.3    68  DC68       -0.3138
   1371  C2'       17.2280   18.5120   -8.0140 C.3    68  DC68        0.0866
   1372  C1'       18.2050   17.8030   -8.9560 C.3    68  DC68        0.2106
   1373  N1        17.4720   16.9350   -9.9110 N.ar   68  DC68       -0.2556
   1374  C2        16.7350   17.5400  -10.9360 C.ar   68  DC68        0.3531
   1375  O2        16.7760   18.7770  -11.0520 O.2    68  DC68       -0.2443
   1376  N3        16.0010   16.7620  -11.7680 N.ar   68  DC68       -0.1739
   1377  C4        15.9870   15.4390  -11.6050 C.ar   68  DC68        0.1759
   1378  N4        15.2490   14.7140  -12.4490 N.pl3  68  DC68       -0.1070
   1379  C5        16.7270   14.8070  -10.5730 C.ar   68  DC68        0.0566
   1380  C6        17.4500   15.5780   -9.7540 C.ar   68  DC68        0.0849
   1381  P         15.1330   17.9540   -5.1170 P.3    69  DG69        0.2141
   1382  OP1       15.0710   18.2870   -3.6770 O.3    69  DG69       -0.4373
   1383  OP2       15.1720   16.5380   -5.5480 O.2    69  DG69       -0.5172
   1384  O5'       13.9100   18.6920   -5.8450 O.3    69  DG69       -0.3114
   1385  C5'       13.5060   19.9870   -5.4150 C.3    69  DG69        0.1811
   1386  C4'       12.7580   20.7280   -6.5100 C.3    69  DG69        0.1746
   1387  O4'       13.4320   20.5050   -7.7700 O.3    69  DG69       -0.3327
   1388  C3'       11.3320   20.2750   -6.7840 C.3    69  DG69        0.1558
   1389  O3'       10.4090   20.8700   -5.8810 O.3    69  DG69       -0.3138
   1390  C2'       11.1300   20.8210   -8.1920 C.3    69  DG69        0.0865
   1391  C1'       12.4860   20.5260   -8.8180 C.3    69  DG69        0.2094
   1392  N9        12.5020   19.1150   -9.4470 N.ar   69  DG69       -0.2713
   1393  C8        13.0830   17.9360   -9.0490 C.ar   69  DG69        0.1816
   1394  N7        12.8180   16.9360   -9.8450 N.ar   69  DG69       -0.2173
   1395  C5        12.0160   17.4840  -10.8280 C.ar   69  DG69        0.1748
   1396  C6        11.4130   16.8890  -11.9660 C.ar   69  DG69        0.3023
   1397  O6        11.4770   15.7100  -12.3380 O.2    69  DG69       -0.2633
   1398  N1        10.6750   17.8080  -12.7050 N.ar   69  DG69       -0.1709
   1399  C2        10.5340   19.1380  -12.3880 C.ar   69  DG69        0.2606
   1400  N2         9.7830   19.8690  -13.2230 N.pl3  69  DG69       -0.0859
   1401  N3        11.0880   19.7060  -11.3340 N.ar   69  DG69       -0.1918
   1402  C4        11.8090   18.8310  -10.6010 C.ar   69  DG69        0.1722
   1403  P          9.1550   20.2370   -5.7500 P.3    70  DT70        0.2141
   1404  OP1        8.0850   20.4060   -4.7430 O.3    70  DT70       -0.4373
   1405  OP2        9.9320   18.9790   -5.7860 O.2    70  DT70       -0.5172
   1406  O5'        8.5080   20.4640   -7.1930 O.3    70  DT70       -0.3114
   1407  C5'        7.5050   21.4490   -7.3880 C.3    70  DT70        0.1811
   1408  C4'        7.1660   21.5750   -8.8570 C.3    70  DT70        0.1746
   1409  O4'        8.1360   20.8760   -9.6750 O.3    70  DT70       -0.3327
   1410  C3'        5.8580   20.9070   -9.2120 C.3    70  DT70        0.1558
   1411  O3'        4.7800   21.7750   -8.9620 O.3    70  DT70       -0.3138
   1412  C2'        6.0210   20.5880  -10.6900 C.3    70  DT70        0.0866
   1413  C1'        7.4830   20.1500  -10.7060 C.3    70  DT70        0.2106
   1414  N1         7.4140   18.6060  -10.3830 N.ar   70  DT70       -0.2559
   1415  C2         7.1310   17.6910  -11.3790 C.ar   70  DT70        0.3545
   1416  O2         6.5500   17.9890  -12.4080 O.2    70  DT70       -0.2443
   1417  N3         7.5540   16.4080  -11.1280 N.ar   70  DT70       -0.1533
   1418  C4         8.2170   15.9580  -10.0050 C.ar   70  DT70        0.2804
   1419  O4         8.5340   14.7740   -9.9240 O.2    70  DT70       -0.2654
   1420  C5         8.4730   16.9670   -9.0160 C.ar   70  DT70        0.0534
   1421  C6         8.0720   18.2220   -9.2350 C.ar   70  DT70        0.0824
   1422  C7         9.1890   16.5760   -7.7570 C.3    70  DT70        0.0377
   1423  P          3.6070   21.1570   -8.2100 P.3    71  DA71        0.2141
   1424  OP1        3.0200   22.3750   -7.6250 O.2    71  DA71       -0.5172
   1425  OP2        4.0960   20.0510   -7.3490 O.3    71  DA71       -0.4373
   1426  O5'        2.5330   20.5940   -9.2560 O.3    71  DA71       -0.3115
   1427  C5'        1.9830   21.4290  -10.2900 C.3    71  DA71        0.1785
   1428  C4'        1.3950   20.5980  -11.4180 C.3    71  DA71        0.1473
   1429  O4'        2.4440   19.9020  -12.1360 O.3    71  DA71       -0.3353
   1430  C3'        0.4860   19.4550  -10.9810 C.3    71  DA71        0.0368
   1431  O3'       -0.8190   19.8950  -10.6580 O.3    71  DA71       -0.1270
   1432  C2'        0.5150   18.5690  -12.2180 C.3    71  DA71        0.0566
   1433  C1'        2.0180   18.5780  -12.4380 C.3    71  DA71        0.2069
   1434  N9         2.7430   17.5190  -11.6870 N.ar   71  DA71       -0.2715
   1435  C8         3.4160   17.6230  -10.4970 C.ar   71  DA71        0.1815
   1436  N7         4.0010   16.5100  -10.1210 N.ar   71  DA71       -0.2193
   1437  C5         3.6910   15.6150  -11.1330 C.ar   71  DA71        0.1518
   1438  C6         4.0150   14.2610  -11.3290 C.ar   71  DA71        0.1919
   1439  N6         4.7540   13.5470  -10.4770 N.pl3  71  DA71       -0.1054
   1440  N1         3.5460   13.6600  -12.4430 N.ar   71  DA71       -0.2040
   1441  C2         2.8060   14.3770  -13.2970 C.ar   71  DA71        0.2016
   1442  N3         2.4360   15.6530  -13.2220 N.ar   71  DA71       -0.2048
   1443  C4         2.9160   16.2210  -12.1030 C.ar   71  DA71        0.1691
   1444  P         -1.0880   19.9180   -9.4000 P.3    72  DT72        0.5677
   1445  OP1       -2.2080   20.3530   -8.5230 O.2    72  DT72       -0.2249
   1446  OP2        0.1700   19.4060   -8.7910 O.2    72  DT72       -0.2249
   1447  O5'       -1.6140   18.8140  -10.4230 O.3    72  DT72       -0.2092
   1448  C5'       -2.2500   17.6420   -9.9400 C.3    72  DT72        0.2146
   1449  C4'       -3.0340   16.9620  -11.0370 C.3    72  DT72        0.1783
   1450  O4'       -2.1310   16.1880  -11.8780 O.3    72  DT72       -0.3509
   1451  C3'       -4.0090   15.9340  -10.4870 C.3    72  DT72        0.1840
   1452  O3'       -5.2320   16.5430  -10.1030 O.3    72  DT72       -0.2204
   1453  C2'       -4.1290   14.9310  -11.6250 C.3    72  DT72        0.0676
   1454  C1'       -2.6950   14.9140  -12.1560 C.3    72  DT72        0.1450
   1455  N1        -0.3520   14.8310  -10.4710 N.2    72  DT72       -0.1608
   1456  C2         0.1510   13.5510  -10.6100 C.1    72  DT72        0.2395
   1457  O2        -0.3170   12.7340  -11.3830 O.2    72  DT72       -0.2041
   1458  N3         1.2280   13.2600   -9.8080 N.am   72  DT72       -0.0881
   1459  C4         1.8380   14.1000   -8.9010 C.2    72  DT72        0.2768
   1460  O4         2.7990   13.6950   -8.2520 O.2    72  DT72       -0.2676
   1461  C5         1.2570   15.4110   -8.8130 C.2    72  DT72        0.0541
   1462  C6         0.2100   15.7210   -9.5820 C.2    72  DT72        0.1126
   1463  C7         1.8500   16.3990   -7.8530 C.3    72  DT72        0.0376
@<TRIPOS>BOND
     1  1096  1095    2
     2  1074  1073    2
     3  1097  1095    1
     4  1095  1081    1
     5  1095  1098    1
     6  1073  1075    1
     7  1073  1076    1
     8  1073  1060    1
     9  1081  1080    1
    10  1117  1115    2
    11  1077  1076    1
    12  1077  1078    1
    13  1098  1099    1
    14  1116  1115    1
    15  1099  1100    1
    16  1060  1059    1
    17  1115  1103    1
    18  1115  1118    1
    19  1103  1102    1
    20  1053  1052    2
    21  1080  1078    1
    22  1080  1082    1
    23  1078  1079    1
    24  1102  1100    1
    25  1102  1104    1
    26  1114  1112    1
    27  1100  1101    1
    28  1056  1055    1
    29  1056  1057    1
    30  1059  1057    1
    31  1059  1061    1
    32  1055  1052    1
    33  1052  1054    1
    34  1052  1038    1
    35  1118  1119    1
    36  1082  1083    1
    37  1079  1083    1
    38  1057  1058    1
    39  1112  1113   ar
    40  1112  1110   ar
    41  1113  1106   ar
    42  1119  1120    1
    43  1101  1105    1
    44  1104  1105    1
    45  1061  1062    1
    46  1083  1084    1
    47  1128  1127   ar
    48  1128  1129   ar
    49  1085  1084   ar
    50  1085  1086   ar
    51  1127  1126   ar
    52  1038  1037    1
    53  1110  1111    2
    54  1110  1109   ar
    55  1106  1105    1
    56  1106  1107   ar
    57  1084  1094   ar
    58  1058  1062    1
    59  1121  1120    1
    60  1121  1125    1
    61  1086  1087   ar
    62  1120  1122    1
    63  1062  1063    1
    64  1109  1107   ar
    65  1129  1130   ar
    66  1129  1136   ar
    67  1131  1130    2
    68  1107  1108    1
    69  1126  1125    1
    70  1126  1136   ar
    71  1094  1087   ar
    72  1094  1093   ar
    73  1087  1088   ar
    74  1037  1039    1
    75  1037  1035    1
    76  1063  1064   ar
    77  1063  1072   ar
    78  1125  1124    1
    79  1130  1132   ar
    80  1039  1040    1
    81  1093  1091   ar
    82  1122  1123    1
    83  1122  1124    1
    84  1031  1030    2
    85  1064  1065   ar
    86  1136  1135   ar
    87  1108  1139    1
    88  1035  1034    1
    89  1035  1036    1
    90  1153  1152    2
    91  1034  1033    1
    92  1088  1089    2
    93  1088  1090   ar
    94  1072  1071   ar
    95  1072  1066   ar
    96  1071  1070   ar
    97  1123  1137    1
    98  1065  1066   ar
    99  1091  1090   ar
   100  1091  1092    1
   101  1139  1137    1
   102  1150  1151   ar
   103  1150  1149   ar
   104  1066  1067   ar
   105  1132  1133   ar
   106  1030  1033    1
   107  1030  1032    1
   108  1030  1017    1
   109  1040  1036    1
   110  1040  1041    1
   111  1152  1151   ar
   112  1152  1154   ar
   113  1070  1069   ar
   114  1135  1133   ar
   115  1151  1158   ar
   116  1137  1138    2
   117  1137  1140    1
   118  1149  1148   ar
   119  1067  1069   ar
   120  1067  1068    1
   121  1133  1134    1
   122  1050  1051   ar
   123  1050  1048   ar
   124  1041  1051   ar
   125  1041  1042   ar
   126  1154  1155   ar
   127  1049  1048   ar
   128  1049  1198   ar
   129  1017  1016    1
   130  1051  1044   ar
   131  1048  1047   ar
   132  1172  1171    2
   133  1042  1043   ar
   134  1158  1148   ar
   135  1158  1157   ar
   136  1140  1141    1
   137  1148  1147    1
   138  1198  1197   ar
   139  1044  1043   ar
   140  1044  1045   ar
   141  1047  1045   ar
   142  1047  1196   ar
   143  1155  1157   ar
   144  1155  1156    1
   145  1143  1147    1
   146  1143  1142    1
   147  1171  1173   ar
   148  1171  1170   ar
   149  1045  1046    2
   150  1173  1174   ar
   151  1016  1018    1
   152  1016  1014    1
   153  1141  1142    1
   154  1197  1199   ar
   155  1197  1196   ar
   156  1147  1146    1
   157  1018  1019    1
   158  1199  1200   ar
   159  1170  1169    1
   160  1170  1177   ar
   161  1196  1194   ar
   162  1010  1009    2
   163  1175  1174    2
   164  1174  1176   ar
   165  1142  1144    1
   166  1169  1165    1
   167  1169  1168    1
   168  1165  1164    1
   169  1189  1188    1
   170  1189  1190    1
   171  1189  1185    1
   172  1200  1190   ar
   173  1200  1193   ar
   174  1014  1013    1
   175  1014  1015    1
   176  1188  1186    1
   177  1177  1176   ar
   178  1194  1193   ar
   179  1194  1195    2
   180  1011  1009    1
   181  1013  1012    1
   182  1190  1191   ar
   183  1176  1178    1
   184  1144  1146    1
   185  1144  1145    1
   186  1146  1163    1
   187  1009  1012    1
   188  1009   996    1
   189  1193  1192   ar
   190  1185  1184    1
   191  1019  1020    1
   192  1019  1015    1
   193  1207  1211    1
   194  1207  1206    1
   195  1168  1166    1
   196  1028  1027   ar
   197  1028  1029   ar
   198  1020  1029   ar
   199  1020  1021   ar
   200  1164  1163    1
   201  1164  1166    1
   202  1214  1213    2
   203  1027  1026   ar
   204  1029  1023   ar
   205  1211  1212    1
   206  1211  1210    1
   207  1191  1192   ar
   208  1021  1022   ar
   209  1184  1186    1
   210  1184  1183    1
   211  1186  1187    1
   212  1026  1024   ar
   213  1213  1212   ar
   214  1213  1215   ar
   215  1212  1219   ar
   216  1023  1022   ar
   217  1023  1024   ar
   218  1206  1205    1
   219  1206  1208    1
   220  1162  1163    1
   221  1162  1159    1
   222   996   995    1
   223  1024  1025    1
   224  1205  1204    1
   225  1145  1160    1
   226  1187  1201    1
   227  1166  1167    1
   228  1215  1216   ar
   229  1219  1218   ar
   230  1210  1208    1
   231  1204  1201    1
   232  1182  1183    1
   233  1182  1179    1
   234  1216  1218   ar
   235  1216  1217    2
   236  1218  1220    1
   237  1159  1160    1
   238  1159  1161    1
   239  1167  1179    1
   240  1208  1209    1
   241   995   997    1
   242   995   993    1
   243  1201  1202    2
   244  1201  1203    1
   245  1209  1221    1
   246  1227  1231    1
   247  1227  1226    1
   248   997   998    1
   249   992   993    1
   250   992   991    1
   251  1179  1181    2
   252  1179  1180    1
   253   993   994    1
   254  1231  1232    1
   255  1231  1230    1
   256  1234  1233    2
   257  1007  1006   ar
   258  1007  1008   ar
   259  1006  1005   ar
   260  1233  1232   ar
   261  1233  1235   ar
   262  1226  1225    1
   263  1226  1228    1
   264   989   988    2
   265  1232  1239   ar
   266  1225  1224    1
   267   990   988    1
   268  1235  1236   ar
   269  1239  1238   ar
   270   991   988    1
   271  1005  1003   ar
   272  1008   999   ar
   273  1008  1002   ar
   274   998   994    1
   275   998   999    1
   276  1236  1238   ar
   277  1236  1237    2
   278  1238  1240    1
   279   988   976    1
   280  1221  1224    1
   281  1221  1222    2
   282  1221  1223    1
   283   999  1000   ar
   284  1230  1228    1
   285  1003  1002   ar
   286  1003  1004    1
   287  1002  1001   ar
   288  1228  1229    1
   289  1000  1001   ar
   290  1229  1241    1
   291   976   975    1
   292  1247  1251    1
   293  1247  1246    1
   294  1252  1253    1
   295  1252  1262    1
   296  1252  1251    1
   297  1253  1254    2
   298  1245  1246    1
   299  1245  1244    1
   300  1262  1261    2
   301  1262  1255    1
   302  1261  1259    1
   303  1251  1250    1
   304  1254  1255    1
   305  1246  1248    1
   306   977   975    1
   307   977   978    1
   308   975   973    1
   309  1255  1256    1
   310  1259  1260    1
   311  1259  1258    2
   312  1244  1241    1
   313  1241  1242    2
   314  1241  1243    1
   315  1256  1258    1
   316  1256  1257    2
   317   981   980    2
   318   980   982   ar
   319   980   979   ar
   320   982   983   ar
   321  1250  1248    1
   322  1248  1249    1
   323   978   979    1
   324   978   974    1
   325   973   972    1
   326   973   974    1
   327   984   983    2
   328   979   986   ar
   329   983   985   ar
   330  1249  1263    1
   331   971   972    1
   332   971   968    1
   333   986   985   ar
   334   985   987    1
   335  1269  1273    1
   336  1269  1268    1
   337   970   968    2
   338   969   968    1
   339  1267  1268    1
   340  1267  1266    1
   341   968   955    1
   342  1273  1274    1
   343  1273  1272    1
   344  1268  1270    1
   345  1274  1275   ar
   346  1274  1284   ar
   347  1263  1266    1
   348  1263  1264    2
   349  1263  1265    1
   350  1275  1276   ar
   351  1284  1283   ar
   352  1284  1277   ar
   353  1276  1277   ar
   354  1283  1281   ar
   355  1277  1278   ar
   356  1272  1270    1
   357  1281  1282    1
   358  1281  1280   ar
   359   955   954    1
   360  1270  1271    1
   361  1278  1280   ar
   362  1278  1279    2
   363   964   965   ar
   364   964   962   ar
   365   965   966   ar
   366  1271  1285    1
   367   954   956    1
   368   954   952    1
   369   963   962    1
   370   962   961   ar
   371   966   967   ar
   372   956   957    1
   373   961   967   ar
   374   961   960   ar
   375   967   958   ar
   376   824   823    2
   377   960   959   ar
   378   958   959   ar
   379   958   957    1
   380   952   951    1
   381   952   953    1
   382   843   842    2
   383  1285  1287    2
   384  1285  1286    1
   385  1285  1288    1
   386   951   950    1
   387   957   953    1
   388   950   947    1
   389  1291  1295    1
   390  1291  1290    1
   391  1302  1303   ar
   392  1302  1300   ar
   393  1301  1300    1
   394   949   947    2
   395  1288  1289    1
   396  1303  1296   ar
   397   823   826    1
   398   823   811    1
   399   823   825    1
   400  1289  1290    1
   401  1300  1299   ar
   402   947   948    1
   403   947   934    1
   404   842   844    1
   405   842   831    1
   406   842   845    1
   407   827   826    1
   408   827   828    1
   409  1296  1295    1
   410  1296  1297   ar
   411  1295  1294    1
   412  1299  1297   ar
   413  1290  1292    1
   414   942   941    1
   415   811   810    1
   416   831   830    1
   417  1297  1298    2
   418   863   861    2
   419   862   861    1
   420   941   943   ar
   421   941   940   ar
   422   943   944   ar
   423   804   803    1
   424   828   830    1
   425   828   829    1
   426   940   939   ar
   427   940   946   ar
   428   807   808    1
   429   807   806    1
   430   944   945   ar
   431   830   832    1
   432   939   938   ar
   433   845   846    1
   434   861   850    1
   435   861   864    1
   436   934   933    1
   437   846   847    1
   438  1292  1294    1
   439  1292  1293    1
   440   810   808    1
   441   810   812    1
   442   803   806    1
   443   803   805    1
   444   946   945   ar
   445   946   937   ar
   446   808   809    1
   447   928   926    2
   448   933   935    1
   449   933   931    1
   450   938   937   ar
   451   850   849    1
   452   885   883    2
   453   935   936    1
   454   937   936    1
   455   791   805    1
   456   791   790    1
   457  1323  1321    1
   458  1320  1319    2
   459   829   833    1
   460   812   813    1
   461  1293  1304    1
   462   929   926    1
   463   929   930    1
   464   921   920    1
   465   847   849    1
   466   847   848    1
   467   832   833    1
   468   864   865    1
   469  1321  1319   ar
   470  1321  1322   ar
   471  1319  1318   ar
   472   849   851    1
   473   926   927    1
   474   926   913    1
   475   936   932    1
   476  1322  1315   ar
   477  1318  1316   ar
   478   809   813    1
   479   884   883    1
   480   899   898    2
   481   931   930    1
   482   931   932    1
   483   883   886    1
   484   883   869    1
   485   833   834    1
   486  1306  1304    2
   487  1310  1314    1
   488  1310  1309    1
   489   920   919   ar
   490   920   922   ar
   491   918   919   ar
   492   918   917   ar
   493  1315  1316   ar
   494  1315  1314    1
   495   907   905    2
   496  1316  1317    2
   497   865   866    1
   498  1304  1307    1
   499  1304  1305    1
   500   813   814    1
   501   841   834   ar
   502   841   840   ar
   503   896   897   ar
   504   896   895   ar
   505   848   852    1
   506   919   925   ar
   507  1314  1313    1
   508   792   793    1
   509   788   787    1
   510   788   789    1
   511   922   923   ar
   512   906   905    1
   513   898   897   ar
   514   898   900   ar
   515   834   835   ar
   516  1307  1308    1
   517   851   852    1
   518   886   887    1
   519   917   916   ar
   520   874   873   ar
   521   874   875   ar
   522   860   859   ar
   523   860   853   ar
   524   787   786    1
   525  1308  1309    1
   526   869   868    1
   527   913   912    1
   528   840   838   ar
   529   873   872   ar
   530  1340  1339    1
   531   897   904   ar
   532   868   866    1
   533   868   870    1
   534   905   908    1
   535   905   891    1
   536   859   857   ar
   537  1309  1311    1
   538   895   894   ar
   539   912   914    1
   540   912   910    1
   541   866   867    1
   542   852   853    1
   543   814   821   ar
   544   814   815   ar
   545   925   916   ar
   546   925   924   ar
   547   821   820   ar
   548   923   924   ar
   549   908   909    1
   550   877   876    2
   551   916   915    1
   552   900   901   ar
   553   784   783    2
   554   853   854   ar
   555   789   793    1
   556   793   794    1
   557  1339  1338   ar
   558  1339  1341   ar
   559   909   910    1
   560   914   915    1
   561   875   876    1
   562   875   882   ar
   563   835   836    2
   564   835   837   ar
   565   786   783    1
   566  1313  1311    1
   567  1338  1336   ar
   568   867   871    1
   569   890   891    1
   570   890   892    1
   571   890   888    1
   572   872   871    1
   573   872   882   ar
   574   887   888    1
   575   904   894   ar
   576   904   903   ar
   577   876   878    1
   578   838   837   ar
   579   838   839    1
   580   894   893    1
   581  1341  1342   ar
   582   910   911    1
   583   857   858    1
   584   857   856   ar
   585   870   871    1
   586  1311  1312    1
   587   815   816    2
   588   815   817   ar
   589   820   822    1
   590   820   818   ar
   591   915   911    1
   592   882   881    1
   593   783   772    1
   594   783   785    1
   595   901   903   ar
   596   901   902    1
   597  1336  1337    2
   598  1336  1335   ar
   599   892   893    1
   600   854   856   ar
   601   854   855    2
   602   888   889    1
   603   796   795    2
   604  1342  1335   ar
   605   794   795   ar
   606   794   801   ar
   607   893   889    1
   608  1335  1334    1
   609   878   879    2
   610   772   771    1
   611   817   818   ar
   612  1359  1358    1
   613   818   819    2
   614   795   797   ar
   615  1312  1324    1
   616   881   879    1
   617   801   800   ar
   618  1330  1334    1
   619  1330  1329    1
   620   879   880    2
   621  1334  1333    1
   622  1358  1357    1
   623  1358  1360    2
   624  1326  1324    2
   625  1357  1355    2
   626  1441  1442   ar
   627  1441  1440   ar
   628   773   771    1
   629   773   774    1
   630  1400  1399    1
   631  1442  1443   ar
   632   771   769    1
   633   797   798   ar
   634  1327  1324    1
   635  1327  1328    1
   636  1324  1325    1
   637   800   798   ar
   638   800   802    1
   639   880  1356    1
   640  1398  1399   ar
   641  1398  1396   ar
   642  1328  1329    1
   643   769   768    1
   644   769   770    1
   645  1360  1361    1
   646  1329  1331    1
   647  1378  1377    1
   648  1440  1438   ar
   649  1433  1432    1
   650  1433  1429    1
   651  1433  1434    1
   652   798   799    2
   653  1416  1415    2
   654  1399  1401   ar
   655  1355  1356    1
   656  1355  1354    1
   657  1397  1396    2
   658  1432  1430    1
   659  1333  1331    1
   660  1454  1450    1
   661  1454  1453    1
   662  1429  1428    1
   663  1443  1434   ar
   664  1443  1437   ar
   665  1396  1395   ar
   666   774   770    1
   667   774   775    1
   668  1450  1449    1
   669   768   767    1
   670  1376  1377   ar
   671  1376  1374   ar
   672   777   776    2
   673  1434  1435   ar
   674  1331  1332    1
   675  1453  1451    1
   676  1361  1354    1
   677  1377  1379   ar
   678  1354  1353    1
   679  1428  1430    1
   680  1428  1427    1
   681  1457  1456    2
   682  1415  1417   ar
   683  1415  1414   ar
   684  1401  1402   ar
   685  1438  1437   ar
   686  1438  1439    1
   687  1437  1436   ar
   688  1417  1418   ar
   689  1375  1374    2
   690  1449  1451    1
   691  1449  1448    1
   692   775   776   ar
   693   775   782   ar
   694  1374  1373   ar
   695   776   778   ar
   696  1395  1402   ar
   697  1395  1394   ar
   698  1413  1412    1
   699  1413  1414    1
   700  1413  1409    1
   701  1412  1410    1
   702  1431  1447    1
   703  1431  1444    1
   704  1456  1455    2
   705  1456  1458   am
   706  1402  1392   ar
   707  1379  1380   ar
   708   767   764    1
   709  1435  1436   ar
   710  1451  1452    1
   711  1455  1462    1
   712  1353  1349    1
   713  1353  1352    1
   714  1447  1448    1
   715  1414  1421   ar
   716  1427  1426    1
   717  1332  1343    1
   718   765   764    2
   719  1418  1419    2
   720  1418  1420   ar
   721  1349  1348    1
   722   782   781   ar
   723  1373  1380   ar
   724  1373  1372    1
   725  1394  1393   ar
   726  1345  1343    2
   727  1458  1459   am
   728   778   779   ar
   729  1409  1408    1
   730  1462  1461    2
   731   764   751    1
   732   764   766    1
   733  1392  1393   ar
   734  1392  1391    1
   735  1444  1446    2
   736  1444  1445    2
   737  1352  1350    1
   738  1426  1423    1
   739  1421  1420   ar
   740  1410  1411    1
   741  1410  1408    1
   742  1343  1346    1
   743  1343  1344    1
   744  1420  1422    1
   745  1411  1423    1
   746  1372  1368    1
   747  1372  1371    1
   748  1346  1347    1
   749   781   779   ar
   750  1459  1461    1
   751  1459  1460    2
   752  1408  1407    1
   753   779   780    1
   754  1391  1390    1
   755  1391  1387    1
   756  1461  1463    1
   757   761   762   ar
   758   761   760   ar
   759   751   750    1
   760   752   750    1
   761   752   753    1
   762  1348  1350    1
   763  1348  1347    1
   764   762   763   ar
   765  1350  1351    1
   766  1423  1424    2
   767  1423  1425    1
   768  1390  1388    1
   769  1368  1367    1
   770  1371  1369    1
   771   760   758   ar
   772   750   748    1
   773  1387  1386    1
   774   753   754    1
   775   753   749    1
   776   763   754   ar
   777   763   757   ar
   778  1407  1406    1
   779  1406  1403    1
   780  1364  1362    2
   781  1351  1362    1
   782   754   755   ar
   783   758   757   ar
   784   758   759    1
   785  1369  1367    1
   786  1369  1370    1
   787   748   749    1
   788   748   747    1
   789  1388  1386    1
   790  1388  1389    1
   791  1365  1362    1
   792  1365  1366    1
   793  1367  1366    1
   794   757   756   ar
   795  1386  1385    1
   796  1362  1363    1
   797   755   756   ar
   798  1389  1403    1
   799  1384  1385    1
   800  1384  1381    1
   801  1405  1403    2
   802  1403  1404    1
   803  1370  1381    1
   804   747   746    1
   805  1383  1381    2
   806  1381  1382    1
   807   746   743    1
   808   725   724    2
   809   706   705    2
   810   726   724    1
   811   743   744    2
   812   743   745    1
   813   743   732    1
   814   724   713    1
   815   724   727    1
   816   705   707    1
   817   705   708    1
   818   705   692    1
   819   732   731    1
   820   713   712    1
   821   709   708    1
   822   709   710    1
   823   727   728    1
   824   728   729    1
   825   731   729    1
   826   731   733    1
   827   692   691    1
   828   685   684    2
   829   712   710    1
   830   712   714    1
   831   710   711    1
   832   729   730    1
   833   686   684    1
   834   688   687    1
   835   688   689    1
   836   687   684    1
   837   684   671    1
   838   691   689    1
   839   691   693    1
   840   733   734    1
   841   741   742   ar
   842   741   739   ar
   843   742   735   ar
   844   711   715    1
   845   714   715    1
   846   689   690    1
   847   730   734    1
   848   664   663    2
   849   723   722   ar
   850   723   716   ar
   851   740   739    1
   852   739   738   ar
   853   722   720   ar
   854   735   734    1
   855   735   736   ar
   856   693   694    1
   857   671   670    1
   858   715   716    1
   859   716   717   ar
   860   738   736   ar
   861   736   737    2
   862   720   721    1
   863   720   719   ar
   864   690   694    1
   865   663   665    1
   866   663   649    1
   867   663   666    1
   868   696   695   ar
   869   696   697   ar
   870   694   695    1
   871   670   672    1
   872   670   668    1
   873   717   719   ar
   874   717   718    2
   875   642   641    2
   876   695   704   ar
   877   697   698   ar
   878   672   673    1
   879   649   648    1
   880   666   667    1
   881   667   668    1
   882   668   669    1
   883   704   698   ar
   884   704   703   ar
   885   698   699   ar
   886   641   643    1
   887   641   644    1
   888   641   628    1
   889   703   702   ar
   890   644   645    1
   891   673   669    1
   892   673   674    1
   893   648   646    1
   894   648   650    1
   895   628   627    1
   896   645   646    1
   897   675   676   ar
   898   675   674   ar
   899   699   700    1
   900   699   701   ar
   901   621   620    2
   902   676   677   ar
   903   646   647    1
   904   702   701   ar
   905   674   683   ar
   906   650   651    1
   907   677   683   ar
   908   677   678   ar
   909   683   682   ar
   910   627   625    1
   911   627   629    1
   912   624   623    1
   913   624   625    1
   914   620   622    1
   915   620   623    1
   916   620   607    1
   917   679   678    1
   918   678   680   ar
   919   682   681   ar
   920   625   626    1
   921   647   651    1
   922   651   652    1
   923   680   681   ar
   924   629   630    1
   925   653   652   ar
   926   653   654   ar
   927   652   662   ar
   928   654   655   ar
   929     1     2    1
   930   607   606    1
   931    35    34    2
   932   662   655   ar
   933   662   661   ar
   934   655   656   ar
   935   626   630    1
   936    33    34   ar
   937    33    31   ar
   938    34    36   ar
   939   661   659   ar
   940   630   631    1
   941   656   657    2
   942   656   658   ar
   943    32    31    2
   944    31    30   ar
   945     2     3    1
   946   631   632   ar
   947   631   640   ar
   948   659   658   ar
   949   659   660    1
   950   606   608    1
   951   606   604    1
   952   632   633   ar
   953    11    10   ar
   954    11    12   ar
   955    36    38    1
   956    36    37   ar
   957    10     9   ar
   958    30    37   ar
   959    30    29    1
   960   640   639   ar
   961   640   634   ar
   962   639   638   ar
   963     4     3    1
   964     4     8    1
   965   633   634   ar
   966   608   609    1
   967   604   603    1
   968   604   605    1
   969   600   599    2
   970   603   602    1
   971     3     5    1
   972   634   635   ar
   973    52    51    2
   974    29    25    1
   975    29    28    1
   976    53    51   ar
   977    53    54   ar
   978     9     8    1
   979     9    18   ar
   980    14    13    1
   981    12    13   ar
   982    12    18   ar
   983   638   637   ar
   984    55    54    1
   985    25    24    1
   986    51    50   ar
   987   602   599    1
   988    54    56   ar
   989   635   637   ar
   990   635   636    1
   991     8     7    1
   992    13    15   ar
   993   599   601    1
   994   599   585    1
   995    18    17   ar
   996   609   605    1
   997   609   610    1
   998     5     7    1
   999     5     6    1
  1000    50    49    1
  1001    50    57   ar
  1002    71    70    2
  1003    28    26    1
  1004    56    57   ar
  1005   610   611   ar
  1006   610   619   ar
  1007    21     6    1
  1008    21    19    1
  1009    49    45    1
  1010    49    48    1
  1011    24    23    1
  1012    24    26    1
  1013   611   612   ar
  1014    96    95    1
  1015    15    16   ar
  1016    70    72   ar
  1017    70    69   ar
  1018    45    44    1
  1019    72    73   ar
  1020   618   619   ar
  1021   618   617   ar
  1022   619   613   ar
  1023    17    16   ar
  1024    23    22    1
  1025   585   584    1
  1026    26    27    1
  1027   612   613   ar
  1028    69    68    1
  1029    69    76   ar
  1030    68    64    1
  1031    68    67    1
  1032    73    74    1
  1033    73    75   ar
  1034   613   614   ar
  1035    95    97   ar
  1036    95    94   ar
  1037    22    19    1
  1038    48    46    1
  1039   617   616   ar
  1040    64    63    1
  1041    97    98   ar
  1042    19    20    1
  1043   112   111    2
  1044    76    75   ar
  1045    94    92   ar
  1046    44    46    1
  1047    44    43    1
  1048   614   616   ar
  1049   614   615    1
  1050   584   586    1
  1051   584   582    1
  1052   586   587    1
  1053    87    83    1
  1054    87    88    1
  1055    87    86    1
  1056    98    88   ar
  1057    98    91   ar
  1058    83    82    1
  1059    27    41    1
  1060    67    65    1
  1061    41    39    1
  1062   111   113   ar
  1063   111   110   ar
  1064    88    89   ar
  1065   109   105    1
  1066   109   110    1
  1067   109   108    1
  1068    46    47    1
  1069    63    62    1
  1070    63    65    1
  1071    43    42    1
  1072    92    91   ar
  1073    92    93    2
  1074    42    39    1
  1075   105   104    1
  1076    91    90   ar
  1077    86    84    1
  1078   113   114   ar
  1079   110   117   ar
  1080   108   106    1
  1081    62    61    1
  1082   582   581    1
  1083   582   583    1
  1084    89    90   ar
  1085    82    84    1
  1086    82    81    1
  1087   579   577    2
  1088   578   577    1
  1089   132   131    2
  1090    39    40    1
  1091    65    66    1
  1092   104   106    1
  1093   104   103    1
  1094   587   583    1
  1095   587   588    1
  1096    47    58    1
  1097    61    58    1
  1098   129   125    1
  1099   129   130    1
  1100   129   128    1
  1101   125   124    1
  1102   114   115    2
  1103   114   116   ar
  1104   596   595    1
  1105   581   580    1
  1106   117   116   ar
  1107   580   577    1
  1108   577   565    1
  1109   597   595   ar
  1110   597   598   ar
  1111    84    85    1
  1112   131   130   ar
  1113   131   133   ar
  1114    81    80    1
  1115   595   594   ar
  1116   106   107    1
  1117   588   598   ar
  1118   588   589   ar
  1119   598   591   ar
  1120   116   118    1
  1121   130   137   ar
  1122    66    77    1
  1123   128   126    1
  1124    58    60    2
  1125    58    59    1
  1126   124   123    1
  1127   124   126    1
  1128   103   102    1
  1129   594   592   ar
  1130    80    77    1
  1131   133   134   ar
  1132    85    99    1
  1133   589   590   ar
  1134   591   592   ar
  1135   591   590   ar
  1136   592   593    2
  1137   107   119    1
  1138   565   564    1
  1139   137   136   ar
  1140   102    99    1
  1141   123   122    1
  1142   126   127    1
  1143   134   136   ar
  1144   134   135    1
  1145    77    78    2
  1146    77    79    1
  1147    99   100    2
  1148    99   101    1
  1149   144   148    1
  1150   144   143    1
  1151   122   119    1
  1152   127   138    1
  1153   564   566    1
  1154   564   562    1
  1155   566   567    1
  1156   148   149    1
  1157   148   147    1
  1158   119   120    2
  1159   119   121    1
  1160   143   142    1
  1161   143   145    1
  1162   142   141    1
  1163   149   150   ar
  1164   149   158   ar
  1165   157   158   ar
  1166   157   156   ar
  1167   570   569    2
  1168   150   151   ar
  1169   158   152   ar
  1170   562   561    1
  1171   562   563    1
  1172   141   138    1
  1173   138   139    2
  1174   138   140    1
  1175   147   145    1
  1176   156   155   ar
  1177   569   568   ar
  1178   569   571   ar
  1179   151   152   ar
  1180   561   560    1
  1181   152   153   ar
  1182   567   568    1
  1183   567   563    1
  1184   568   575   ar
  1185   571   572   ar
  1186   560   557    1
  1187   145   146    1
  1188   155   153   ar
  1189   558   557    2
  1190   153   154    1
  1191   575   574   ar
  1192   572   574   ar
  1193   572   573    2
  1194   559   557    1
  1195   146   159    1
  1196   574   576    1
  1197   557   545    1
  1198   165   169    1
  1199   165   164    1
  1200   159   160    2
  1201   159   161    1
  1202   159   162    1
  1203   163   164    1
  1204   163   162    1
  1205   545   544    1
  1206   177   176   ar
  1207   177   170   ar
  1208   169   170    1
  1209   169   168    1
  1210   164   166    1
  1211   176   174   ar
  1212   170   171   ar
  1213   553   552    2
  1214   550   549    2
  1215   551   549   ar
  1216   551   552   ar
  1217   546   544    1
  1218   546   547    1
  1219   544   542    1
  1220   174   175    1
  1221   174   173   ar
  1222   549   548   ar
  1223   552   554   ar
  1224   171   173   ar
  1225   171   172    2
  1226   168   166    1
  1227   548   555   ar
  1228   548   547    1
  1229   554   555   ar
  1230   554   556    1
  1231   166   167    1
  1232   547   543    1
  1233   542   543    1
  1234   542   541    1
  1235   167   178    1
  1236   540   541    1
  1237   540   537    1
  1238   539   537    2
  1239   531   530    2
  1240   538   537    1
  1241   532   530   ar
  1242   532   533   ar
  1243   180   178    2
  1244   537   523    1
  1245   530   529   ar
  1246   534   533    1
  1247   178   179    1
  1248   178   181    1
  1249   533   535   ar
  1250   529   528   ar
  1251   529   536   ar
  1252   517   515    2
  1253   528   527   ar
  1254   535   536   ar
  1255   511   510    2
  1256   191   190   ar
  1257   191   192   ar
  1258   536   526   ar
  1259   514   512    1
  1260   181   182    1
  1261   184   188    1
  1262   184   183    1
  1263   190   189   ar
  1264   194   193    1
  1265   523   522    1
  1266   524   522    1
  1267   524   525    1
  1268   182   183    1
  1269   192   193   ar
  1270   192   198   ar
  1271   527   526   ar
  1272   457   456    2
  1273   193   195   ar
  1274   510   512   ar
  1275   510   509   ar
  1276   522   520    1
  1277   526   525    1
  1278   512   513   ar
  1279   189   188    1
  1280   189   198   ar
  1281   497   495    2
  1282   188   187    1
  1283   515   516    1
  1284   515   518    1
  1285   515   503    1
  1286   478   476    2
  1287   183   185    1
  1288   198   197   ar
  1289   496   495    1
  1290   477   476    1
  1291   195   196   ar
  1292   518   519    1
  1293   509   507   ar
  1294   438   437    2
  1295   525   521    1
  1296   513   506   ar
  1297   495   498    1
  1298   495   484    1
  1299   498   499    1
  1300   197   196   ar
  1301   476   464    1
  1302   476   479    1
  1303   458   456    1
  1304   456   459    1
  1305   456   445    1
  1306   503   502    1
  1307   492   491    1
  1308   502   504    1
  1309   502   500    1
  1310   520   519    1
  1311   520   521    1
  1312   507   506   ar
  1313   507   508    2
  1314   506   505    1
  1315   187   185    1
  1316   499   500    1
  1317   185   186    1
  1318   439   437    1
  1319   493   491   ar
  1320   493   494   ar
  1321   459   460    1
  1322   437   440    1
  1323   437   426    1
  1324   480   479    1
  1325   480   481    1
  1326   491   490   ar
  1327   419   418    2
  1328   484   483    1
  1329   464   463    1
  1330   504   505    1
  1331   445   444    1
  1332   500   501    1
  1333   475   473    1
  1334   494   487   ar
  1335   483   481    1
  1336   483   485    1
  1337   440   441    1
  1338   215   214    1
  1339   505   501    1
  1340   460   461    1
  1341   186   199    1
  1342   420   418    1
  1343   463   461    1
  1344   463   465    1
  1345   441   442    1
  1346   490   488   ar
  1347   481   482    1
  1348   216   214   ar
  1349   216   217   ar
  1350   214   213   ar
  1351   426   425    1
  1352   418   421    1
  1353   418   406    1
  1354   473   474   ar
  1355   473   471   ar
  1356   444   442    1
  1357   444   446    1
  1358   487   488   ar
  1359   487   486    1
  1360   472   471    2
  1361   488   489    2
  1362   482   486    1
  1363   217   210   ar
  1364   474   467   ar
  1365   461   462    1
  1366   471   470   ar
  1367   213   211   ar
  1368   485   486    1
  1369   442   443    1
  1370   199   201    2
  1371   199   202    1
  1372   199   200    1
  1373   465   466    1
  1374   205   209    1
  1375   205   204    1
  1376   421   422    1
  1377   406   405    1
  1378   202   203    1
  1379   210   211   ar
  1380   210   209    1
  1381   211   212    2
  1382   425   423    1
  1383   425   427    1
  1384   422   423    1
  1385   467   466    1
  1386   467   468   ar
  1387   470   468   ar
  1388   446   447    1
  1389   462   466    1
  1390   203   204    1
  1391   399   398    2
  1392   209   208    1
  1393   468   469    2
  1394   443   447    1
  1395   423   424    1
  1396   455   454   ar
  1397   455   448   ar
  1398   454   452   ar
  1399   204   206    1
  1400   405   403    1
  1401   405   407    1
  1402   427   428    1
  1403   447   448    1
  1404   402   401    1
  1405   402   403    1
  1406   448   449   ar
  1407   234   233    1
  1408   452   453    1
  1409   452   451   ar
  1410   401   398    1
  1411   403   404    1
  1412   398   400    1
  1413   398   386    1
  1414   208   206    1
  1415   233   235   ar
  1416   233   232   ar
  1417   206   207    1
  1418   424   428    1
  1419   436   435   ar
  1420   436   429   ar
  1421   407   408    1
  1422   449   451   ar
  1423   449   450    2
  1424   235   236   ar
  1425   435   433   ar
  1426   428   429    1
  1427   232   230   ar
  1428   429   430   ar
  1429   386   385    1
  1430   236   229   ar
  1431   230   229   ar
  1432   230   231    2
  1433   404   408    1
  1434   433   434    1
  1435   433   432   ar
  1436   229   228    1
  1437   207   218    1
  1438   408   409    1
  1439   430   432   ar
  1440   430   431    2
  1441   417   415    1
  1442   416   409   ar
  1443   416   415   ar
  1444   409   410   ar
  1445   224   228    1
  1446   224   223    1
  1447   415   413   ar
  1448   253   252    2
  1449   220   218    2
  1450   228   227    1
  1451   385   387    1
  1452   385   383    1
  1453   379   378    2
  1454   218   221    1
  1455   218   219    1
  1456   381   382    1
  1457   381   378    1
  1458   252   251   ar
  1459   252   254   ar
  1460   410   411    2
  1461   410   412   ar
  1462   251   249   ar
  1463   382   383    1
  1464   413   412   ar
  1465   413   414    2
  1466   221   222    1
  1467   380   378    1
  1468   378   365    1
  1469   387   388    1
  1470   383   384    1
  1471   375   376   ar
  1472   375   374   ar
  1473   222   223    1
  1474   223   225    1
  1475   250   249    2
  1476   249   248   ar
  1477   273   272    2
  1478   276   275    1
  1479   274   272   ar
  1480   274   275   ar
  1481   254   256    1
  1482   254   255   ar
  1483   227   225    1
  1484   376   377   ar
  1485   374   372   ar
  1486   272   271   ar
  1487   275   277   ar
  1488   248   255   ar
  1489   248   247    1
  1490   366   364    1
  1491   366   367    1
  1492   225   226    1
  1493   384   388    1
  1494   388   389    1
  1495   365   364    1
  1496   377   371   ar
  1497   377   368   ar
  1498   277   278   ar
  1499   372   373    1
  1500   372   371   ar
  1501   271   278   ar
  1502   271   270   ar
  1503   364   362    1
  1504   247   243    1
  1505   247   246    1
  1506   389   396   ar
  1507   389   390   ar
  1508   278   268   ar
  1509   396   395   ar
  1510   367   368    1
  1511   367   363    1
  1512   371   370   ar
  1513   270   269   ar
  1514   243   242    1
  1515   391   390    2
  1516   368   369   ar
  1517   390   392   ar
  1518   226   237    1
  1519   395   397    1
  1520   395   393   ar
  1521   268   269   ar
  1522   268   267    1
  1523   293   291   ar
  1524   293   294   ar
  1525   295   294    1
  1526   292   291    2
  1527   239   237    2
  1528   392   393   ar
  1529   370   369   ar
  1530   246   244    1
  1531   358   357    2
  1532   393   394    2
  1533   362   363    1
  1534   362   361    1
  1535   267   263    1
  1536   267   266    1
  1537   291   290   ar
  1538   294   296   ar
  1539   360   357    1
  1540   360   361    1
  1541   237   240    1
  1542   237   238    1
  1543   242   241    1
  1544   242   244    1
  1545   240   241    1
  1546   263   262    1
  1547   345   357    1
  1548   345   344    1
  1549   244   245    1
  1550   357   359    1
  1551   311   310    2
  1552   290   297   ar
  1553   290   289    1
  1554   296   297   ar
  1555   266   264    1
  1556   312   310   ar
  1557   312   313   ar
  1558   331   330    2
  1559   310   309   ar
  1560   289   285    1
  1561   289   288    1
  1562   314   313    2
  1563   342   344    1
  1564   342   343    1
  1565   342   341    1
  1566   262   264    1
  1567   262   261    1
  1568   285   284    1
  1569   313   315   ar
  1570   344   346    1
  1571   343   347    1
  1572   245   257    1
  1573   264   265    1
  1574   328   324    1
  1575   328   327    1
  1576   328   329    1
  1577   330   329   ar
  1578   330   332   ar
  1579   309   308    1
  1580   309   316   ar
  1581   261   260    1
  1582   260   257    1
  1583   341   327    1
  1584   341   340    1
  1585   347   346    1
  1586   347   348    1
  1587   350   349    2
  1588   324   323    1
  1589   259   257    2
  1590   327   325    1
  1591   288   286    1
  1592   257   258    1
  1593   329   336   ar
  1594   315   316   ar
  1595   315   317    1
  1596   332   333   ar
  1597   308   304    1
  1598   308   307    1
  1599   323   325    1
  1600   323   322    1
  1601   284   283    1
  1602   284   286    1
  1603   304   303    1
  1604   348   349   ar
  1605   348   355   ar
  1606   265   279    1
  1607   349   351   ar
  1608   325   326    1
  1609   283   282    1
  1610   286   287    1
  1611   333   334    1
  1612   333   335   ar
  1613   336   335   ar
  1614   340   337    1
  1615   326   337    1
  1616   307   305    1
  1617   281   279    2
  1618   322   321    1
  1619   338   337    2
  1620   282   279    1
  1621   279   280    1
  1622   303   305    1
  1623   303   302    1
  1624   355   354   ar
  1625   337   339    1
  1626   351   352   ar
  1627   305   306    1
  1628   305   320    1
  1629   321   318    1
  1630   287   298    1
  1631   306   318    1
  1632   301   302    1
  1633   301   298    1
  1634   300   298    2
  1635   318   320    1
  1636   318   319    2
  1637   354   352   ar
  1638   354   356    1
  1639   298   299    1
  1640   352   353    2
