@<TRIPOS>MOLECULE
dna.pdb
 1642 1841 0 0 0
SMALL
GASTEIGER

@<TRIPOS>ATOM
      1  O5'      -17.2620  -24.6700   -4.9780 O.3     1  DA1        -0.2176
      2  C5'      -17.2270  -23.5200   -4.1600 C.3     1  DA1         0.2140
      3  C4'      -16.0270  -23.5520   -3.2420 C.3     1  DA1         0.1774
      4  O4'      -15.0030  -24.4740   -3.6760 O.3     1  DA1        -0.3348
      5  C3'      -15.2690  -22.2520   -3.2310 C.3     1  DA1         0.1556
      6  O3'      -15.9230  -21.3080   -2.4380 O.3     1  DA1        -0.3139
      7  C2'      -13.9210  -22.6320   -2.6470 C.3     1  DA1         0.0835
      8  C1'      -13.7480  -24.0440   -3.1800 C.3     1  DA1         0.1974
      9  N9       -12.8350  -24.1870   -4.0100 N.pl3   1  DA1        -0.2458
     10  C8       -13.1490  -24.2910   -5.3400 C.2     1  DA1         0.1669
     11  N7       -12.1020  -24.3900   -6.1250 N.2     1  DA1        -0.2207
     12  C5       -11.0280  -24.3480   -5.2510 C.2     1  DA1         0.1919
     13  C6        -9.6380  -24.4080   -5.4570 C.2     1  DA1         0.4324
     14  N6        -9.0740  -24.5300   -6.6610 N.pl3   1  DA1         0.2176
     15  N1        -8.8400  -24.3370   -4.3700 N.4     1  DA1         0.0013
     16  C2        -9.4060  -24.2160   -3.1640 C.2     1  DA1         0.3340
     17  N3       -10.6970  -24.1500   -2.8440 N.2     1  DA1        -0.2009
     18  C4       -11.4630  -24.2210   -3.9450 C.3     1  DA1         0.2335
     19  P        -15.5940  -19.6690   -2.7000 P.3     2  DG2         0.2141
     20  OP1      -16.7050  -18.9210   -2.0650 O.3     2  DG2        -0.4373
     21  OP2      -15.5720  -19.8370   -4.1750 O.2     2  DG2        -0.5172
     22  O5'      -14.2050  -19.0210   -2.2630 O.3     2  DG2        -0.3114
     23  C5'      -13.8640  -18.8820   -0.8910 C.3     2  DG2         0.1811
     24  C4'      -12.3710  -19.0090   -0.7030 C.3     2  DG2         0.1746
     25  O4'      -11.9120  -20.2100   -1.3840 O.3     2  DG2        -0.3327
     26  C3'      -11.4980  -17.9390   -1.3370 C.3     2  DG2         0.1558
     27  O3'      -11.4310  -16.7480   -0.5680 O.3     2  DG2        -0.3138
     28  C2'      -10.1400  -18.6290   -1.3820 C.3     2  DG2         0.0865
     29  C1'      -10.5450  -20.0580   -1.7370 C.3     2  DG2         0.2094
     30  N9       -10.3690  -20.2920   -3.0980 N.ar    2  DG2        -0.2713
     31  C8       -11.4320  -20.4710   -3.9500 C.ar    2  DG2         0.1816
     32  N7       -11.0710  -20.7050   -5.1820 N.ar    2  DG2        -0.2173
     33  C5        -9.6890  -20.6810   -5.1460 C.ar    2  DG2         0.1748
     34  C6        -8.7350  -20.8670   -6.1790 C.ar    2  DG2         0.3023
     35  O6        -8.9390  -21.0990   -7.3770 O.2     2  DG2        -0.2633
     36  N1        -7.4300  -20.7590   -5.7070 N.ar    2  DG2        -0.1709
     37  C2        -7.0860  -20.5040   -4.4010 C.ar    2  DG2         0.2606
     38  N2        -5.7740  -20.4380   -4.1370 N.pl3   2  DG2        -0.0859
     39  N3        -7.9610  -20.3290   -3.4310 N.ar    2  DG2        -0.1918
     40  C4        -9.2350  -20.4280   -3.8660 C.ar    2  DG2         0.1722
     41  P        -11.1610  -15.2520   -1.2960 P.3     3  DC3         0.2141
     42  OP1      -11.0600  -14.1450   -0.3210 O.3     3  DC3        -0.4373
     43  OP2      -11.5150  -14.9420   -2.6990 O.2     3  DC3        -0.5172
     44  O5'       -9.7580  -16.0280   -1.3250 O.3     3  DC3        -0.3114
     45  C5'       -8.8270  -16.0370   -0.2320 C.3     3  DC3         0.1812
     46  C4'       -7.4340  -16.4750   -0.6970 C.3     3  DC3         0.1775
     47  O4'       -7.5720  -17.6920   -1.4540 O.3     3  DC3        -0.3326
     48  C3'       -6.8190  -15.5220   -1.7100 C.3     3  DC3         0.1864
     49  O3'       -6.3460  -14.2380   -1.2320 O.3     3  DC3        -0.2133
     50  C2'       -5.8690  -16.4110   -2.4960 C.3     3  DC3         0.0895
     51  C1'       -6.6500  -17.7230   -2.5700 C.3     3  DC3         0.2107
     52  N1        -7.3000  -17.7830   -3.8200 N.ar    3  DC3        -0.2556
     53  C2        -6.3830  -17.8880   -4.8720 C.ar    3  DC3         0.3531
     54  O2        -5.2040  -18.1800   -4.6100 O.2     3  DC3        -0.2443
     55  N3        -6.8050  -17.6680   -6.1400 N.ar    3  DC3        -0.1739
     56  C4        -8.0810  -17.3560   -6.3740 C.ar    3  DC3         0.1759
     57  N4        -8.4510  -17.1480   -7.6400 N.pl3   3  DC3        -0.1070
     58  C5        -9.0260  -17.2450   -5.3220 C.ar    3  DC3         0.0566
     59  C6        -8.6050  -17.4620   -4.0710 C.ar    3  DC3         0.0849
     60  P         -4.9160  -13.8210   -0.6540 P.3     4  DA4         0.3939
     61  OP1       -4.0320  -13.0360    0.2410 O.3     4  DA4        -0.1425
     62  OP2       -6.0420  -13.1370   -1.3450 O.3     4  DA4        -0.1496
     63  O5'       -4.0610  -14.5040   -1.8130 O.3     4  DA4        -0.2926
     64  C5'       -2.7070  -14.8900   -1.6070 C.3     4  DA4         0.1828
     65  C4'       -1.9000  -14.6330   -2.8580 C.3     4  DA4         0.1747
     66  O4'       -2.2050  -15.6270   -3.8640 O.3     4  DA4        -0.3327
     67  C3'       -2.1970  -13.3110   -3.5280 C.3     4  DA4         0.1558
     68  O3'       -1.4920  -12.2380   -2.9220 O.3     4  DA4        -0.3138
     69  C2'       -1.7990  -13.5810   -4.9630 C.3     4  DA4         0.0865
     70  C1'       -2.2620  -15.0230   -5.1320 C.3     4  DA4         0.2094
     71  N9        -3.5330  -15.0600   -5.7590 N.ar    4  DA4        -0.2714
     72  C8        -4.7440  -14.9420   -5.1270 C.ar    4  DA4         0.1815
     73  N7        -5.7700  -14.9470   -5.9440 N.ar    4  DA4        -0.2193
     74  C5        -5.1950  -15.0770   -7.1980 C.ar    4  DA4         0.1518
     75  C6        -5.7470  -15.1470   -8.4890 C.ar    4  DA4         0.1919
     76  N6        -7.0570  -15.0940   -8.7370 N.pl3   4  DA4        -0.1054
     77  N1        -4.8940  -15.2750   -9.5290 N.ar    4  DA4        -0.2040
     78  C2        -3.5810  -15.3290   -9.2790 C.ar    4  DA4         0.2016
     79  N3        -2.9440  -15.2740   -8.1120 N.ar    4  DA4        -0.2048
     80  C4        -3.8180  -15.1470   -7.1000 C.ar    4  DA4         0.1691
     81  P         -2.2560  -10.7000   -2.8060 P.3     5  DG5         0.2141
     82  OP1       -1.2650   -9.7010   -2.3420 O.2     5  DG5        -0.5172
     83  OP2       -3.3820  -11.0100   -1.8920 O.3     5  DG5        -0.4373
     84  O5'       -2.8200  -10.2760   -4.2390 O.3     5  DG5        -0.3114
     85  C5'       -1.9470   -9.8060   -5.2640 C.3     5  DG5         0.1811
     86  C4'       -2.5790   -9.8000   -6.6450 C.3     5  DG5         0.1746
     87  O4'       -3.1860  -11.0900   -6.9330 O.3     5  DG5        -0.3327
     88  C3'       -3.7300   -8.8220   -6.8660 C.3     5  DG5         0.1558
     89  O3'       -3.3090   -7.4860   -7.0870 O.3     5  DG5        -0.3138
     90  C2'       -4.3420   -9.4190   -8.1260 C.3     5  DG5         0.0865
     91  C1'       -4.3270  -10.8980   -7.7540 C.3     5  DG5         0.2094
     92  N9        -5.5630  -11.2590   -6.9530 N.ar    5  DG5        -0.2713
     93  C8        -5.6120  -11.4350   -5.5920 C.ar    5  DG5         0.1816
     94  N7        -6.7580  -11.8980   -5.1730 N.ar    5  DG5        -0.2173
     95  C5        -7.5120  -12.0400   -6.3240 C.ar    5  DG5         0.1748
     96  C6        -8.8410  -12.5000   -6.5060 C.ar    5  DG5         0.3023
     97  O6        -9.6420  -12.8880   -5.6460 O.2     5  DG5        -0.2633
     98  N1        -9.2190  -12.4830   -7.8450 N.ar    5  DG5        -0.1709
     99  C2        -8.4150  -12.0740   -8.8820 C.ar    5  DG5         0.2606
    100  N2        -8.9560  -12.1300  -10.1070 N.pl3   5  DG5        -0.0859
    101  N3        -7.1780  -11.6440   -8.7290 N.ar    5  DG5        -0.1918
    102  C4        -6.7900  -11.6500   -7.4360 C.ar    5  DG5         0.1722
    103  P         -4.1930   -6.6900   -6.9930 P.3     6  DC6         0.2141
    104  OP1       -3.4960   -5.5800   -7.6810 O.2     6  DC6        -0.5172
    105  OP2       -5.2120   -6.4110   -5.9550 O.3     6  DC6        -0.4373
    106  O5'       -4.9730   -7.5730   -8.0750 O.3     6  DC6        -0.3114
    107  C5'       -4.5510   -7.6250   -9.4290 C.3     6  DC6         0.1811
    108  C4'       -5.7390   -7.7750  -10.3440 C.3     6  DC6         0.1746
    109  O4'       -6.2960   -9.1090  -10.2050 O.3     6  DC6        -0.3327
    110  C3'       -6.9210   -6.8720  -10.0290 C.3     6  DC6         0.1558
    111  O3'       -6.7710   -5.5350  -10.4730 O.3     6  DC6        -0.3138
    112  C2'       -8.0750   -7.6200  -10.6820 C.3     6  DC6         0.0866
    113  C1'       -7.7030   -9.0570  -10.3260 C.3     6  DC6         0.2106
    114  N1        -8.2810   -9.6510   -8.9540 N.ar    6  DC6        -0.2556
    115  C2        -9.5740  -10.1740   -9.0680 C.ar    6  DC6         0.3531
    116  O2       -10.0480  -10.3540  -10.2030 O.2     6  DC6        -0.2443
    117  N3       -10.2690  -10.4670   -7.9430 N.ar    6  DC6        -0.1739
    118  C4        -9.7200  -10.2560   -6.7460 C.ar    6  DC6         0.1759
    119  N4       -10.4430  -10.5600   -5.6660 N.pl3   6  DC6        -0.1070
    120  C5        -8.4120   -9.7270   -6.6090 C.ar    6  DC6         0.0566
    121  C6        -7.7290   -9.4390   -7.7220 C.ar    6  DC6         0.0849
    122  P         -7.6840   -4.2100   -9.5710 P.3     7  DA7         0.2141
    123  OP1       -7.0000   -3.1370  -10.3510 O.2     7  DA7        -0.5172
    124  OP2       -7.6650   -4.1750   -8.0990 O.3     7  DA7        -0.4373
    125  O5'       -9.2250   -4.2780   -9.9230 O.3     7  DA7        -0.3114
    126  C5'       -9.5920   -4.3340  -11.3090 C.3     7  DA7         0.1811
    127  C4'      -11.0130   -4.8300  -11.4100 C.3     7  DA7         0.1746
    128  O4'      -11.1160   -6.1570  -10.8230 O.3     7  DA7        -0.3327
    129  C3'      -12.0170   -4.0210  -10.5930 C.3     7  DA7         0.1558
    130  O3'      -12.3980   -2.8710  -11.3960 O.3     7  DA7        -0.3138
    131  C2'      -13.1970   -5.0090  -10.5610 C.3     7  DA7         0.0865
    132  C1'      -12.3980   -6.2700  -10.2400 C.3     7  DA7         0.2094
    133  N9       -12.2400   -6.5030   -8.8180 N.ar    7  DA7        -0.2714
    134  C8       -11.1180   -6.2420   -8.0750 C.ar    7  DA7         0.1815
    135  N7       -11.2510   -6.5220   -6.8000 N.ar    7  DA7        -0.2193
    136  C5       -12.5480   -6.9980   -6.6990 C.ar    7  DA7         0.1518
    137  C6       -13.3020   -7.4640   -5.6070 C.ar    7  DA7         0.1919
    138  N6       -12.8330   -7.5290   -4.3590 N.pl3   7  DA7        -0.1054
    139  N1       -14.5690   -7.8660   -5.8460 N.ar    7  DA7        -0.2040
    140  C2       -15.0370   -7.8010   -7.0980 C.ar    7  DA7         0.2016
    141  N3       -14.4260   -7.3840   -8.2040 N.ar    7  DA7        -0.2048
    142  C4       -13.1700   -6.9910   -7.9330 C.ar    7  DA7         0.1691
    143  P        -12.9090   -1.8010  -10.6990 P.3     8  DC8         0.2141
    144  OP1      -13.4310   -0.9910  -11.8230 O.2     8  DC8        -0.5172
    145  OP2      -11.7020   -1.3460   -9.9680 O.3     8  DC8        -0.4373
    146  O5'      -14.0670   -1.9640   -9.6210 O.3     8  DC8        -0.3114
    147  C5'      -15.4420   -2.0020  -10.0250 C.3     8  DC8         0.1811
    148  C4'      -16.3400   -2.2340   -8.8330 C.3     8  DC8         0.1746
    149  O4'      -16.1080   -3.5620   -8.2970 O.3     8  DC8        -0.3327
    150  C3'      -16.1530   -1.3110   -7.6370 C.3     8  DC8         0.1558
    151  O3'      -16.8170   -0.0640   -7.7650 O.3     8  DC8        -0.3138
    152  C2'      -16.7260   -2.1320   -6.4900 C.3     8  DC8         0.0866
    153  C1'      -16.3260   -3.5520   -6.8960 C.3     8  DC8         0.2106
    154  N1       -15.1000   -3.9430   -6.2170 N.ar    8  DC8        -0.2556
    155  C2       -15.2510   -4.3550   -4.8870 C.ar    8  DC8         0.3531
    156  O2       -16.3980   -4.5370   -4.4450 O.2     8  DC8        -0.2443
    157  N3       -14.1470   -4.5410   -4.1250 N.ar    8  DC8        -0.1739
    158  C4       -12.9360   -4.3330   -4.6420 C.ar    8  DC8         0.1759
    159  N4       -11.8770   -4.5290   -3.8530 N.pl3   8  DC8        -0.1070
    160  C5       -12.7610   -3.9150   -5.9870 C.ar    8  DC8         0.0566
    161  C6       -13.8540   -3.7330   -6.7360 C.ar    8  DC8         0.0849
    162  P        -16.3060    1.2100   -6.9210 P.3     9  DA9         0.2141
    163  OP1      -16.9150    2.5060   -7.3180 O.2     9  DA9        -0.5172
    164  OP2      -14.8730    0.9440   -7.2130 O.3     9  DA9        -0.4373
    165  O5'      -16.5410    1.0280   -5.3560 O.3     9  DA9        -0.3114
    166  C5'      -17.7850    1.4270   -4.7640 C.3     9  DA9         0.1811
    167  C4'      -17.8830    0.9420   -3.3380 C.3     9  DA9         0.1746
    168  O4'      -17.6830   -0.4960   -3.2880 O.3     9  DA9        -0.3327
    169  C3'      -16.8430    1.4310   -2.3500 C.3     9  DA9         0.1558
    170  O3'      -17.0590    2.7660   -1.9150 O.3     9  DA9        -0.3138
    171  C2'      -17.0520    0.4430   -1.2120 C.3     9  DA9         0.0865
    172  C1'      -17.2470   -0.8560   -1.9880 C.3     9  DA9         0.2094
    173  N9       -15.9540   -1.5830   -2.0590 N.ar    9  DA9        -0.2714
    174  C8       -14.9900   -1.5360   -3.0320 C.ar    9  DA9         0.1815
    175  N7       -14.0260   -2.4100   -2.8640 N.ar    9  DA9        -0.2193
    176  C5       -14.3800   -3.0750   -1.7000 C.ar    9  DA9         0.1518
    177  C6       -13.7690   -4.1190   -0.9840 C.ar    9  DA9         0.1919
    178  N6       -12.6250   -4.6990   -1.3550 N.pl3   9  DA9        -0.1054
    179  N1       -14.3820   -4.5510    0.1380 N.ar    9  DA9        -0.2040
    180  C2       -15.5280   -3.9700    0.5090 C.ar    9  DA9         0.2016
    181  N3       -16.1990   -2.9830   -0.0810 N.ar    9  DA9        -0.2048
    182  C4       -15.5640   -2.5750   -1.1920 C.ar    9  DA9         0.1691
    183  P        -15.8480    3.6040   -1.2590 P.3    10  DG10        0.2141
    184  OP1      -16.2650    4.9910   -0.9620 O.3    10  DG10       -0.4373
    185  OP2      -14.6840    3.3380   -2.1320 O.2    10  DG10       -0.5172
    186  O5'      -15.4880    2.8510    0.1030 O.3    10  DG10       -0.3114
    187  C5'      -16.4100    2.9880    1.1690 C.3    10  DG10        0.1811
    188  C4'      -16.1410    2.0320    2.3040 C.3    10  DG10        0.1746
    189  O4'      -15.8250    0.7070    1.8030 O.3    10  DG10       -0.3327
    190  C3'      -14.9690    2.3520    3.2220 C.3    10  DG10        0.1558
    191  O3'      -15.2550    3.4000    4.1320 O.3    10  DG10       -0.3138
    192  C2'      -14.7510    1.0150    3.9130 C.3    10  DG10        0.0865
    193  C1'      -15.1090    0.0200    2.8080 C.3    10  DG10        0.2094
    194  N9       -14.1750   -0.6600    1.9580 N.ar   10  DG10       -0.2713
    195  C8       -13.5670   -0.1740    0.8260 C.ar   10  DG10        0.1816
    196  N7       -12.4390   -0.7700    0.5510 N.ar   10  DG10       -0.2173
    197  C5       -12.2920   -1.7070    1.5570 C.ar   10  DG10        0.1748
    198  C6       -11.2610   -2.6520    1.7950 C.ar   10  DG10        0.3023
    199  O6       -10.2360   -2.8500    1.1310 O.2    10  DG10       -0.2633
    200  N1       -11.5040   -3.4120    2.9350 N.ar   10  DG10       -0.1709
    201  C2       -12.6050   -3.2790    3.7460 C.ar   10  DG10        0.2606
    202  N2       -12.6660   -4.1030    4.8010 N.pl3  10  DG10       -0.0859
    203  N3       -13.5710   -2.4050    3.5390 N.ar   10  DG10       -0.1918
    204  C4       -13.3550   -1.6550    2.4380 C.ar   10  DG10        0.1722
    205  P        -14.0630    4.1320    5.0140 P.3    11  DA11        0.2141
    206  OP1      -14.5010    5.3070    5.7550 O.3    11  DA11       -0.4373
    207  OP2      -13.1820    4.2830    3.8550 O.2    11  DA11       -0.5172
    208  O5'      -13.3560    3.0580    5.9990 O.3    11  DA11       -0.3114
    209  C5'      -14.1580    2.4070    7.0040 C.3    11  DA11        0.1811
    210  C4'      -13.4100    1.3650    7.7920 C.3    11  DA11        0.1746
    211  O4'      -13.2690    0.1540    7.0020 O.3    11  DA11       -0.3327
    212  C3'      -11.9870    1.6910    8.1400 C.3    11  DA11        0.1558
    213  O3'      -11.9330    2.4590    9.2960 O.3    11  DA11       -0.3138
    214  C2'      -11.4020    0.3010    8.4080 C.3    11  DA11        0.0865
    215  C1'      -12.0370   -0.5080    7.2940 C.3    11  DA11        0.2094
    216  N9       -11.4250   -0.7420    6.0200 N.ar   11  DA11       -0.2714
    217  C8       -11.4110    0.0480    4.8990 C.ar   11  DA11        0.1815
    218  N7       -10.4810   -0.2790    4.0340 N.ar   11  DA11       -0.2193
    219  C5        -9.8390   -1.3560    4.6260 C.ar   11  DA11        0.1518
    220  C6        -8.7610   -2.1580    4.2140 C.ar   11  DA11        0.1919
    221  N6        -8.1150   -1.9910    3.0580 N.pl3  11  DA11       -0.1054
    222  N1        -8.3670   -3.1500    5.0410 N.ar   11  DA11       -0.2040
    223  C2        -9.0160   -3.3170    6.1990 C.ar   11  DA11        0.2016
    224  N3       -10.0410   -2.6290    6.6950 N.ar   11  DA11       -0.2048
    225  C4       -10.4090   -1.6510    5.8500 C.ar   11  DA11        0.1691
    226  P        -10.6290    3.2050    9.3100 P.3    12  DG12        0.2141
    227  OP1      -11.1900    4.1870   10.2700 O.3    12  DG12       -0.4373
    228  OP2       -9.5330    3.6170    8.4160 O.2    12  DG12       -0.5172
    229  O5'      -10.1460    1.9730   10.1780 O.3    12  DG12       -0.3114
    230  C5'       -8.9240    2.0230   10.8440 C.3    12  DG12        0.1811
    231  C4'       -8.3340    0.6580   10.9150 C.3    12  DG12        0.1746
    232  O4'       -8.6160   -0.1000    9.7090 O.3    12  DG12       -0.3327
    233  C3'       -6.8340    0.7560   10.9100 C.3    12  DG12        0.1558
    234  O3'       -6.3870    1.1790   12.1720 O.3    12  DG12       -0.3138
    235  C2'       -6.4380   -0.6390   10.4640 C.3    12  DG12        0.0865
    236  C1'       -7.4830   -0.8940    9.3790 C.3    12  DG12        0.2094
    237  N9        -7.0140   -0.4750    8.0340 N.ar   12  DG12       -0.2713
    238  C8        -7.6150    0.5290    7.3160 C.ar   12  DG12        0.1816
    239  N7        -7.2520    0.5550    6.0620 N.ar   12  DG12       -0.2173
    240  C5        -6.3610   -0.4940    5.9420 C.ar   12  DG12        0.1748
    241  C6        -5.6320   -0.9630    4.8180 C.ar   12  DG12        0.3023
    242  O6        -5.6380   -0.5200    3.6630 O.2    12  DG12       -0.2633
    243  N1        -4.8350   -2.0590    5.1340 N.ar   12  DG12       -0.1709
    244  C2        -4.7490   -2.6330    6.3800 C.ar   12  DG12        0.2606
    245  N2        -3.9260   -3.6850    6.4910 N.pl3  12  DG12       -0.0859
    246  N3        -5.4190   -2.2090    7.4340 N.ar   12  DG12       -0.1918
    247  C4        -6.1990   -1.1440    7.1500 C.ar   12  DG12        0.1722
    248  P         -5.3920    1.9470   12.1370 P.3    13  DG13        0.2141
    249  OP1       -5.0990    2.2660   13.5530 O.3    13  DG13       -0.4373
    250  OP2       -5.7750    3.0320   11.2000 O.2    13  DG13       -0.5172
    251  O5'       -4.1440    1.1340   11.5490 O.3    13  DG13       -0.3114
    252  C5'       -3.6100    0.0900   12.3420 C.3    13  DG13        0.1811
    253  C4'       -2.5090   -0.6520   11.6110 C.3    13  DG13        0.1746
    254  O4'       -3.0550   -1.3400   10.4630 O.3    13  DG13       -0.3327
    255  C3'       -1.4050    0.2100   11.0250 C.3    13  DG13        0.1558
    256  O3'       -0.4740    0.5230   12.0380 O.3    13  DG13       -0.3138
    257  C2'       -0.8070   -0.7600   10.0190 C.3    13  DG13        0.0865
    258  C1'       -2.0590   -1.4350    9.4650 C.3    13  DG13        0.2094
    259  N9        -2.5440   -0.9390    8.2800 N.ar   13  DG13       -0.2713
    260  C8        -3.6070   -0.0830    8.1260 C.ar   13  DG13        0.1816
    261  N7        -3.7680    0.3220    6.8960 N.ar   13  DG13       -0.2173
    262  C5        -2.7550   -0.3030    6.1930 C.ar   13  DG13        0.1748
    263  C6        -2.4170   -0.2500    4.8170 C.ar   13  DG13        0.3023
    264  O6        -2.9750    0.3890    3.9150 O.2    13  DG13       -0.2633
    265  N1        -1.3090   -1.0400    4.5210 N.ar   13  DG13       -0.1709
    266  C2        -0.6130   -1.7890    5.4400 C.ar   13  DG13        0.2606
    267  N2         0.4270   -2.4880    4.9650 N.pl3  13  DG13       -0.0859
    268  N3        -0.9150   -1.8480    6.7220 N.ar   13  DG13       -0.1918
    269  C4        -1.9870   -1.0880    7.0320 C.ar   13  DG13        0.1722
    270  P         -0.1480    2.0620   12.3180 P.3    14  DT14        0.2141
    271  OP1        0.3070    2.4750   13.6700 O.3    14  DT14       -0.4373
    272  OP2       -0.9760    2.9770   11.4940 O.2    14  DT14       -0.5172
    273  O5'        1.0890    1.6860   11.3610 O.3    14  DT14       -0.3114
    274  C5'        2.1120    0.8030   11.8050 C.3    14  DT14        0.1811
    275  C4'        3.0140    0.3350   10.6890 C.3    14  DT14        0.1746
    276  O4'        2.2110   -0.1460    9.5870 O.3    14  DT14       -0.3327
    277  C3'        3.9080    1.3770   10.0330 C.3    14  DT14        0.1558
    278  O3'        5.0600    1.7040   10.7920 O.3    14  DT14       -0.3138
    279  C2'        4.2290    0.7220    8.6950 C.3    14  DT14        0.0866
    280  C1'        2.8810    0.0960    8.3650 C.3    14  DT14        0.2106
    281  N1         2.0640    1.0150    7.4900 N.ar   14  DT14       -0.2558
    282  C2         2.3430    1.0530    6.1370 C.ar   14  DT14        0.3545
    283  O2         3.3170    0.5110    5.6440 O.2    14  DT14       -0.2443
    284  N3         1.4380    1.7520    5.3770 N.ar   14  DT14       -0.1529
    285  C4         0.3070    2.4030    5.8240 C.ar   14  DT14        0.2850
    286  O4        -0.4120    2.9890    5.0180 O.3    14  DT14       -0.2708
    287  C5         0.0870    2.3190    7.2400 C.ar   14  DT14        0.0752
    288  C6         0.9510    1.6450    8.0030 C.ar   14  DT14        0.0842
    289  C7        -1.1170    2.9960    7.8240 C.3    14  DT14        0.1465
    290  P          5.3650    3.1450   11.1120 P.3    15  DC15        0.2141
    291  OP1        6.6950    3.2160   11.7570 O.2    15  DC15       -0.5172
    292  OP2        4.1660    3.5350   11.8880 O.3    15  DC15       -0.4373
    293  O5'        5.4120    4.0180    9.7660 O.3    15  DC15       -0.3114
    294  C5'        6.5090    3.9310    8.8530 C.3    15  DC15        0.1811
    295  C4'        6.1420    4.5210    7.5050 C.3    15  DC15        0.1746
    296  O4'        4.9800    3.8470    6.9680 O.3    15  DC15       -0.3327
    297  C3'        5.6900    5.9600    7.5630 C.3    15  DC15        0.1558
    298  O3'        6.7960    6.8040    7.5610 O.3    15  DC15       -0.3138
    299  C2'        4.8960    6.1150    6.2830 C.3    15  DC15        0.0866
    300  C1'        4.2210    4.7560    6.1870 C.3    15  DC15        0.2106
    301  N1         2.8630    4.8700    6.7410 N.ar   15  DC15       -0.2556
    302  C2         1.8400    5.5360    6.0570 C.ar   15  DC15        0.3530
    303  O2         2.1290    6.1950    5.0440 O.2    15  DC15       -0.2443
    304  N3         0.5690    5.4460    6.5190 N.ar   15  DC15       -0.1757
    305  C4         0.3060    4.7280    7.6120 C.ar   15  DC15        0.1540
    306  N4        -0.9600    4.6670    8.0290 N.pl3  15  DC15       -0.2151
    307  C5         1.3290    4.0450    8.3190 C.ar   15  DC15        0.0547
    308  C6         2.5820    4.1380    7.8600 C.ar   15  DC15        0.0849
    309  P          6.6220    7.4310    8.2660 P.3    16  DA16        0.2141
    310  OP1        7.9550    8.0480    8.3890 O.2    16  DA16       -0.5172
    311  OP2        5.7820    7.2220    9.4640 O.3    16  DA16       -0.4373
    312  O5'        5.7720    8.2670    7.2130 O.3    16  DA16       -0.3114
    313  C5'        6.3900    8.8850    6.1070 C.3    16  DA16        0.1811
    314  C4'        5.5380   10.0480    5.6420 C.3    16  DA16        0.1746
    315  O4'        4.2610    9.5660    5.1670 O.3    16  DA16       -0.3327
    316  C3'        5.1540   11.0210    6.7350 C.3    16  DA16        0.1558
    317  O3'        6.1680   11.9400    6.9030 O.3    16  DA16       -0.3138
    318  C2'        3.9470   11.6990    6.1170 C.3    16  DA16        0.0865
    319  C1'        3.2500   10.4900    5.5180 C.3    16  DA16        0.2094
    320  N9         2.3150    9.8750    6.4840 N.ar   16  DA16       -0.2714
    321  C8         2.5810    9.0170    7.5190 C.ar   16  DA16        0.1815
    322  N7         1.5580    8.8150    8.3150 N.ar   16  DA16       -0.2193
    323  C5         0.5520    9.5940    7.7660 C.ar   16  DA16        0.1518
    324  C6        -0.7850    9.8160    8.1430 C.ar   16  DA16        0.1919
    325  N6        -1.3570    9.2470    9.2070 N.pl3  16  DA16       -0.1054
    326  N1        -1.5200   10.6530    7.3800 N.ar   16  DA16       -0.2040
    327  C2        -0.9460   11.2210    6.3140 C.ar   16  DA16        0.2016
    328  N3         0.2980   11.0900    5.8590 N.ar   16  DA16       -0.2048
    329  C4         1.0030   10.2540    6.6390 C.ar   16  DA16        0.1691
    330  P          6.1820   12.5780    8.1320 P.3    17  DG17        0.2141
    331  OP1        7.6110   13.0240    8.2840 O.2    17  DG17       -0.5172
    332  OP2        5.6820   11.5860    9.1560 O.3    17  DG17       -0.4373
    333  O5'        5.0900   13.7790    8.1230 O.3    17  DG17       -0.3114
    334  C5'        5.2270   14.5150    6.8580 C.3    17  DG17        0.1811
    335  C4'        3.8250   14.9730    6.5080 C.3    17  DG17        0.1746
    336  O4'        2.9520   13.8730    6.3430 O.3    17  DG17       -0.3327
    337  C3'        3.1640   15.8170    7.5880 C.3    17  DG17        0.1558
    338  O3'        3.6890   17.1320    7.6370 O.3    17  DG17       -0.3138
    339  C2'        1.7070   15.7210    7.1760 C.3    17  DG17        0.0865
    340  C1'        1.6370   14.2730    6.6990 C.3    17  DG17        0.2094
    341  N9         1.0920   13.4820    7.7370 N.ar   17  DG17       -0.2713
    342  C8         1.8470   12.5820    8.4500 C.ar   17  DG17        0.1816
    343  N7         1.1580   11.9230    9.3400 N.ar   17  DG17       -0.2173
    344  C5        -0.1290   12.4110    9.2100 C.ar   17  DG17        0.1748
    345  C6        -1.3180   12.0800    9.9100 C.ar   17  DG17        0.3023
    346  O6        -1.4670   11.2520   10.8170 O.2    17  DG17       -0.2633
    347  N1        -2.4090   12.8190    9.4620 N.ar   17  DG17       -0.1709
    348  C2        -2.3600   13.7620    8.4630 C.ar   17  DG17        0.2606
    349  N2        -3.5170   14.3720    8.1690 N.pl3  17  DG17       -0.0859
    350  N3        -1.2630   14.0820    7.8050 N.ar   17  DG17       -0.1918
    351  C4        -0.1910   13.3770    8.2240 C.ar   17  DG17        0.1722
    352  P          3.5360   18.1160    8.9830 P.3    18  DA18        0.2141
    353  OP1        4.1220   19.3180    8.3360 O.2    18  DA18       -0.5172
    354  OP2        3.9480   17.7470   10.3570 O.3    18  DA18       -0.4373
    355  O5'        1.9470   18.2610    8.9310 O.3    18  DA18       -0.3114
    356  C5'        1.3390   19.3890    8.2550 C.3    18  DA18        0.1811
    357  C4'       -0.1810   19.3760    8.3940 C.3    18  DA18        0.1746
    358  O4'       -0.6140   17.9900    8.3010 O.3    18  DA18       -0.3327
    359  C3'       -0.7720   19.8780    9.7130 C.3    18  DA18        0.1558
    360  O3'       -1.1210   21.2550    9.6940 O.3    18  DA18       -0.3138
    361  C2'       -2.0630   19.0760    9.8220 C.3    18  DA18        0.0865
    362  C1'       -1.6110   17.7240    9.2790 C.3    18  DA18        0.2094
    363  N9        -1.1300   16.8510   10.2080 N.ar   18  DA18       -0.2714
    364  C8         0.2050   16.5780   10.3530 C.ar   18  DA18        0.1815
    365  N7         0.4710   15.7500   11.3350 N.ar   18  DA18       -0.2193
    366  C5        -0.7730   15.4600   11.8720 C.ar   18  DA18        0.1518
    367  C6        -1.1750   14.6400   12.9400 C.ar   18  DA18        0.1919
    368  N6        -0.3260   13.9310   13.6880 N.pl3  18  DA18       -0.1054
    369  N1        -2.4950   14.5720   13.2160 N.ar   18  DA18       -0.2040
    370  C2        -3.3450   15.2810   12.4650 C.ar   18  DA18        0.2016
    371  N3        -3.0880   16.0850   11.4360 N.ar   18  DA18       -0.2048
    372  C4        -1.7690   16.1320   11.1890 C.ar   18  DA18        0.1691
    373  P         -0.9790   22.2040   11.0970 P.3    19  DT19        0.2141
    374  OP1       -1.2120   23.5110   10.3930 O.2    19  DT19       -0.5172
    375  OP2        0.2080   22.0510   11.9940 O.3    19  DT19       -0.4373
    376  O5'       -2.2580   21.9630   12.0070 O.3    19  DT19       -0.3114
    377  C5'       -3.5530   22.0880   11.4610 C.3    19  DT19        0.1811
    378  C4'       -4.5010   21.1580   12.1570 C.3    19  DT19        0.1746
    379  O4'       -4.0310   19.7840   12.0090 O.3    19  DT19       -0.3327
    380  C3'       -4.6250   21.3010   13.6580 C.3    19  DT19        0.1558
    381  O3'       -5.3340   22.4640   14.0540 O.3    19  DT19       -0.3138
    382  C2'       -5.2350   19.9580   14.0360 C.3    19  DT19        0.0866
    383  C1'       -4.4270   19.0200   13.1450 C.3    19  DT19        0.2106
    384  N1        -3.3840   18.5390   13.9660 N.ar   19  DT19       -0.2559
    385  C2        -3.5520   17.5340   14.9000 C.ar   19  DT19        0.3545
    386  O2        -4.6450   17.1720   15.2970 O.2    19  DT19       -0.2443
    387  N3        -2.3870   16.9640   15.3560 N.ar   19  DT19       -0.1533
    388  C4        -1.1010   17.2910   14.9800 C.ar   19  DT19        0.2804
    389  O4        -0.1540   16.6880   15.4780 O.2    19  DT19       -0.2654
    390  C5        -1.0100   18.3440   14.0080 C.ar   19  DT19        0.0534
    391  C6        -2.1260   18.9150   13.5480 C.ar   19  DT19        0.0824
    392  C7         0.3470   18.7730   13.5350 C.3    19  DT19        0.0377
    393  P         -4.5710   23.5410   14.9340 P.3    20  DG20        0.2141
    394  OP1       -5.2420   24.8570   15.0370 O.3    20  DG20       -0.4373
    395  OP2       -3.0980   23.4670   14.7900 O.2    20  DG20       -0.5172
    396  O5'       -4.8690   22.6640   16.2450 O.3    20  DG20       -0.3114
    397  C5'       -6.0610   22.8720   16.9910 C.3    20  DG20        0.1811
    398  C4'       -6.3400   21.7860   18.0060 C.3    20  DG20        0.1746
    399  O4'       -5.9110   20.4910   17.5110 O.3    20  DG20       -0.3327
    400  C3'       -5.6490   21.8950   19.3600 C.3    20  DG20        0.1558
    401  O3'       -6.2520   22.8460   20.2250 O.3    20  DG20       -0.3138
    402  C2'       -5.7590   20.4670   19.8800 C.3    20  DG20        0.0865
    403  C1'       -5.5850   19.6540   18.6020 C.3    20  DG20        0.2094
    404  N9        -4.1800   19.2910   18.6370 N.ar   20  DG20       -0.2713
    405  C8        -3.2280   19.7910   17.7810 C.ar   20  DG20        0.1816
    406  N7        -2.0830   19.1710   17.8650 N.ar   20  DG20       -0.2173
    407  C5        -2.2870   18.2030   18.8310 C.ar   20  DG20        0.1748
    408  C6        -1.4060   17.2230   19.3560 C.ar   20  DG20        0.3023
    409  O6        -0.2250   17.0130   19.0540 O.2    20  DG20       -0.2633
    410  N1        -2.0210   16.4380   20.3290 N.ar   20  DG20       -0.1709
    411  C2        -3.3230   16.5810   20.7430 C.ar   20  DG20        0.2606
    412  N2        -3.7380   15.7290   21.6910 N.pl3  20  DG20       -0.0859
    413  N3        -4.1530   17.4870   20.2650 N.ar   20  DG20       -0.1918
    414  C4        -3.5780   18.2610   19.3200 C.ar   20  DG20        0.1722
    415  P         -5.4240   23.5030   21.4610 P.3    21  DC21        0.2141
    416  OP1       -6.8820   23.7810   21.5640 O.3    21  DC21       -0.4373
    417  OP2       -4.4580   24.6220   21.4380 O.2    21  DC21       -0.5172
    418  O5'       -5.0090   22.5800   22.6870 O.3    21  DC21       -0.3114
    419  C5'       -4.9970   21.1780   22.5450 C.3    21  DC21        0.1811
    420  C4'       -4.7890   20.4810   23.8700 C.3    21  DC21        0.1746
    421  O4'       -4.5870   19.0950   23.5090 O.3    21  DC21       -0.3327
    422  C3'       -3.5610   20.9000   24.6880 C.3    21  DC21        0.1558
    423  O3'       -3.9950   21.6790   25.8220 O.3    21  DC21       -0.3138
    424  C2'       -2.9570   19.5620   25.1270 C.3    21  DC21        0.0866
    425  C1'       -3.3390   18.6560   23.9690 C.3    21  DC21        0.2106
    426  N1        -2.3300   18.7660   22.6290 N.ar   21  DC21       -0.2556
    427  C2        -1.2110   17.9480   22.8230 C.ar   21  DC21        0.3531
    428  O2        -1.2740   17.0410   23.6700 O.2    21  DC21       -0.2443
    429  N3        -0.0970   18.1690   22.0850 N.ar   21  DC21       -0.1739
    430  C4        -0.0760   19.1550   21.1870 C.ar   21  DC21        0.1759
    431  N4         1.0440   19.3340   20.4830 N.pl3  21  DC21       -0.1070
    432  C5        -1.1990   19.9950   20.9760 C.ar   21  DC21        0.0566
    433  C6        -2.2970   19.7740   21.7070 C.ar   21  DC21        0.0849
    434  P         -2.9680   22.7440   26.5680 P.3    22  DG22        0.2141
    435  OP1       -3.3000   23.6840   27.6720 O.3    22  DG22       -0.4373
    436  OP2       -2.7530   23.2700   25.1900 O.2    22  DG22       -0.5172
    437  O5'       -1.6710   21.9210   26.9970 O.3    22  DG22       -0.3114
    438  C5'       -1.6080   21.2320   28.2660 C.3    22  DG22        0.1811
    439  C4'       -0.2300   20.6440   28.4820 C.3    22  DG22        0.1746
    440  O4'        0.0300   19.6140   27.4950 O.3    22  DG22       -0.3327
    441  C3'        0.9250   21.6230   28.3340 C.3    22  DG22        0.1558
    442  O3'        1.1480   22.3360   29.5450 O.3    22  DG22       -0.3138
    443  C2'        2.0930   20.7180   27.9580 C.3    22  DG22        0.0865
    444  C1'        1.3980   19.6400   27.1220 C.3    22  DG22        0.2094
    445  N9         1.4040   19.8470   25.6880 N.ar   22  DG22       -0.2713
    446  C8         0.4660   20.4440   24.8820 C.ar   22  DG22        0.1816
    447  N7         0.8870   20.6470   23.6640 N.ar   22  DG22       -0.2173
    448  C5         2.1780   20.1540   23.6610 C.ar   22  DG22        0.1748
    449  C6         3.1430   20.0970   22.6220 C.ar   22  DG22        0.3023
    450  O6         3.0330   20.4890   21.4530 O.2    22  DG22       -0.2633
    451  N1         4.3340   19.5160   23.0480 N.ar   22  DG22       -0.1709
    452  C2         4.5670   19.0470   24.3180 C.ar   22  DG22        0.2606
    453  N2         5.7780   18.5170   24.5400 N.pl3  22  DG22       -0.0859
    454  N3         3.6810   19.0930   25.2940 N.ar   22  DG22       -0.1918
    455  C4         2.5170   19.6540   24.9040 C.ar   22  DG22        0.1722
    456  P          1.8570   23.7710   29.4900 P.3    23  DA23        0.2141
    457  OP1        2.0530   24.4620   30.7840 O.3    23  DA23       -0.4373
    458  OP2        1.2990   24.5020   28.3300 O.2    23  DA23       -0.5172
    459  O5'        3.2710   23.2410   28.9670 O.3    23  DA23       -0.3114
    460  C5'        4.1400   22.5270   29.8320 C.3    23  DA23        0.1811
    461  C4'        5.4750   22.3090   29.1680 C.3    23  DA23        0.1746
    462  O4'        5.2850   21.4840   27.9900 O.3    23  DA23       -0.3327
    463  C3'        6.1580   23.5680   28.6540 C.3    23  DA23        0.1558
    464  O3'        6.8910   24.2540   29.6620 O.3    23  DA23       -0.3138
    465  C2'        7.0160   23.0400   27.5080 C.3    23  DA23        0.0865
    466  C1'        6.1480   21.9040   26.9560 C.3    23  DA23        0.2094
    467  N9         5.3450   22.2690   25.7970 N.ar   23  DA23       -0.2714
    468  C8         4.0040   22.5510   25.7720 C.ar   23  DA23        0.1815
    469  N7         3.5550   22.8800   24.5840 N.ar   23  DA23       -0.2193
    470  C5         4.6770   22.8100   23.7740 C.ar   23  DA23        0.1518
    471  C6         4.8680   23.0430   22.4010 C.ar   23  DA23        0.1919
    472  N6         3.8900   23.4090   21.5700 N.pl3  23  DA23       -0.1054
    473  N1         6.1150   22.8860   21.9060 N.ar   23  DA23       -0.2040
    474  C2         7.0950   22.5190   22.7400 C.ar   23  DA23        0.2016
    475  N3         7.0380   22.2700   24.0470 N.ar   23  DA23       -0.2048
    476  C4         5.7870   22.4360   24.5070 C.ar   23  DA23        0.1691
    477  P          7.1420   25.9540   29.6370 P.3    24  DT24        0.2141
    478  OP1        7.7830   26.3880   30.8980 O.3    24  DT24       -0.4373
    479  OP2        5.9390   26.6520   29.1300 O.2    24  DT24       -0.5172
    480  O5'        8.2090   26.0620   28.4470 O.3    24  DT24       -0.3114
    481  C5'        9.4940   25.4750   28.6110 C.3    24  DT24        0.1811
    482  C4'       10.2520   25.3650   27.3090 C.3    24  DT24        0.1746
    483  O4'        9.4960   24.5760   26.3540 O.3    24  DT24       -0.3327
    484  C3'       10.5300   26.6750   26.5830 C.3    24  DT24        0.1558
    485  O3'       11.6640   27.3530   27.0950 O.3    24  DT24       -0.3138
    486  C2'       10.6960   26.2350   25.1320 C.3    24  DT24        0.0866
    487  C1'        9.7260   25.0560   25.0470 C.3    24  DT24        0.2106
    488  N1         8.4320   25.4170   24.4460 N.ar   24  DT24       -0.2559
    489  C2         8.3520   25.3960   23.0670 C.ar   24  DT24        0.3545
    490  O2         9.2940   25.1050   22.3510 O.2    24  DT24       -0.2443
    491  N3         7.1240   25.7320   22.5510 N.ar   24  DT24       -0.1533
    492  C4         5.9930   26.0780   23.2600 C.ar   24  DT24        0.2804
    493  O4         4.9600   26.3540   22.6540 O.2    24  DT24       -0.2654
    494  C5         6.1560   26.0770   24.6860 C.ar   24  DT24        0.0534
    495  C6         7.3400   25.7550   25.2150 C.ar   24  DT24        0.0824
    496  C7         4.9820   26.4410   25.5460 C.3    24  DT24        0.0377
    497  P         11.9000   28.9850   26.8270 P.3    25  DC25        0.2141
    498  OP1       13.1470   29.3780   27.5240 O.3    25  DC25       -0.4373
    499  OP2       10.6360   29.7120   27.0790 O.2    25  DC25       -0.5172
    500  O5'       12.1100   29.1450   25.2490 O.3    25  DC25       -0.3114
    501  C5'       13.2750   28.5930   24.6510 C.3    25  DC25        0.1811
    502  C4'       13.4030   28.9410   23.1900 C.3    25  DC25        0.1746
    503  O4'       12.4180   28.1810   22.4420 O.3    25  DC25       -0.3327
    504  C3'       13.1890   30.4160   22.8530 C.3    25  DC25        0.1558
    505  O3'       14.3720   31.0600   22.3840 O.3    25  DC25       -0.3138
    506  C2'       12.1440   30.4370   21.7430 C.3    25  DC25        0.0866
    507  C1'       11.7350   28.9890   21.5070 C.3    25  DC25        0.2106
    508  N1        10.3180   28.9110   21.7420 N.ar   25  DC25       -0.2556
    509  C2         9.5580   29.4680   20.7060 C.ar   25  DC25        0.3531
    510  O2        10.1090   29.6920   19.6150 O.2    25  DC25       -0.2443
    511  N3         8.2510   29.7470   20.9230 N.ar   25  DC25       -0.1739
    512  C4         7.7020   29.4900   22.1110 C.ar   25  DC25        0.1759
    513  N4         6.4100   29.7810   22.2790 N.pl3  25  DC25       -0.1070
    514  C5         8.4540   28.9260   23.1730 C.ar   25  DC25        0.0566
    515  C6         9.7450   28.6520   22.9550 C.ar   25  DC25        0.0849
    516  P         14.4730   32.8150   22.6070 P.3    26  DT26        0.2141
    517  OP1       15.8210   33.3920   22.4180 O.2    26  DT26       -0.5172
    518  OP2       13.7540   32.9780   23.8920 O.3    26  DT26       -0.4373
    519  O5'       13.5380   33.3820   21.4520 O.3    26  DT26       -0.3115
    520  C5'       14.1050   33.6830   20.1960 C.3    26  DT26        0.1785
    521  C4'       13.0000   33.7580   19.1700 C.3    26  DT26        0.1473
    522  O4'       11.9550   32.8140   19.5150 O.3    26  DT26       -0.3353
    523  C3'       12.2390   35.0640   19.1660 C.3    26  DT26        0.0368
    524  O3'       12.9840   36.0730   18.5360 O.3    26  DT26       -0.1670
    525  C2'       11.0150   34.6470   18.3660 C.3    26  DT26        0.0566
    526  C1'       10.7070   33.3220   19.0580 C.3    26  DT26        0.2081
    527  N1         9.8160   33.5170   20.2110 N.ar   26  DT26       -0.2559
    528  C2         8.4490   33.6560   20.0590 C.ar   26  DT26        0.3545
    529  O2         7.9180   33.8500   18.9800 O.2    26  DT26       -0.2443
    530  N3         7.7220   33.5590   21.2200 N.ar   26  DT26       -0.1533
    531  C4         8.2130   33.3430   22.4910 C.ar   26  DT26        0.2804
    532  O4         7.4340   33.2790   23.4380 O.2    26  DT26       -0.2654
    533  C5         9.6410   33.2100   22.5670 C.ar   26  DT26        0.0534
    534  C6        10.3720   33.3000   21.4530 C.ar   26  DT26        0.0824
    535  C7        10.2720   32.9730   23.9070 C.3    26  DT26        0.0377
    536  P         12.8550   37.2730   19.1500 P.3    27  DG27        0.1980
    537  OP1       13.6610   36.4710   18.1990 O.3    27  DG27       -0.0310
    538  OP2       13.4720   38.4310   19.8520 O.3    27  DG27        0.0000
    539  O5'       11.5330   37.7520   18.4110 O.3    27  DG27       -0.2176
    540  C5'       10.9240   39.0090   18.7270 C.3    27  DG27        0.2140
    541  C4'       10.1190   39.4940   17.5520 C.3    27  DG27        0.1776
    542  O4'       11.0070   39.8070   16.4390 O.3    27  DG27       -0.3326
    543  C3'        9.1630   38.4640   16.9780 C.3    27  DG27        0.1559
    544  O3'        7.9590   38.4170   17.7350 O.3    27  DG27       -0.3138
    545  C2'        8.9590   38.9910   15.5630 C.3    27  DG27        0.0865
    546  C1'       10.3790   39.4550   15.2150 C.3    27  DG27        0.2094
    547  N9        11.1790   38.4110   14.5840 N.ar   27  DG27       -0.2713
    548  C8        12.1530   37.6430   15.1750 C.ar   27  DG27        0.1816
    549  N7        12.6770   36.7630   14.3660 N.ar   27  DG27       -0.2173
    550  C5        12.0140   36.9590   13.1690 C.ar   27  DG27        0.1748
    551  C6        12.1490   36.3000   11.9200 C.ar   27  DG27        0.3023
    552  O6        12.9150   35.3760   11.6200 O.2    27  DG27       -0.2633
    553  N1        11.2770   36.8140   10.9640 N.ar   27  DG27       -0.1709
    554  C2        10.3850   37.8360   11.1840 C.ar   27  DG27        0.2606
    555  N2         9.6270   38.1940   10.1390 N.pl3  27  DG27       -0.0859
    556  N3        10.2480   38.4570   12.3390 N.ar   27  DG27       -0.1918
    557  C4        11.0840   37.9750   13.2830 C.ar   27  DG27        0.1722
    558  P          7.4000   37.2560   17.8780 P.3    28  DG28        0.2141
    559  OP1        6.2980   37.9190   18.6270 O.3    28  DG28       -0.4373
    560  OP2        8.0180   36.0180   18.4290 O.2    28  DG28       -0.5172
    561  O5'        6.8910   36.9780   16.3890 O.3    28  DG28       -0.3114
    562  C5'        6.2440   38.0040   15.6410 C.3    28  DG28        0.1811
    563  C4'        5.9470   37.5390   14.2300 C.3    28  DG28        0.1746
    564  O4'        7.1590   37.5420   13.4230 O.3    28  DG28       -0.3327
    565  C3'        5.3640   36.1470   14.0310 C.3    28  DG28        0.1558
    566  O3'        3.9720   36.0550   14.3500 O.3    28  DG28       -0.3138
    567  C2'        5.6830   35.9040   12.5570 C.3    28  DG28        0.0865
    568  C1'        7.0710   36.5420   12.4270 C.3    28  DG28        0.2094
    569  N9         8.1520   35.5420   12.6900 N.ar   28  DG28       -0.2713
    570  C8         8.7650   35.1200   13.8440 C.ar   28  DG28        0.1816
    571  N7         9.4680   34.0320   13.6860 N.ar   28  DG28       -0.2173
    572  C5         9.3140   33.7160   12.3490 C.ar   28  DG28        0.1748
    573  C6         9.8390   32.6400   11.5880 C.ar   28  DG28        0.3023
    574  O6        10.5750   31.7200   11.9680 O.2    28  DG28       -0.2633
    575  N1         9.4320   32.6940   10.2580 N.ar   28  DG28       -0.1709
    576  C2         8.6180   33.6660    9.7270 C.ar   28  DG28        0.2606
    577  N2         8.3350   33.5510    8.4220 N.pl3  28  DG28       -0.0859
    578  N3         8.1220   34.6710   10.4210 N.ar   28  DG28       -0.1918
    579  C4         8.5040   34.6380   11.7150 C.ar   28  DG28        0.1722
    580  P          3.2340   34.5700   14.6940 P.3    29  DA29        0.2141
    581  OP1        1.9120   34.9850   15.2120 O.2    29  DA29       -0.5172
    582  OP2        4.2940   34.1160   15.6200 O.3    29  DA29       -0.4373
    583  O5'        2.9080   33.4190   13.6330 O.3    29  DA29       -0.3114
    584  C5'        2.1590   33.7670   12.4770 C.3    29  DA29        0.1812
    585  C4'        2.5670   32.9660   11.2660 C.3    29  DA29        0.1775
    586  O4'        3.9680   33.1960   10.9620 O.3    29  DA29       -0.3326
    587  C3'        2.4720   31.4530   11.3950 C.3    29  DA29        0.1864
    588  O3'        1.1490   30.9600   11.2710 O.3    29  DA29       -0.2133
    589  C2'        3.4160   30.9830   10.2960 C.3    29  DA29        0.0894
    590  C1'        4.5250   32.0310   10.3850 C.3    29  DA29        0.2095
    591  N9         5.6750   31.6390   11.1380 N.ar   29  DA29       -0.2714
    592  C8         5.9370   31.9380   12.4490 C.ar   29  DA29        0.1815
    593  N7         7.0840   31.4690   12.8800 N.ar   29  DA29       -0.2193
    594  C5         7.6110   30.8160   11.7760 C.ar   29  DA29        0.1518
    595  C6         8.8100   30.1090   11.5780 C.ar   29  DA29        0.1919
    596  N6         9.7320   29.9370   12.5290 N.pl3  29  DA29       -0.1054
    597  N1         9.0310   29.5800   10.3560 N.ar   29  DA29       -0.2040
    598  C2         8.1070   29.7540    9.4050 C.ar   29  DA29        0.2016
    599  N3         6.9440   30.3980    9.4700 N.ar   29  DA29       -0.2048
    600  C4         6.7540   30.9110   10.6960 C.ar   29  DA29        0.1691
    601  P          1.1280   29.3420   11.7290 P.3    30  DT30        0.3939
    602  OP1        0.0630   29.9040   10.8590 O.3    30  DT30       -0.1496
    603  OP2        0.7560   28.4880   12.8890 O.3    30  DT30       -0.1425
    604  O5'        2.1540   28.5330   10.8190 O.3    30  DT30       -0.2926
    605  C5'        2.9970   27.5230   11.3830 C.3    30  DT30        0.1828
    606  C4'        4.4240   28.0070   11.4530 C.3    30  DT30        0.1747
    607  O4'        4.4860   29.1920   12.2890 O.3    30  DT30       -0.3327
    608  C3'        5.3770   27.0360   12.1250 C.3    30  DT30        0.1558
    609  O3'        5.8220   26.0210   11.2330 O.3    30  DT30       -0.3138
    610  C2'        6.4870   27.9510   12.6260 C.3    30  DT30        0.0866
    611  C1'        5.6810   29.1740   13.0590 C.3    30  DT30        0.2106
    612  N1         5.2290   29.1520   14.5370 N.ar   30  DT30       -0.2559
    613  C2         6.1150   29.3310   15.5820 C.ar   30  DT30        0.3545
    614  O2         7.3230   29.2510   15.4500 O.2    30  DT30       -0.2443
    615  N3         5.5330   29.6060   16.7960 N.ar   30  DT30       -0.1533
    616  C4         4.1850   29.7190   17.0630 C.ar   30  DT30        0.2804
    617  O4         3.8140   29.9710   18.2070 O.2    30  DT30       -0.2654
    618  C5         3.3300   29.5190   15.9270 C.ar   30  DT30        0.0534
    619  C6         3.8690   29.2500   14.7350 C.ar   30  DT30        0.0824
    620  C7         1.8450   29.6200   16.1160 C.3    30  DT30        0.0377
    621  P          5.9200   25.1140   11.6350 P.3    31  DA31        0.2141
    622  OP1        5.8150   24.3510   10.3660 O.2    31  DA31       -0.5172
    623  OP2        4.8980   24.7640   12.6470 O.3    31  DA31       -0.4373
    624  O5'        7.3790   24.7980   12.2290 O.3    31  DA31       -0.3114
    625  C5'        8.4650   25.6580   11.8450 C.3    31  DA31        0.1811
    626  C4'        9.4520   25.8070   12.9790 C.3    31  DA31        0.1746
    627  O4'        9.0200   26.8500   13.9090 O.3    31  DA31       -0.3327
    628  C3'        9.5630   24.5640   13.8710 C.3    31  DA31        0.1558
    629  O3'       10.4180   23.5970   13.2960 O.3    31  DA31       -0.3138
    630  C2'       10.2360   25.1880   15.0920 C.3    31  DA31        0.0865
    631  C1'        9.5230   26.5400   15.1980 C.3    31  DA31        0.2094
    632  N9         8.3550   26.5560   16.0340 N.ar   31  DA31       -0.2714
    633  C8         7.0310   26.3380   15.7540 C.ar   31  DA31        0.1815
    634  N7         6.2880   26.1590   16.8200 N.ar   31  DA31       -0.2193
    635  C5         7.1850   26.2670   17.8720 C.ar   31  DA31        0.1518
    636  C6         7.0240   26.1760   19.2650 C.ar   31  DA31        0.1919
    637  N6         5.8510   25.9460   19.8610 N.pl3  31  DA31       -0.1054
    638  N1         8.1230   26.3300   20.0340 N.ar   31  DA31       -0.2040
    639  C2         9.2970   26.5620   19.4370 C.ar   31  DA31        0.2016
    640  N3         9.5740   26.6700   18.1390 N.ar   31  DA31       -0.2048
    641  C4         8.4620   26.5100   17.4030 C.ar   31  DA31        0.1691
    642  P          9.8940   21.8490   13.0410 P.3    32  DT32        0.2141
    643  OP1       10.7670   21.0420   12.1730 O.2    32  DT32       -0.5172
    644  OP2        8.4690   21.4910   13.2410 O.3    32  DT32       -0.4373
    645  O5'       10.5890   21.8240   14.4860 O.3    32  DT32       -0.3114
    646  C5'       11.9450   22.1190   14.6360 C.3    32  DT32        0.1812
    647  C4'       12.2300   22.1790   16.1240 C.3    32  DT32        0.1775
    648  O4'       11.5060   23.3100   16.7030 O.3    32  DT32       -0.3326
    649  C3'       11.7310   20.9660   16.9070 C.3    32  DT32        0.1864
    650  O3'       12.6110   19.7980   16.8340 O.3    32  DT32       -0.2133
    651  C2'       11.6860   21.5760   18.3100 C.3    32  DT32        0.0895
    652  C1'       11.1410   22.9860   18.0320 C.3    32  DT32        0.2107
    653  N1         9.7300   23.0580   18.2680 N.ar   32  DT32       -0.2559
    654  C2         9.1720   23.0820   19.5320 C.ar   32  DT32        0.3545
    655  O2         9.8230   22.9190   20.5490 O.2    32  DT32       -0.2443
    656  N3         7.8160   23.3040   19.5640 N.ar   32  DT32       -0.1533
    657  C4         6.9810   23.4990   18.4840 C.ar   32  DT32        0.2804
    658  O4         5.7820   23.6870   18.6720 O.2    32  DT32       -0.2654
    659  C5         7.6350   23.4590   17.2060 C.ar   32  DT32        0.0534
    660  C6         8.9520   23.2450   17.1460 C.ar   32  DT32        0.0824
    661  C7         6.8110   23.6600   15.9690 C.3    32  DT32        0.0377
    662  P         12.0660   18.2170   17.0440 P.3    33  DT33        0.3939
    663  OP1       13.2710   18.9770   17.4410 O.3    33  DT33       -0.1496
    664  OP2       12.1520   17.1800   15.9930 O.3    33  DT33       -0.1425
    665  O5'       11.4160   17.5520   18.3470 O.3    33  DT33       -0.2926
    666  C5'       12.2380   17.1800   19.4420 C.3    33  DT33        0.1828
    667  C4'       11.4410   17.2410   20.7300 C.3    33  DT33        0.1747
    668  O4'       10.7480   18.5050   20.8710 O.3    33  DT33       -0.3327
    669  C3'       10.2980   16.2510   20.7770 C.3    33  DT33        0.1558
    670  O3'       10.7980   14.9570   20.9980 O.3    33  DT33       -0.3138
    671  C2'        9.5130   16.7910   21.9620 C.3    33  DT33        0.0866
    672  C1'        9.6030   18.2930   21.6830 C.3    33  DT33        0.2106
    673  N1         8.3470   18.8070   20.9710 N.ar   33  DT33       -0.2559
    674  C2         7.2070   19.1390   21.6770 C.ar   33  DT33        0.3545
    675  O2         7.0510   18.8650   22.8540 O.2    33  DT33       -0.2443
    676  N3         6.2480   19.8060   20.9530 N.ar   33  DT33       -0.1533
    677  C4         6.3150   20.1670   19.6230 C.ar   33  DT33        0.2804
    678  O4         5.3720   20.7650   19.1110 O.2    33  DT33       -0.2654
    679  C5         7.5300   19.7860   18.9590 C.ar   33  DT33        0.0534
    680  C6         8.4780   19.1370   19.6390 C.ar   33  DT33        0.0824
    681  C7         7.6980   20.1330   17.5090 C.3    33  DT33        0.0377
    682  P         10.0190   13.7580   20.1800 P.3    34  DA34        0.2141
    683  OP1       10.8330   12.5880   19.7760 O.3    34  DA34       -0.4373
    684  OP2        9.5510   14.7280   19.1620 O.2    34  DA34       -0.5172
    685  O5'        8.6780   13.2640   20.9050 O.3    34  DA34       -0.3114
    686  C5'        8.7500   12.5670   22.1430 C.3    34  DA34        0.1811
    687  C4'        7.6240   12.9400   23.0780 C.3    34  DA34        0.1746
    688  O4'        7.4050   14.3750   23.0600 O.3    34  DA34       -0.3327
    689  C3'        6.2580   12.3550   22.7600 C.3    34  DA34        0.1558
    690  O3'        6.1320   11.0240   23.2290 O.3    34  DA34       -0.3138
    691  C2'        5.3050   13.3280   23.4440 C.3    34  DA34        0.0865
    692  C1'        6.0420   14.6610   23.2930 C.3    34  DA34        0.2094
    693  N9         5.5380   15.4410   22.1860 N.ar   34  DA34       -0.2714
    694  C8         6.1370   15.6270   20.9680 C.ar   34  DA34        0.1815
    695  N7         5.4770   16.4330   20.1710 N.ar   34  DA34       -0.2193
    696  C5         4.3680   16.8020   20.9160 C.ar   34  DA34        0.1518
    697  C6         3.2780   17.6440   20.6370 C.ar   34  DA34        0.1919
    698  N6         3.1230   18.2940   19.4810 N.pl3  34  DA34       -0.1054
    699  N1         2.3420   17.7970   21.5980 N.ar   34  DA34       -0.2040
    700  C2         2.4990   17.1460   22.7560 C.ar   34  DA34        0.2016
    701  N3         3.4790   16.3290   23.1360 N.ar   34  DA34       -0.2048
    702  C4         4.3920   16.1980   22.1590 C.ar   34  DA34        0.1691
    703  P          4.6640    9.9680   22.9260 P.3    35  DT35        0.2141
    704  OP1        4.8690    8.8280   23.8440 O.3    35  DT35       -0.4373
    705  OP2        4.7630    9.7550   21.4650 O.2    35  DT35       -0.5172
    706  O5'        3.1770   10.5260   23.1080 O.3    35  DT35       -0.3114
    707  C5'        2.7000   10.8480   24.4030 C.3    35  DT35        0.1811
    708  C4'        1.5520   11.8240   24.3510 C.3    35  DT35        0.1746
    709  O4'        1.9850   13.0840   23.7770 O.3    35  DT35       -0.3327
    710  C3'        0.3980   11.4320   23.4520 C.3    35  DT35        0.1558
    711  O3'       -0.4260   10.4370   24.0200 O.3    35  DT35       -0.3138
    712  C2'       -0.2890   12.7700   23.2340 C.3    35  DT35        0.0866
    713  C1'        0.9290   13.6660   23.0430 C.3    35  DT35        0.2106
    714  N1         1.2950   13.8250   21.6530 N.ar   35  DT35       -0.2559
    715  C2         0.5640   14.5130   20.7030 C.ar   35  DT35        0.3545
    716  O2        -0.5630   14.9280   20.9040 O.2    35  DT35       -0.2443
    717  N3         1.2040   14.6990   19.5010 N.ar   35  DT35       -0.1533
    718  C4         2.4710   14.2750   19.1620 C.ar   35  DT35        0.2804
    719  O4         2.9110   14.5190   18.0410 O.2    35  DT35       -0.2654
    720  C5         3.1650   13.5670   20.2010 C.ar   35  DT35        0.0534
    721  C6         2.5670   13.3730   21.3790 C.ar   35  DT35        0.0824
    722  C7         4.5520   13.0640   19.9290 C.3    35  DT35        0.0377
    723  P         -0.7460    9.2190   23.1350 P.3    36  DT36        0.2141
    724  OP1       -1.1940    8.0220   23.8820 O.3    36  DT36       -0.4373
    725  OP2        0.1360    9.0650   21.9590 O.2    36  DT36       -0.5172
    726  O5'       -2.0080   10.0110   22.5490 O.3    36  DT36       -0.3114
    727  C5'       -2.9720   10.6460   23.3790 C.3    36  DT36        0.1811
    728  C4'       -3.9700   11.4150   22.5490 C.3    36  DT36        0.1746
    729  O4'       -3.3140   12.5290   21.8890 O.3    36  DT36       -0.3327
    730  C3'       -4.6170   10.6260   21.4240 C.3    36  DT36        0.1558
    731  O3'       -5.7460    9.9020   21.8710 O.3    36  DT36       -0.3138
    732  C2'       -4.9690   11.6910   20.3980 C.3    36  DT36        0.0866
    733  C1'       -3.8410   12.7020   20.5870 C.3    36  DT36        0.2106
    734  N1        -2.7830   12.4500   19.5800 N.ar   36  DT36       -0.2559
    735  C2        -2.8000   13.1400   18.3830 C.ar   36  DT36        0.3545
    736  O2        -3.6310   13.9910   18.1180 O.2    36  DT36       -0.2443
    737  N3        -1.8040   12.7980   17.5000 N.ar   36  DT36       -0.1533
    738  C4        -0.8150   11.8550   17.6900 C.ar   36  DT36        0.2804
    739  O4         0.0120   11.6590   16.8030 O.2    36  DT36       -0.2654
    740  C5        -0.8660   11.1810   18.9570 C.ar   36  DT36        0.0534
    741  C6        -1.8230   11.4940   19.8340 C.ar   36  DT36        0.0824
    742  C7         0.1670   10.1360   19.2590 C.3    36  DT36        0.0377
    743  P         -6.5650    8.5920   20.7770 P.3    37  DT37        0.2141
    744  OP1       -7.3620    7.4970   21.3800 O.3    37  DT37       -0.4373
    745  OP2       -5.5980    8.3040   19.6920 O.2    37  DT37       -0.5172
    746  O5'       -7.5920    9.7200   20.2980 O.3    37  DT37       -0.3114
    747  C5'       -8.0920    9.7210   18.9740 C.3    37  DT37        0.1811
    748  C4'       -8.2510   11.1430   18.4680 C.3    37  DT37        0.1746
    749  O4'       -7.0090   11.8730   18.6420 O.3    37  DT37       -0.3327
    750  C3'       -8.5470   11.2320   16.9810 C.3    37  DT37        0.1558
    751  O3'       -9.9410   11.1080   16.7430 O.3    37  DT37       -0.3138
    752  C2'       -7.9940   12.6110   16.6170 C.3    37  DT37        0.0866
    753  C1'       -6.7630   12.6910   17.5160 C.3    37  DT37        0.2106
    754  N1        -5.5110   12.1200   16.6680 N.ar   37  DT37       -0.2559
    755  C2        -4.9980   12.8800   15.6340 C.ar   37  DT37        0.3545
    756  O2        -5.6030   13.8080   15.1280 O.2    37  DT37       -0.2443
    757  N3        -3.7450   12.5110   15.2080 N.ar   37  DT37       -0.1533
    758  C4        -2.9700   11.4820   15.7020 C.ar   37  DT37        0.2804
    759  O4        -1.8610   11.2720   15.2160 O.2    37  DT37       -0.2654
    760  C5        -3.5720   10.7400   16.7740 C.ar   37  DT37        0.0534
    761  C6        -4.7900   11.0770   17.2070 C.ar   37  DT37        0.0824
    762  C7        -2.8080    9.6000   17.3790 C.3    37  DT37        0.0377
    763  P        -10.2180   11.1050   15.1920 P.3    38  DT38        0.2141
    764  OP1      -11.6490   11.2050   15.4560 O.3    38  DT38       -0.4373
    765  OP2       -9.4610    9.8260   15.2950 O.2    38  DT38       -0.5172
    766  O5'       -9.7840   11.7510   13.8030 O.3    38  DT38       -0.3114
    767  C5'      -10.6790   12.6550   13.2480 C.3    38  DT38        0.1811
    768  C4'       -9.8720   13.5760   12.3750 C.3    38  DT38        0.1746
    769  O4'       -8.5950   13.5940   12.9740 O.3    38  DT38       -0.3327
    770  C3'       -9.5220   13.1020   10.9970 C.3    38  DT38        0.1558
    771  O3'      -10.5610   13.3270   10.0290 O.3    38  DT38       -0.3138
    772  C2'       -8.3590   14.0220   10.7920 C.3    38  DT38        0.0866
    773  C1'       -7.5900   13.7710   12.0030 C.3    38  DT38        0.2106
    774  N1        -6.7190   12.6760   11.8140 N.ar   38  DT38       -0.2559
    775  C2        -5.5870   12.6540   11.0210 C.ar   38  DT38        0.3545
    776  O2        -5.3640   13.4850   10.1580 O.2    38  DT38       -0.2443
    777  N3        -4.7210   11.6180   11.2740 N.ar   38  DT38       -0.1533
    778  C4        -4.8700   10.6250   12.2190 C.ar   38  DT38        0.2804
    779  O4        -4.0040    9.7600   12.3290 O.2    38  DT38       -0.2654
    780  C5        -6.0700   10.7160   13.0010 C.ar   38  DT38        0.0534
    781  C6        -6.9300   11.7130   12.7760 C.ar   38  DT38        0.0824
    782  C7        -6.3230    9.6800   14.0560 C.3    38  DT38        0.0377
    783  P        -10.9590   12.0940    9.4290 P.3    39  DT39        0.2141
    784  OP1      -12.3630   12.2870    9.0020 O.2    39  DT39       -0.5172
    785  OP2      -10.5010   10.7840    9.9450 O.3    39  DT39       -0.4373
    786  O5'       -9.9350   12.3780    8.2400 O.3    39  DT39       -0.3114
    787  C5'       -9.8660   13.6690    7.6630 C.3    39  DT39        0.1811
    788  C4'       -8.7220   13.7490    6.6900 C.3    39  DT39        0.1746
    789  O4'       -7.4780   13.8280    7.4250 O.3    39  DT39       -0.3327
    790  C3'       -8.5270   12.5480    5.7760 C.3    39  DT39        0.1558
    791  O3'       -9.3790   12.5690    4.6470 O.3    39  DT39       -0.3138
    792  C2'       -7.0620   12.6770    5.4000 C.3    39  DT39        0.0866
    793  C1'       -6.4630   13.1530    6.7200 C.3    39  DT39        0.2106
    794  N1        -5.9840   12.0470    7.5600 N.ar   39  DT39       -0.2559
    795  C2        -4.6730   11.6410    7.4000 C.ar   39  DT39        0.3545
    796  O2        -3.8690   12.2460    6.7130 O.2    39  DT39       -0.2443
    797  N3        -4.3340   10.4940    8.0760 N.ar   39  DT39       -0.1533
    798  C4        -5.1560    9.7300    8.8770 C.ar   39  DT39        0.2804
    799  O4        -4.7060    8.7230    9.4200 O.2    39  DT39       -0.2654
    800  C5        -6.5020   10.2160    8.9920 C.ar   39  DT39        0.0534
    801  C6        -6.8580   11.3290    8.3460 C.ar   39  DT39        0.0824
    802  C7        -7.4740    9.4530    9.8420 C.3    39  DT39        0.0377
    803  P         -9.3620   11.3800    3.5390 P.3    40  DG40        0.2141
    804  OP1      -10.2050   11.8170    2.4040 O.2    40  DG40       -0.5172
    805  OP2       -9.6370   10.0770    4.1860 O.3    40  DG40       -0.4373
    806  O5'       -7.8210   11.4340    3.0680 O.3    40  DG40       -0.3114
    807  C5'       -7.2670   12.6200    2.4250 C.3    40  DG40        0.1811
    808  C4'       -5.7580   12.5330    2.2580 C.3    40  DG40        0.1746
    809  O4'       -5.1220   12.3970    3.5540 O.3    40  DG40       -0.3327
    810  C3'       -5.2650   11.2890    1.5430 C.3    40  DG40        0.1558
    811  O3'       -5.3820   11.4120    0.1380 O.3    40  DG40       -0.3138
    812  C2'       -3.8190   11.1960    2.0140 C.3    40  DG40        0.0865
    813  C1'       -3.9780   11.5580    3.4810 C.3    40  DG40        0.2094
    814  N9        -4.2060   10.4030    4.3010 N.ar   40  DG40       -0.2713
    815  C8        -5.4120    9.8460    4.6510 C.ar   40  DG40        0.1816
    816  N7        -5.2910    8.7410    5.3340 N.ar   40  DG40       -0.2173
    817  C5        -3.9260    8.5540    5.4450 C.ar   40  DG40        0.1748
    818  C6        -3.1830    7.5240    6.0770 C.ar   40  DG40        0.3023
    819  O6        -3.6100    6.5370    6.6890 O.2    40  DG40       -0.2633
    820  N1        -1.8100    7.7190    5.9510 N.ar   40  DG40       -0.1709
    821  C2        -1.2250    8.7770    5.2960 C.ar   40  DG40        0.2606
    822  N2         0.1140    8.7940    5.2810 N.pl3  40  DG40       -0.0859
    823  N3        -1.9020    9.7410    4.7030 N.ar   40  DG40       -0.1918
    824  C4        -3.2370    9.5720    4.8130 C.ar   40  DG40        0.1722
    825  P         -5.7170   10.1440   -0.6830 P.3    41  DA41        0.2141
    826  OP1       -6.0730   10.6170   -2.0420 O.2    41  DA41       -0.5172
    827  OP2       -6.4800    9.1010    0.0420 O.3    41  DA41       -0.4373
    828  O5'       -4.2180    9.6050   -0.7460 O.3    41  DA41       -0.3114
    829  C5'       -3.1640   10.4360   -1.1690 C.3    41  DA41        0.1811
    830  C4'       -1.8490    9.7180   -0.9490 C.3    41  DA41        0.1744
    831  O4'       -1.5030    9.6940    0.4580 O.3    41  DA41       -0.3349
    832  C3'       -1.8640    8.2480   -1.3200 C.3    41  DA41        0.1555
    833  O3'       -1.7350    8.0800   -2.7030 O.3    41  DA41       -0.3139
    834  C2'       -0.6560    7.7470   -0.5540 C.3    41  DA41        0.0835
    835  C1'       -0.8720    8.4640    0.7760 C.3    41  DA41        0.1974
    836  N9        -1.7190    7.5800    1.7000 N.pl3  41  DA41       -0.2458
    837  C8        -3.0480    7.6460    2.0290 C.2    41  DA41        0.1669
    838  N7        -3.4330    6.7140    2.8680 N.2    41  DA41       -0.2207
    839  C5        -2.2790    5.9850    3.1060 C.2    41  DA41        0.1919
    840  C6        -2.0190    4.8620    3.9110 C.2    41  DA41        0.4324
    841  N6        -2.9460    4.2540    4.6540 N.pl3  41  DA41        0.2176
    842  N1        -0.7580    4.3800    3.9240 N.4    41  DA41        0.0013
    843  C2         0.1710    4.9900    3.1800 C.2    41  DA41        0.3340
    844  N3         0.0490    6.0510    2.3860 N.2    41  DA41       -0.2009
    845  C4        -1.2160    6.5060    2.3930 C.3    41  DA41        0.2335
    846  P         -2.5820    7.3140   -3.1440 P.3    42  DT42        0.2141
    847  OP1       -2.8280    7.8000   -4.5250 O.2    42  DT42       -0.5172
    848  OP2       -3.7110    7.0730   -2.2140 O.3    42  DT42       -0.4373
    849  O5'       -1.7770    5.9320   -3.1730 O.3    42  DT42       -0.3114
    850  C5'       -0.3590    5.9520   -3.0710 C.3    42  DT42        0.1811
    851  C4'        0.1550    4.6390   -2.5470 C.3    42  DT42        0.1758
    852  O4'       -0.2300    4.4980   -1.1640 O.3    42  DT42       -0.3242
    853  C3'       -0.3580    3.4140   -3.2830 C.3    42  DT42        0.1572
    854  O3'        0.6910    2.9130   -4.0930 O.3    42  DT42       -0.3138
    855  C2'       -0.8090    2.4210   -2.2100 C.3    42  DT42        0.0994
    856  C1'       -0.6140    3.1760   -0.8880 C.3    42  DT42        0.2263
    857  N1        -1.9670    3.7930    0.0020 N.ar   42  DT42       -0.2464
    858  C2        -2.2460    3.0930    1.1600 C.ar   42  DT42        0.3627
    859  O2        -1.4080    2.4430    1.7610 O.3    42  DT42       -0.2151
    860  N3        -3.5470    3.1780    1.5920 N.ar   42  DT42       -0.1528
    861  C4        -4.5750    3.8780    0.9950 C.ar   42  DT42        0.2804
    862  O4        -5.6940    3.8600    1.5030 O.2    42  DT42       -0.2654
    863  C5        -4.2070    4.5780   -0.2030 C.ar   42  DT42        0.0535
    864  C6        -2.9480    4.5120   -0.6450 C.ar   42  DT42        0.0836
    865  C7        -5.2560    5.3690   -0.9270 C.3    42  DT42        0.0377
    866  P          0.5930    2.0850   -5.6170 P.3    43  DA43        0.2141
    867  OP1        1.3740    2.8350   -6.6260 O.2    43  DA43       -0.5172
    868  OP2       -0.4910    1.1710   -6.0460 O.3    43  DA43       -0.4373
    869  O5'        1.6140    1.2630   -4.6990 O.3    43  DA43       -0.3114
    870  C5'        2.8980    0.9180   -5.2040 C.3    43  DA43        0.1811
    871  C4'        3.8110    0.4670   -4.0800 C.3    43  DA43        0.1767
    872  O4'        3.9830    1.5380   -3.1190 O.3    43  DA43       -0.3157
    873  C3'        3.2750   -0.7040   -3.2780 C.3    43  DA43        0.1581
    874  O3'        3.6750   -1.9140   -3.9120 O.3    43  DA43       -0.3138
    875  C2'        3.9600   -0.5050   -1.9280 C.3    43  DA43        0.1122
    876  C1'        4.0250    1.0170   -1.8030 C.3    43  DA43        0.2866
    877  N9         2.8130    1.4350   -1.1190 N.pl3  43  DA43       -0.1562
    878  C8         1.6980    2.0350   -1.6430 C.3    43  DA43        0.2897
    879  N7         0.7340    2.2140   -0.7710 N.3    43  DA43       -0.1753
    880  C5         1.2510    1.6950    0.4060 C.3    43  DA43        0.2875
    881  C6         0.7210    1.5830    1.7030 C.2    43  DA43        0.4275
    882  N6        -0.4980    2.0070    2.0430 N.2    43  DA43        0.1666
    883  N1         1.4980    1.0140    2.6500 N.2    43  DA43        0.0210
    884  C2         2.7200    0.5900    2.3080 C.2    43  DA43        0.4719
    885  N3         3.3270    0.6400    1.1250 N.2    43  DA43        0.0109
    886  C4         2.5300    1.2100    0.2060 C.2    43  DA43        0.3346
    887  P          2.6820   -3.1720   -3.9940 P.3    44  DC44        0.2141
    888  OP1        2.4420   -3.8590   -5.2930 O.2    44  DC44       -0.5172
    889  OP2        1.5970   -2.3640   -3.3660 O.3    44  DC44       -0.4373
    890  O5'        3.1650   -4.2650   -2.9470 O.3    44  DC44       -0.3114
    891  C5'        4.4100   -4.1550   -2.2640 C.3    44  DC44        0.1811
    892  C4'        4.2510   -4.6660   -0.8610 C.3    44  DC44        0.1746
    893  O4'        4.1680   -3.5550    0.0630 O.3    44  DC44       -0.3327
    894  C3'        2.9590   -5.4250   -0.6430 C.3    44  DC44        0.1558
    895  O3'        3.0130   -6.7580   -1.1210 O.3    44  DC44       -0.3138
    896  C2'        2.7140   -5.2650    0.8540 C.3    44  DC44        0.0866
    897  C1'        3.2570   -3.8640    1.1050 C.3    44  DC44        0.2106
    898  N1         2.1690   -2.9080    1.0120 N.ar   44  DC44       -0.2556
    899  C2         1.4920   -2.5560    2.1850 C.ar   44  DC44        0.3531
    900  O2         1.9460   -2.9400    3.2760 O.2    44  DC44       -0.2443
    901  N3         0.3650   -1.8100    2.0970 N.ar   44  DC44       -0.1739
    902  C4        -0.0860   -1.4200    0.9040 C.ar   44  DC44        0.1759
    903  N4        -1.2010   -0.6870    0.8670 N.pl3  44  DC44       -0.1070
    904  C5         0.5860   -1.7670   -0.2960 C.ar   44  DC44        0.0566
    905  C6         1.6980   -2.5030   -0.2050 C.ar   44  DC44        0.0849
    906  P          1.4520   -7.7580   -1.1420 P.3    45  DC45        0.2141
    907  OP1        1.8550   -8.8820   -2.0170 O.2    45  DC45       -0.5172
    908  OP2        0.0830   -7.1970   -1.2110 O.3    45  DC45       -0.4373
    909  O5'        1.6310   -8.1860    0.3910 O.3    45  DC45       -0.3114
    910  C5'        0.6390   -8.9870    1.0150 C.3    45  DC45        0.1811
    911  C4'        0.5030   -8.6840    2.4870 C.3    45  DC45        0.1746
    912  O4'        0.6950   -7.2670    2.7360 O.3    45  DC45       -0.3327
    913  C3'       -0.8680   -8.9650    3.0770 C.3    45  DC45        0.1558
    914  O3'       -1.0830  -10.3360    3.3570 O.3    45  DC45       -0.3138
    915  C2'       -0.8940   -8.0640    4.3030 C.3    45  DC45        0.0866
    916  C1'       -0.1760   -6.8310    3.7570 C.3    45  DC45        0.2106
    917  N1        -1.2110   -5.7890    3.1610 N.ar   45  DC45       -0.2556
    918  C2        -2.0220   -5.0500    4.0300 C.ar   45  DC45        0.3531
    919  O2        -2.1150   -5.4140    5.2150 O.2    45  DC45       -0.2443
    920  N3        -2.6800   -3.9650    3.5560 N.ar   45  DC45       -0.1739
    921  C4        -2.5500   -3.6140    2.2760 C.ar   45  DC45        0.1759
    922  N4        -3.2180   -2.5370    1.8530 N.pl3  45  DC45       -0.1070
    923  C5        -1.7330   -4.3490    1.3790 C.ar   45  DC45        0.0566
    924  C6        -1.0860   -5.4200    1.8520 C.ar   45  DC45        0.0849
    925  P         -2.3240  -10.8590    3.0480 P.3    46  DC46        0.2141
    926  OP1       -2.3020  -12.3390    3.0970 O.3    46  DC46       -0.4373
    927  OP2       -2.8550  -10.1670    1.8510 O.2    46  DC46       -0.5172
    928  O5'       -3.2110  -10.2830    4.2540 O.3    46  DC46       -0.3114
    929  C5'       -2.8220  -10.4800    5.6060 C.3    46  DC46        0.1811
    930  C4'       -3.7970   -9.8600    6.5770 C.3    46  DC46        0.1746
    931  O4'       -3.6870   -8.4120    6.5610 O.3    46  DC46       -0.3327
    932  C3'       -5.2700  -10.1040    6.2930 C.3    46  DC46        0.1558
    933  O3'       -5.7120  -11.3970    6.6620 O.3    46  DC46       -0.3138
    934  C2'       -5.9270   -8.9790    7.0820 C.3    46  DC46        0.0866
    935  C1'       -4.9550   -7.8360    6.7990 C.3    46  DC46        0.2106
    936  N1        -5.3410   -7.0230    5.6000 N.ar   46  DC46       -0.2556
    937  C2        -6.3910   -6.1090    5.7460 C.ar   46  DC46        0.3531
    938  O2        -6.9370   -5.9980    6.8560 O.2    46  DC46       -0.2443
    939  N3        -6.7800   -5.3760    4.6750 N.ar   46  DC46       -0.1739
    940  C4        -6.1660   -5.5300    3.5020 C.ar   46  DC46        0.1759
    941  N4        -6.5840   -4.7850    2.4750 N.pl3  46  DC46       -0.1070
    942  C5        -5.1000   -6.4510    3.3340 C.ar   46  DC46        0.0566
    943  C6        -4.7190   -7.1730    4.3930 C.ar   46  DC46        0.0849
    944  P         -6.9500  -12.0270    5.8890 P.3    47  DC47        0.2141
    945  OP1       -7.2010  -13.4210    6.3290 O.3    47  DC47       -0.4373
    946  OP2       -6.5650  -11.7490    4.4820 O.2    47  DC47       -0.5172
    947  O5'       -8.2490  -11.1690    6.2170 O.3    47  DC47       -0.3114
    948  C5'       -8.8820  -11.2560    7.5000 C.3    47  DC47        0.1811
    949  C4'      -10.0750  -10.3390    7.5480 C.3    47  DC47        0.1746
    950  O4'       -9.6440   -8.9550    7.4390 O.3    47  DC47       -0.3327
    951  C3'      -11.0410  -10.4730    6.3870 C.3    47  DC47        0.1558
    952  O3'      -11.8910  -11.6000    6.5280 O.3    47  DC47       -0.3138
    953  C2'      -11.7980   -9.1590    6.4730 C.3    47  DC47        0.0866
    954  C1'      -10.6570   -8.1960    6.7930 C.3    47  DC47        0.2106
    955  N1       -10.1010   -7.6430    5.5470 N.ar   47  DC47       -0.2556
    956  C2       -10.6980   -6.5070    4.9870 C.ar   47  DC47        0.3531
    957  O2       -11.7040   -6.0280    5.5380 O.2    47  DC47       -0.2443
    958  N3       -10.1650   -5.9660    3.8660 N.ar   47  DC47       -0.1739
    959  C4        -9.0850   -6.5150    3.3080 C.ar   47  DC47        0.1759
    960  N4        -8.5950   -5.9470    2.2040 N.pl3  47  DC47       -0.1070
    961  C5        -8.4650   -7.6660    3.8590 C.ar   47  DC47        0.0566
    962  C6        -8.9950   -8.1970    4.9670 C.ar   47  DC47        0.0849
    963  P        -11.8390  -12.8320    5.2700 P.3    48  DT48        0.2141
    964  OP1      -12.3760  -14.1860    5.5510 O.3    48  DT48       -0.4373
    965  OP2      -10.8860  -12.6420    4.1460 O.2    48  DT48       -0.5172
    966  O5'      -13.0590  -11.8300    5.0330 O.3    48  DT48       -0.3114
    967  C5'      -14.0580  -11.6430    6.0330 C.3    48  DT48        0.1811
    968  C4'      -14.9930  -10.5100    5.6570 C.3    48  DT48        0.1746
    969  O4'      -14.2300   -9.3050    5.3810 O.3    48  DT48       -0.3327
    970  C3'      -15.8320  -10.6610    4.3980 C.3    48  DT48        0.1558
    971  O3'      -16.9650  -11.4870    4.6370 O.3    48  DT48       -0.3138
    972  C2'      -16.2530   -9.2180    4.1340 C.3    48  DT48        0.0866
    973  C1'      -14.9880   -8.4560    4.5330 C.3    48  DT48        0.2106
    974  N1       -14.1590   -8.1200    3.4120 N.ar   48  DT48       -0.2559
    975  C2       -14.5190   -7.0080    2.6760 C.ar   48  DT48        0.3545
    976  O2       -15.5080   -6.3400    2.9210 O.2    48  DT48       -0.2443
    977  N3       -13.6760   -6.7030    1.6350 N.ar   48  DT48       -0.1533
    978  C4       -12.5350   -7.3840    1.2650 C.ar   48  DT48        0.2804
    979  O4       -11.8780   -6.9880    0.3050 O.2    48  DT48       -0.2654
    980  C5       -12.2290   -8.5270    2.0770 C.ar   48  DT48        0.0534
    981  C6       -13.0320   -8.8460    3.0960 C.ar   48  DT48        0.0824
    982  C7       -11.0070   -9.3340    1.7540 C.3    48  DT48        0.0377
    983  P        -17.8070  -11.9320    3.4670 P.3    49  DT49        0.2141
    984  OP1      -18.6670  -12.9850    4.0610 O.3    49  DT49       -0.4373
    985  OP2      -16.5350  -12.3400    2.8250 O.2    49  DT49       -0.5172
    986  O5'      -18.6790  -11.1610    2.3770 O.3    49  DT49       -0.3114
    987  C5'      -19.9240  -10.5710    2.6630 C.3    49  DT49        0.1811
    988  C4'      -20.3450   -9.7830    1.4430 C.3    49  DT49        0.1746
    989  O4'      -19.4360   -8.6610    1.2890 O.3    49  DT49       -0.3327
    990  C3'      -20.1700  -10.5270    0.1310 C.3    49  DT49        0.1558
    991  O3'      -21.2320  -11.4180   -0.1600 O.3    49  DT49       -0.3138
    992  C2'      -20.0180   -9.3970   -0.8880 C.3    49  DT49        0.0866
    993  C1'      -19.1250   -8.4600   -0.0810 C.3    49  DT49        0.2106
    994  N1       -17.6370   -8.8770   -0.2700 N.ar   49  DT49       -0.2559
    995  C2       -16.9820   -8.3130   -1.3480 C.ar   49  DT49        0.3545
    996  O2       -17.5260   -7.5600   -2.1360 O.2    49  DT49       -0.2443
    997  N3       -15.6590   -8.6650   -1.4740 N.ar   49  DT49       -0.1533
    998  C4       -14.9420   -9.5040   -0.6470 C.ar   49  DT49        0.2804
    999  O4       -13.7580   -9.7240   -0.8890 O.2    49  DT49       -0.2654
   1000  C5       -15.6920  -10.0500    0.4490 C.ar   49  DT49        0.0534
   1001  C6       -16.9800   -9.7250    0.5940 C.ar   49  DT49        0.0824
   1002  C7       -15.0000  -10.9760    1.4050 C.3    49  DT49        0.0377
   1003  P        -20.7040  -13.1810   -0.6750 P.3    50  DT50        0.2141
   1004  OP1      -21.5300  -14.4360   -0.7240 O.3    50  DT50       -0.4373
   1005  OP2      -19.2570  -13.4540   -0.8450 O.2    50  DT50       -0.5172
   1006  O5'      -21.2300  -12.2030   -1.8260 O.3    50  DT50       -0.3114
   1007  C5'      -21.6790  -12.7500   -3.0750 C.3    50  DT50        0.1811
   1008  C4'      -21.5580  -11.7260   -4.1680 C.3    50  DT50        0.1746
   1009  O4'      -20.6860  -10.6280   -3.7850 O.3    50  DT50       -0.3327
   1010  C3'      -20.8660  -12.3380   -5.3590 C.3    50  DT50        0.1558
   1011  O3'      -21.8430  -12.9910   -6.2040 O.3    50  DT50       -0.3138
   1012  C2'      -20.3020  -11.1290   -6.0520 C.3    50  DT50        0.0866
   1013  C1'      -19.8970  -10.2280   -4.8910 C.3    50  DT50        0.2106
   1014  N1       -18.4670  -10.4510   -4.5970 N.ar   50  DT50       -0.2559
   1015  C2       -17.5430   -9.6430   -5.2330 C.ar   50  DT50        0.3545
   1016  O2       -17.8480   -8.8330   -6.0900 O.2    50  DT50       -0.2443
   1017  N3       -16.2420   -9.8200   -4.8290 N.ar   50  DT50       -0.1533
   1018  C4       -15.7820  -10.7030   -3.8740 C.ar   50  DT50        0.2804
   1019  O4       -14.5810  -10.7470   -3.6180 O.2    50  DT50       -0.2654
   1020  C5       -16.8020  -11.5070   -3.2600 C.ar   50  DT50        0.0534
   1021  C6       -18.0750  -11.3550   -3.6340 C.ar   50  DT50        0.0824
   1022  C7       -16.4020  -12.4990   -2.2090 C.3    50  DT50        0.0377
   1023  P        -21.2040  -13.9760   -7.5360 P.3    51  DG51        0.2141
   1024  OP1      -22.2190  -14.7360   -8.3110 O.2    51  DG51       -0.5172
   1025  OP2      -20.3550  -14.6960   -6.5510 O.3    51  DG51       -0.4373
   1026  O5'      -20.2480  -13.2230   -8.5580 O.3    51  DG51       -0.3114
   1027  C5'      -20.7970  -12.2560   -9.4640 C.3    51  DG51        0.1811
   1028  C4'      -19.7550  -11.7940  -10.4480 C.3    51  DG51        0.1746
   1029  O4'      -18.8860  -10.8090   -9.8230 O.3    51  DG51       -0.3327
   1030  C3'      -18.8060  -12.8600  -10.9750 C.3    51  DG51        0.1558
   1031  O3'      -19.3500  -13.7200  -11.9690 O.3    51  DG51       -0.3138
   1032  C2'      -17.6150  -12.0230  -11.4260 C.3    51  DG51        0.0865
   1033  C1'      -17.5680  -10.9540  -10.3310 C.3    51  DG51        0.2094
   1034  N9       -16.7150  -11.4250   -9.2130 N.ar   51  DG51       -0.2713
   1035  C8       -17.1600  -12.0610   -8.0790 C.ar   51  DG51        0.1816
   1036  N7       -16.2160  -12.2790   -7.2060 N.ar   51  DG51       -0.2173
   1037  C5       -15.0780  -11.7560   -7.7920 C.ar   51  DG51        0.1748
   1038  C6       -13.7400  -11.6990   -7.3230 C.ar   51  DG51        0.3023
   1039  O6       -13.2860  -12.1180   -6.2510 O.2    51  DG51       -0.2633
   1040  N1       -12.8940  -11.0810   -8.2390 N.ar   51  DG51       -0.1709
   1041  C2       -13.2870  -10.5800   -9.4570 C.ar   51  DG51        0.2606
   1042  N2       -12.3260  -10.0180  -10.2030 N.pl3  51  DG51       -0.0859
   1043  N3       -14.5260  -10.6260   -9.9060 N.ar   51  DG51       -0.1918
   1044  C4       -15.3660  -11.2230   -9.0340 C.ar   51  DG51        0.1722
   1045  P        -19.3000  -15.4830  -11.6620 P.3    52  DG52        0.2141
   1046  OP1      -20.4320  -16.4470  -11.5900 O.2    52  DG52       -0.5172
   1047  OP2      -18.3630  -15.3520  -10.5130 O.3    52  DG52       -0.4373
   1048  O5'      -18.4600  -15.8080  -12.9760 O.3    52  DG52       -0.3114
   1049  C5'      -19.1100  -15.9170  -14.2310 C.3    52  DG52        0.1811
   1050  C4'      -18.0960  -16.0370  -15.3260 C.3    52  DG52        0.1746
   1051  O4'      -17.1270  -14.9890  -15.1400 O.3    52  DG52       -0.3327
   1052  C3'      -17.2310  -17.2850  -15.3590 C.3    52  DG52        0.1558
   1053  O3'      -17.8980  -18.3530  -16.0000 O.3    52  DG52       -0.3138
   1054  C2'      -16.0280  -16.8310  -16.1770 C.3    52  DG52        0.0865
   1055  C1'      -15.9140  -15.3700  -15.7560 C.3    52  DG52        0.2094
   1056  N9       -14.8210  -15.1920  -14.8290 N.ar   52  DG52       -0.2713
   1057  C8       -14.9280  -14.8430  -13.5050 C.ar   52  DG52        0.1816
   1058  N7       -13.7730  -14.7290  -12.9070 N.ar   52  DG52       -0.2173
   1059  C5       -12.8470  -15.0170  -13.8930 C.ar   52  DG52        0.1748
   1060  C6       -11.4300  -15.0560  -13.8450 C.ar   52  DG52        0.3023
   1061  O6       -10.6900  -14.8330  -12.8780 O.2    52  DG52       -0.2633
   1062  N1       -10.8760  -15.3950  -15.0760 N.ar   52  DG52       -0.1709
   1063  C2       -11.5990  -15.6640  -16.2140 C.ar   52  DG52        0.2606
   1064  N2       -10.8880  -15.9720  -17.3070 N.pl3  52  DG52       -0.0859
   1065  N3       -12.9160  -15.6320  -16.2740 N.ar   52  DG52       -0.1918
   1066  C4       -13.4750  -15.3060  -15.0890 C.ar   52  DG52        0.1722
   1067  P        -17.7670  -19.7160  -15.4380 P.3    53  DG53        0.2141
   1068  OP1      -18.7820  -20.6400  -15.9980 O.2    53  DG53       -0.5172
   1069  OP2      -17.6920  -19.5140  -13.9780 O.3    53  DG53       -0.4373
   1070  O5'      -16.3150  -20.1470  -15.9350 O.3    53  DG53       -0.3114
   1071  C5'      -16.0900  -20.5100  -17.3070 C.3    53  DG53        0.1811
   1072  C4'      -14.6210  -20.7350  -17.5710 C.3    53  DG53        0.1746
   1073  O4'      -13.8810  -19.5280  -17.2550 O.3    53  DG53       -0.3327
   1074  C3'      -13.9320  -21.8420  -16.7920 C.3    53  DG53        0.1558
   1075  O3'      -14.1400  -23.0970  -17.4310 O.3    53  DG53       -0.3138
   1076  C2'      -12.4650  -21.4100  -16.8150 C.3    53  DG53        0.0865
   1077  C1'      -12.5810  -19.8790  -16.7980 C.3    53  DG53        0.2094
   1078  N9       -12.3270  -19.3000  -15.5170 N.ar   53  DG53       -0.2713
   1079  C8       -13.2320  -18.8420  -14.5900 C.ar   53  DG53        0.1816
   1080  N7       -12.6740  -18.4420  -13.4800 N.ar   53  DG53       -0.2173
   1081  C5       -11.3210  -18.6430  -13.6830 C.ar   53  DG53        0.1748
   1082  C6       -10.2130  -18.3980  -12.8320 C.ar   53  DG53        0.3023
   1083  O6       -10.2170  -17.9340  -11.6850 O.2    53  DG53       -0.2633
   1084  N1        -9.0080  -18.7490  -13.4330 N.ar   53  DG53       -0.1709
   1085  C2        -8.8850  -19.2710  -14.6980 C.ar   53  DG53        0.2606
   1086  N2        -7.6380  -19.5460  -15.1050 N.pl3  53  DG53       -0.0859
   1087  N3        -9.9040  -19.5050  -15.5000 N.ar   53  DG53       -0.1918
   1088  C4       -11.0860  -19.1730  -14.9370 C.ar   53  DG53        0.1722
   1089  P        -13.7720  -24.4520  -16.6670 P.3    54  DG54        0.2141
   1090  OP1      -14.1350  -25.6420  -17.4660 O.2    54  DG54       -0.5172
   1091  OP2      -14.3570  -24.2900  -15.3160 O.3    54  DG54       -0.4373
   1092  O5'      -12.1770  -24.3890  -16.5350 O.3    54  DG54       -0.3114
   1093  C5'      -11.3580  -24.6760  -17.6630 C.3    54  DG54        0.1811
   1094  C4'       -9.8810  -24.4930  -17.3670 C.3    54  DG54        0.1746
   1095  O4'       -9.5880  -23.1440  -16.9200 O.3    54  DG54       -0.3327
   1096  C3'       -9.3330  -25.3400  -16.2320 C.3    54  DG54        0.1558
   1097  O3'       -9.1720  -26.6830  -16.6040 O.3    54  DG54       -0.3138
   1098  C2'       -8.0090  -24.6420  -15.9810 C.3    54  DG54        0.0865
   1099  C1'       -8.4930  -23.1910  -16.0110 C.3    54  DG54        0.2094
   1100  N9        -9.0130  -22.7080  -14.6110 N.ar   54  DG54       -0.2713
   1101  C8       -10.2760  -22.5930  -14.0840 C.ar   54  DG54        0.1816
   1102  N7       -10.2810  -22.4170  -12.7900 N.ar   54  DG54       -0.2173
   1103  C5        -8.9430  -22.4140  -12.4400 C.ar   54  DG54        0.1748
   1104  C6        -8.3210  -22.2650  -11.1740 C.ar   54  DG54        0.3023
   1105  O6        -8.8570  -22.0980  -10.0720 O.2    54  DG54       -0.2633
   1106  N1        -6.9330  -22.3240  -11.2660 N.ar   54  DG54       -0.1709
   1107  C2        -6.2310  -22.5050  -12.4340 C.ar   54  DG54        0.2606
   1108  N2        -4.8960  -22.5340  -12.3230 N.pl3  54  DG54       -0.0859
   1109  N3        -6.7960  -22.6460  -13.6170 N.ar   54  DG54       -0.1918
   1110  C4        -8.1430  -22.5930  -13.5520 C.ar   54  DG54        0.1722
   1111  P         -9.8960  -27.7590  -15.6730 P.3    55  DA55        0.2141
   1112  OP1      -10.1550  -28.9730  -16.4970 O.2    55  DA55       -0.5172
   1113  OP2      -10.9840  -27.3710  -14.7240 O.3    55  DA55       -0.4373
   1114  O5'       -8.4710  -27.9050  -14.9630 O.3    55  DA55       -0.3114
   1115  C5'       -7.4310  -28.4660  -15.7040 C.3    55  DA55        0.1811
   1116  C4'       -6.1230  -28.3200  -14.9630 C.3    55  DA55        0.1746
   1117  O4'       -5.9270  -26.9510  -14.5570 O.3    55  DA55       -0.3327
   1118  C3'       -5.9920  -29.0490  -13.6370 C.3    55  DA55        0.1558
   1119  O3'       -5.8240  -30.4140  -13.8630 O.3    55  DA55       -0.3138
   1120  C2'       -4.7660  -28.3270  -13.0740 C.3    55  DA55        0.0865
   1121  C1'       -5.2380  -26.9100  -13.3180 C.3    55  DA55        0.2094
   1122  N9        -6.1500  -26.3460  -12.3090 N.ar   55  DA55       -0.2714
   1123  C8        -7.4930  -26.1870  -12.5270 C.ar   55  DA55        0.1815
   1124  N7        -8.1340  -25.6550  -11.5130 N.ar   55  DA55       -0.2193
   1125  C5        -7.1440  -25.4510  -10.5650 C.ar   55  DA55        0.1518
   1126  C6        -7.1750  -24.9150   -9.2650 C.ar   55  DA55        0.1919
   1127  N6        -8.2870  -24.4670   -8.6760 N.pl3  55  DA55       -0.1054
   1128  N1        -6.0110  -24.8550   -8.5850 N.ar   55  DA55       -0.2040
   1129  C2        -4.8970  -25.3030   -9.1760 C.ar   55  DA55        0.2016
   1130  N3        -4.7420  -25.8260  -10.3900 N.ar   55  DA55       -0.2048
   1131  C4        -5.9170  -25.8730  -11.0400 C.ar   55  DA55        0.1691
   1132  P         -6.3800  -31.3500  -12.9450 P.3    56  DG56        0.2141
   1133  OP1       -6.4780  -32.7230  -13.5250 O.2    56  DG56       -0.5172
   1134  OP2       -7.5820  -30.7280  -12.3270 O.3    56  DG56       -0.4373
   1135  O5'       -5.1870  -31.3670  -11.8800 O.3    56  DG56       -0.3114
   1136  C5'       -4.7900  -30.1640  -11.2000 C.3    56  DG56        0.1811
   1137  C4'       -4.3190  -30.4750   -9.7990 C.3    56  DG56        0.1767
   1138  O4'       -4.3050  -29.2250   -9.0660 O.3    56  DG56       -0.3154
   1139  C3'       -5.2150  -31.4240   -9.0070 C.3    56  DG56        0.1581
   1140  O3'       -4.6400  -32.7330   -9.0150 O.3    56  DG56       -0.3138
   1141  C2'       -5.2150  -30.8320   -7.6000 C.3    56  DG56        0.1126
   1142  C1'       -5.0850  -29.3410   -7.8990 C.3    56  DG56        0.2911
   1143  N9        -5.7840  -28.4230   -7.9420 N.pl3  56  DG56       -0.1302
   1144  C8        -6.8900  -28.6310   -8.7300 C.2    56  DG56        0.2799
   1145  N7        -8.0140  -28.3780   -8.1180 N.2    56  DG56       -0.2096
   1146  C5        -7.6320  -27.9770   -6.8510 C.3    56  DG56        0.3072
   1147  C6        -8.4110  -27.5760   -5.7350 C.2    56  DG56        0.3535
   1148  O6        -9.6430  -27.4940   -5.6510 O.2    56  DG56       -0.2506
   1149  N1        -7.6200  -27.2510   -4.6370 N.am   56  DG56        0.0136
   1150  C2        -6.2470  -27.3050   -4.6170 C.2    56  DG56        0.5244
   1151  N2        -5.6580  -26.9520   -3.4660 N.pl3  56  DG56        0.1572
   1152  N3        -5.5090  -27.6760   -5.6450 N.2    56  DG56        0.0290
   1153  C4        -6.2570  -27.9980   -6.7220 C.2    56  DG56        0.3467
   1154  P         -5.6290  -33.9830   -8.9180 P.3    57  DA57        0.2141
   1155  OP1       -5.7340  -35.3770   -9.4020 O.3    57  DA57       -0.4373
   1156  OP2       -6.4600  -32.9190   -9.5250 O.2    57  DA57       -0.5172
   1157  O5'       -5.9870  -33.9310   -7.3610 O.3    57  DA57       -0.3114
   1158  C5'       -7.2060  -34.4980   -6.9000 C.3    57  DA57        0.1811
   1159  C4'       -7.2300  -34.6660   -5.4010 C.3    57  DA57        0.1746
   1160  O4'       -6.2270  -35.6590   -5.0530 O.3    57  DA57       -0.3327
   1161  C3'       -6.8930  -33.4100   -4.5990 C.3    57  DA57        0.1558
   1162  O3'       -8.0070  -32.8300   -3.9290 O.3    57  DA57       -0.3138
   1163  C2'       -5.8590  -33.8440   -3.5640 C.3    57  DA57        0.0865
   1164  C1'       -5.3730  -35.2140   -4.0190 C.3    57  DA57        0.2094
   1165  N9        -4.0610  -34.9460   -4.6360 N.ar   57  DA57       -0.2714
   1166  C8        -3.6610  -34.7800   -5.9360 C.ar   57  DA57        0.1815
   1167  N7        -2.4080  -34.4120   -6.0610 N.ar   57  DA57       -0.2193
   1168  C5        -1.9550  -34.3280   -4.7540 C.ar   57  DA57        0.1518
   1169  C6        -0.7070  -33.9860   -4.2050 C.ar   57  DA57        0.1919
   1170  N6         0.3570  -33.6510   -4.9400 N.pl3  57  DA57       -0.1054
   1171  N1        -0.5880  -34.0000   -2.8600 N.ar   57  DA57       -0.2040
   1172  C2        -1.6540  -34.3370   -2.1250 C.ar   57  DA57        0.2016
   1173  N3        -2.8770  -34.6780   -2.5250 N.ar   57  DA57       -0.2048
   1174  C4        -2.9620  -34.6530   -3.8650 C.ar   57  DA57        0.1691
   1175  P         -8.0960  -31.0360   -3.9870 P.3    58  DC58        0.2141
   1176  OP1       -9.4810  -30.6040   -3.6790 O.3    58  DC58       -0.4373
   1177  OP2       -7.4020  -30.4730   -5.1720 O.2    58  DC58       -0.5172
   1178  O5'       -7.1660  -30.8010   -2.7080 O.3    58  DC58       -0.3114
   1179  C5'       -7.4900  -31.4310   -1.4770 C.3    58  DC58        0.1811
   1180  C4'       -6.2760  -31.4780   -0.5770 C.3    58  DC58        0.1746
   1181  O4'       -5.2060  -32.2180   -1.2090 O.3    58  DC58       -0.3327
   1182  C3'       -5.6250  -30.1310   -0.3360 C.3    58  DC58        0.1558
   1183  O3'       -6.3750  -29.3750    0.5900 O.3    58  DC58       -0.3138
   1184  C2'       -4.2290  -30.5250    0.1400 C.3    58  DC58        0.0866
   1185  C1'       -3.9500  -31.6750   -0.8230 C.3    58  DC58        0.2106
   1186  N1        -3.2520  -31.2930   -2.0170 N.ar   58  DC58       -0.2556
   1187  C2        -1.8850  -30.9940   -1.9730 C.ar   58  DC58        0.3531
   1188  O2        -1.3140  -30.9710   -0.8690 O.2    58  DC58       -0.2443
   1189  N3        -1.2280  -30.7400   -3.1290 N.ar   58  DC58       -0.1739
   1190  C4        -1.8830  -30.7750   -4.2900 C.ar   58  DC58        0.1759
   1191  N4        -1.1940  -30.5180   -5.4040 N.pl3  58  DC58       -0.1070
   1192  C5        -3.2680  -31.0760   -4.3560 C.ar   58  DC58        0.0566
   1193  C6        -3.9130  -31.3260   -3.2120 C.ar   58  DC58        0.0849
   1194  P         -6.6410  -27.8240    0.2040 P.3    59  DA59        0.2141
   1195  OP1       -7.5850  -27.3760    1.2530 O.3    59  DA59       -0.4373
   1196  OP2       -6.9670  -27.6210   -1.2290 O.2    59  DA59       -0.5172
   1197  O5'       -5.2120  -27.1100    0.4060 O.3    59  DA59       -0.3114
   1198  C5'       -4.5720  -27.0410    1.6810 C.3    59  DA59        0.1811
   1199  C4'       -3.1910  -26.4120    1.6430 C.3    59  DA59        0.1746
   1200  O4'       -2.2130  -27.3520    1.1220 O.3    59  DA59       -0.3327
   1201  C3'       -3.0200  -25.1620    0.7890 C.3    59  DA59        0.1558
   1202  O3'       -3.4160  -23.9760    1.4650 O.3    59  DA59       -0.3138
   1203  C2'       -1.5350  -25.1890    0.4300 C.3    59  DA59        0.0865
   1204  C1'       -1.2590  -26.6910    0.3170 C.3    59  DA59        0.2094
   1205  N9        -1.2390  -27.1360   -0.9990 N.ar   59  DA59       -0.2714
   1206  C8        -2.2880  -27.6230   -1.7340 C.ar   59  DA59        0.1815
   1207  N7        -1.9940  -27.8470   -2.9920 N.ar   59  DA59       -0.2193
   1208  C5        -0.6610  -27.4820   -3.0920 C.ar   59  DA59        0.1518
   1209  C6         0.2430  -27.4840   -4.1690 C.ar   59  DA59        0.1919
   1210  N6        -0.0770  -27.8840   -5.4020 N.pl3  59  DA59       -0.1054
   1211  N1         1.5010  -27.0570   -3.9310 N.ar   59  DA59       -0.2040
   1212  C2         1.8210  -26.6570   -2.6950 C.ar   59  DA59        0.2016
   1213  N3         1.0610  -26.6110   -1.6040 N.ar   59  DA59       -0.2048
   1214  C4        -0.1830  -27.0410   -1.8730 C.ar   59  DA59        0.1691
   1215  P         -3.5980  -22.4860    0.4570 P.3    60  DT60        0.2141
   1216  OP1       -3.1020  -21.4050    1.3440 O.3    60  DT60       -0.4373
   1217  OP2       -5.0560  -22.6720    0.2730 O.2    60  DT60       -0.5172
   1218  O5'       -2.9450  -22.2740   -0.9790 O.3    60  DT60       -0.3114
   1219  C5'       -1.5270  -22.4200   -1.1610 C.3    60  DT60        0.1811
   1220  C4'       -1.2070  -22.7100   -2.6080 C.3    60  DT60        0.1746
   1221  O4'       -1.9980  -23.8410   -3.0680 O.3    60  DT60       -0.3327
   1222  C3'       -1.5500  -21.6320   -3.6210 C.3    60  DT60        0.1558
   1223  O3'       -0.5750  -20.5920   -3.6210 O.3    60  DT60       -0.3138
   1224  C2'       -1.5410  -22.4290   -4.9210 C.3    60  DT60        0.0866
   1225  C1'       -2.1860  -23.7400   -4.4720 C.3    60  DT60        0.2106
   1226  N1        -3.5320  -23.8950   -4.7760 N.ar   60  DT60       -0.2559
   1227  C2        -3.9750  -24.0990   -6.0690 C.ar   60  DT60        0.3545
   1228  O2        -3.2220  -24.2180   -7.0190 O.2    60  DT60       -0.2443
   1229  N3        -5.3410  -24.1590   -6.2130 N.ar   60  DT60       -0.1530
   1230  C4        -6.2860  -24.0380   -5.2160 C.ar   60  DT60        0.2833
   1231  O4        -7.4790  -24.1150   -5.5000 O.3    60  DT60       -0.2709
   1232  C5        -5.7470  -23.8270   -3.9020 C.ar   60  DT60        0.0539
   1233  C6        -4.4230  -23.7640   -3.7340 C.ar   60  DT60        0.0824
   1234  C7        -6.6960  -23.6820   -2.7490 C.3    60  DT60        0.0377
   1235  P         -0.8290  -19.4320   -4.3920 P.3    61  DC61        0.2141
   1236  OP1        0.3710  -18.6350   -4.0700 O.3    61  DC61       -0.4373
   1237  OP2       -2.1700  -18.8650   -4.1290 O.2    61  DC61       -0.5172
   1238  O5'       -0.7450  -19.8640   -5.9290 O.3    61  DC61       -0.3114
   1239  C5'        0.4910  -20.3360   -6.4440 C.3    61  DC61        0.1811
   1240  C4'        0.3000  -20.9890   -7.7980 C.3    61  DC61        0.1746
   1241  O4'       -0.6880  -22.0420   -7.7060 O.3    61  DC61       -0.3327
   1242  C3'       -0.2660  -20.0760   -8.8670 C.3    61  DC61        0.1558
   1243  O3'        0.7540  -19.2300   -9.3740 O.3    61  DC61       -0.3138
   1244  C2'       -0.7610  -21.1060   -9.8790 C.3    61  DC61        0.0866
   1245  C1'       -1.3720  -22.1420   -8.9420 C.3    61  DC61        0.2106
   1246  N1        -2.7910  -21.8550   -8.7010 N.ar   61  DC61       -0.2556
   1247  C2        -3.7480  -22.1780   -9.6690 C.ar   61  DC61        0.3531
   1248  O2        -3.3670  -22.6570  -10.7510 O.2    61  DC61       -0.2443
   1249  N3        -5.0580  -21.9590   -9.4010 N.ar   61  DC61       -0.1739
   1250  C4        -5.4210  -21.4430   -8.2260 C.ar   61  DC61        0.1759
   1251  N4        -6.7230  -21.2440   -8.0070 N.pl3  61  DC61       -0.1070
   1252  C5        -4.4660  -21.1090   -7.2320 C.ar   61  DC61        0.0566
   1253  C6        -3.1740  -21.3270   -7.5010 C.ar   61  DC61        0.0849
   1254  P          0.3780  -17.7880   -9.8430 P.3    62  DC62        0.2141
   1255  OP1        1.7520  -17.2890  -10.1370 O.2    62  DC62       -0.5172
   1256  OP2       -0.5470  -16.9420   -9.0410 O.3    62  DC62       -0.4373
   1257  O5'       -0.3750  -18.1510  -11.2140 O.3    62  DC62       -0.3114
   1258  C5'        0.3130  -18.7670  -12.3120 C.3    62  DC62        0.1811
   1259  C4'       -0.6380  -19.0880  -13.4570 C.3    62  DC62        0.1746
   1260  O4'       -1.6610  -20.0070  -13.0070 O.3    62  DC62       -0.3327
   1261  C3'       -1.4320  -17.9420  -14.0670 C.3    62  DC62        0.1558
   1262  O3'       -0.7220  -17.2530  -15.0800 O.3    62  DC62       -0.3138
   1263  C2'       -2.6060  -18.6470  -14.7140 C.3    62  DC62        0.0866
   1264  C1'       -2.8460  -19.8030  -13.7520 C.3    62  DC62        0.2106
   1265  N1        -3.9440  -19.4400  -12.8590 N.ar   62  DC62       -0.2556
   1266  C2        -5.2540  -19.6170  -13.3180 C.ar   62  DC62        0.3531
   1267  O2        -5.4330  -20.1590  -14.4220 O.2    62  DC62       -0.2443
   1268  N3        -6.2860  -19.1920  -12.5490 N.ar   62  DC62       -0.1739
   1269  C4        -6.0460  -18.6150  -11.3710 C.ar   62  DC62        0.1759
   1270  N4        -7.0940  -18.2130  -10.6480 N.pl3  62  DC62       -0.1070
   1271  C5        -4.7260  -18.4270  -10.8880 C.ar   62  DC62        0.0566
   1272  C6        -3.7100  -18.8470  -11.6500 C.ar   62  DC62        0.0849
   1273  P         -1.0860  -15.8660  -15.1780 P.3    63  DT63        0.2141
   1274  OP1       -0.1110  -15.2250  -16.0860 O.2    63  DT63       -0.5172
   1275  OP2       -1.2580  -15.3320  -13.8110 O.3    63  DT63       -0.4373
   1276  O5'       -2.5080  -15.8460  -15.8940 O.3    63  DT63       -0.3114
   1277  C5'       -2.7210  -16.5100  -17.1310 C.3    63  DT63        0.1812
   1278  C4'       -4.0340  -16.0630  -17.7280 C.3    63  DT63        0.1775
   1279  O4'       -5.1290  -16.4990  -16.8650 O.3    63  DT63       -0.3326
   1280  C3'       -4.1700  -14.5470  -17.8770 C.3    63  DT63        0.1859
   1281  O3'       -4.8840  -14.2170  -19.0800 O.3    63  DT63       -0.2203
   1282  C2'       -4.9820  -14.1600  -16.6410 C.3    63  DT63        0.0895
   1283  C1'       -5.8830  -15.3790  -16.4520 C.3    63  DT63        0.2107
   1284  N1        -6.4070  -15.7170  -15.0970 N.ar   63  DT63       -0.2559
   1285  C2        -7.7550  -15.6860  -14.7930 C.ar   63  DT63        0.3545
   1286  O2        -8.6210  -15.5120  -15.6320 O.2    63  DT63       -0.2443
   1287  N3        -8.0550  -15.8640  -13.4640 N.ar   63  DT63       -0.1533
   1288  C4        -7.1630  -16.0660  -12.4320 C.ar   63  DT63        0.2804
   1289  O4        -7.5850  -16.2120  -11.2870 O.2    63  DT63       -0.2654
   1290  C5        -5.7830  -16.0850  -12.8280 C.ar   63  DT63        0.0534
   1291  C6        -5.4630  -15.9140  -14.1130 C.ar   63  DT63        0.0824
   1292  C7        -4.7350  -16.2980  -11.7760 C.3    63  DT63        0.0377
   1293  P         -3.5620  -13.1370  -20.5790 P.3    64  DA64        0.5411
   1294  OP1       -4.8490  -13.7680  -20.9890 O.2    64  DA64       -0.2272
   1295  OP2       -2.5060  -12.9240  -21.6010 O.2    64  DA64       -0.2272
   1296  O5'       -3.8560  -11.7300  -19.8800 O.3    64  DA64       -0.2722
   1297  C5'       -4.4900  -10.6570  -20.5810 C.3    64  DA64        0.1850
   1298  C4'       -4.7670   -9.5100  -19.6420 C.3    64  DA64        0.1748
   1299  O4'       -5.7170   -9.9000  -18.6200 O.3    64  DA64       -0.3327
   1300  C3'       -3.5820   -8.9720  -18.8520 C.3    64  DA64        0.1558
   1301  O3'       -2.9280   -7.9810  -19.6180 O.3    64  DA64       -0.3138
   1302  C2'       -4.2360   -8.2900  -17.6440 C.3    64  DA64        0.0865
   1303  C1'       -5.6050   -8.9850  -17.5480 C.3    64  DA64        0.2094
   1304  N9        -6.5240  -10.0770  -16.5820 N.ar   64  DA64       -0.2714
   1305  C8        -7.5490  -10.9120  -16.9440 C.ar   64  DA64        0.1815
   1306  N7        -8.2840  -11.3140  -15.9340 N.ar   64  DA64       -0.2193
   1307  C5        -7.7020  -10.7030  -14.8350 C.ar   64  DA64        0.1518
   1308  C6        -8.0130  -10.7270  -13.4650 C.ar   64  DA64        0.1919
   1309  N6        -9.0320  -11.4190  -12.9500 N.pl3  64  DA64       -0.1054
   1310  N1        -7.2320  -10.0060  -12.6320 N.ar   64  DA64       -0.2040
   1311  C2        -6.2110   -9.3120  -13.1490 C.ar   64  DA64        0.2016
   1312  N3        -5.8200   -9.2110  -14.4170 N.ar   64  DA64       -0.2048
   1313  C4        -6.6160   -9.9390  -15.2190 C.ar   64  DA64        0.1691
   1314  P         -1.1780   -7.4980  -19.7870 P.3    65  DT65        0.2141
   1315  OP1       -0.5590   -8.6640  -20.4620 O.2    65  DT65       -0.5172
   1316  OP2       -0.5400   -6.9370  -18.5720 O.3    65  DT65       -0.4373
   1317  O5'       -1.2870   -6.3350  -20.8700 O.3    65  DT65       -0.3114
   1318  C5'       -1.8560   -6.5880  -22.1710 C.3    65  DT65        0.1811
   1319  C4'       -1.3340   -5.5870  -23.1700 C.3    65  DT65        0.1746
   1320  O4'       -1.7480   -4.2540  -22.7730 O.3    65  DT65       -0.3327
   1321  C3'        0.1790   -5.5020  -23.2530 C.3    65  DT65        0.1558
   1322  O3'        0.6980   -6.4810  -24.1370 O.3    65  DT65       -0.3138
   1323  C2'        0.3910   -4.0930  -23.7730 C.3    65  DT65        0.0866
   1324  C1'       -0.7010   -3.3340  -23.0160 C.3    65  DT65        0.2106
   1325  N1        -0.2060   -2.6930  -21.8810 N.ar   65  DT65       -0.2559
   1326  C2         0.4990   -1.5120  -22.0050 C.ar   65  DT65        0.3545
   1327  O2         0.6440   -0.9330  -23.0670 O.2    65  DT65       -0.2443
   1328  N3         1.0330   -1.0280  -20.8350 N.ar   65  DT65       -0.1533
   1329  C4         0.9340   -1.5960  -19.5810 C.ar   65  DT65        0.2804
   1330  O4         1.4680   -1.0420  -18.6230 O.2    65  DT65       -0.2654
   1331  C5         0.1880   -2.8210  -19.5350 C.ar   65  DT65        0.0534
   1332  C6        -0.3420   -3.3130  -20.6580 C.ar   65  DT65        0.0824
   1333  C7         0.0250   -3.5160  -18.2160 C.3    65  DT65        0.0377
   1334  P          2.2280   -7.0920  -23.9250 P.3    66  DG66        0.2141
   1335  OP1        2.2650   -8.3240  -24.7460 O.2    66  DG66       -0.5172
   1336  OP2        2.4120   -7.1710  -22.4610 O.3    66  DG66       -0.4373
   1337  O5'        3.2660   -6.0520  -24.5210 O.3    66  DG66       -0.3114
   1338  C5'        2.8390   -5.3220  -25.6380 C.3    66  DG66        0.1811
   1339  C4'        3.6720   -4.0830  -25.7230 C.3    66  DG66        0.1746
   1340  O4'        3.1550   -3.0850  -24.8300 O.3    66  DG66       -0.3327
   1341  C3'        5.0560   -4.3330  -25.1960 C.3    66  DG66        0.1558
   1342  O3'        5.8060   -5.0130  -26.1640 O.3    66  DG66       -0.3138
   1343  C2'        5.5080   -2.9000  -24.9780 C.3    66  DG66        0.0865
   1344  C1'        4.2320   -2.2620  -24.4230 C.3    66  DG66        0.2094
   1345  N9         4.2240   -2.0730  -23.0080 N.ar   66  DG66       -0.2713
   1346  C8         3.6330   -2.8840  -22.0690 C.ar   66  DG66        0.1816
   1347  N7         3.9110   -2.5400  -20.8420 N.ar   66  DG66       -0.2173
   1348  C5         4.7320   -1.4350  -20.9730 C.ar   66  DG66        0.1747
   1349  C6         5.3540   -0.6250  -19.9880 C.ar   66  DG66        0.3014
   1350  O6         5.2950   -0.7350  -18.7570 O.2    66  DG66       -0.2635
   1351  N1         6.1080    0.3980  -20.5570 N.ar   66  DG66       -0.1712
   1352  C2         6.2440    0.6150  -21.9070 C.ar   66  DG66        0.3095
   1353  N2         7.0120    1.6540  -22.2640 N.2    66  DG66       -0.3329
   1354  N3         5.6730   -0.1290  -22.8330 N.ar   66  DG66       -0.1797
   1355  C4         4.9370   -1.1300  -22.3050 C.ar   66  DG66        0.1734
   1356  P          6.9490   -5.6560  -25.7030 P.3    67  DC67        0.2141
   1357  OP1        7.9670   -6.5110  -26.3560 O.2    67  DC67       -0.5172
   1358  OP2        6.5060   -5.9630  -24.3250 O.3    67  DC67       -0.4373
   1359  O5'        7.4760   -4.1450  -25.6090 O.3    67  DC67       -0.3114
   1360  C5'        7.7300   -3.3950  -26.7880 C.3    67  DC67        0.1811
   1361  C4'        8.7750   -2.3280  -26.5650 C.3    67  DC67        0.1746
   1362  O4'        8.2620   -1.3320  -25.6440 O.3    67  DC67       -0.3327
   1363  C3'       10.0940   -2.7760  -25.9420 C.3    67  DC67        0.1558
   1364  O3'       11.0010   -3.3340  -26.8760 O.3    67  DC67       -0.3138
   1365  C2'       10.6160   -1.4950  -25.3040 C.3    67  DC67        0.0866
   1366  C1'        9.3130   -0.8420  -24.8330 C.3    67  DC67        0.2106
   1367  N1         8.9490   -1.2000  -23.4310 N.ar   67  DC67       -0.2556
   1368  C2         9.4590   -0.4170  -22.3900 C.ar   67  DC67        0.3531
   1369  O2        10.1440    0.5810  -22.6720 O.2    67  DC67       -0.2443
   1370  N3         9.1930   -0.7690  -21.1090 N.ar   67  DC67       -0.1739
   1371  C4         8.4540   -1.8490  -20.8540 C.ar   67  DC67        0.1759
   1372  N4         8.2180   -2.1560  -19.5760 N.pl3  67  DC67       -0.1070
   1373  C5         7.9280   -2.6550  -21.8950 C.ar   67  DC67        0.0566
   1374  C6         8.1930   -2.3050  -23.1580 C.ar   67  DC67        0.0849
   1375  P         12.3910   -4.4250  -26.3770 P.3    68  DG68        0.2141
   1376  OP1       13.0370   -5.0010  -27.5830 O.2    68  DG68       -0.5172
   1377  OP2       11.7430   -5.3000  -25.3630 O.3    68  DG68       -0.4373
   1378  O5'       13.4370   -3.4610  -25.6460 O.3    68  DG68       -0.3114
   1379  C5'       13.8800   -2.3050  -26.3570 C.3    68  DG68        0.1811
   1380  C4'       14.3590   -1.2140  -25.4220 C.3    68  DG68        0.1746
   1381  O4'       13.3340   -0.8390  -24.4720 O.3    68  DG68       -0.3327
   1382  C3'       15.4910   -1.6180  -24.5050 C.3    68  DG68        0.1558
   1383  O3'       16.6860   -1.7500  -25.2170 O.3    68  DG68       -0.3138
   1384  C2'       15.4810   -0.4200  -23.5730 C.3    68  DG68        0.0865
   1385  C1'       13.9770   -0.2970  -23.3310 C.3    68  DG68        0.2094
   1386  N9        13.5970   -1.0320  -22.1770 N.ar   68  DG68       -0.2713
   1387  C8        12.7980   -2.1490  -22.2100 C.ar   68  DG68        0.1816
   1388  N7        12.5150   -2.6150  -21.0240 N.ar   68  DG68       -0.2173
   1389  C5        13.1620   -1.7560  -20.1550 C.ar   68  DG68        0.1748
   1390  C6        13.2250   -1.7520  -18.7380 C.ar   68  DG68        0.3023
   1391  O6        12.6960   -2.5410  -17.9450 O.2    68  DG68       -0.2633
   1392  N1        13.9950   -0.6980  -18.2540 N.ar   68  DG68       -0.1709
   1393  C2        14.6270    0.2360  -19.0390 C.ar   68  DG68        0.2606
   1394  N2        15.3240    1.1790  -18.3900 N.pl3  68  DG68       -0.0859
   1395  N3        14.5790    0.2450  -20.3560 N.ar   68  DG68       -0.1918
   1396  C4        13.8370   -0.7700  -20.8480 C.ar   68  DG68        0.1722
   1397  P         17.6860   -2.8520  -24.6520 P.3    69  DT69        0.2141
   1398  OP1       18.5780   -2.8170  -25.8400 O.2    69  DT69       -0.5172
   1399  OP2       17.0050   -4.1230  -24.2890 O.3    69  DT69       -0.4373
   1400  O5'       18.5190   -2.3780  -23.3850 O.3    69  DT69       -0.3114
   1401  C5'       19.5610   -1.4030  -23.5050 C.3    69  DT69        0.1811
   1402  C4'       19.9820   -0.9570  -22.1420 C.3    69  DT69        0.1746
   1403  O4'       18.7660   -0.7230  -21.4000 O.3    69  DT69       -0.3327
   1404  C3'       20.7120   -1.9960  -21.3210 C.3    69  DT69        0.1558
   1405  O3'       22.1030   -1.8970  -21.5000 O.3    69  DT69       -0.3138
   1406  C2'       20.3640   -1.6350  -19.8840 C.3    69  DT69        0.0866
   1407  C1'       18.9710   -1.0330  -20.0370 C.3    69  DT69        0.2106
   1408  N1        17.9170   -1.9010  -19.6510 N.ar   69  DT69       -0.2559
   1409  C2        17.6910   -2.1440  -18.3090 C.ar   69  DT69        0.3545
   1410  O2        18.3500   -1.6320  -17.4220 O.2    69  DT69       -0.2443
   1411  N3        16.6610   -3.0130  -18.0410 N.ar   69  DT69       -0.1533
   1412  C4        15.8520   -3.6500  -18.9590 C.ar   69  DT69        0.2804
   1413  O4        14.9660   -4.4030  -18.5650 O.2    69  DT69       -0.2654
   1414  C5        16.1500   -3.3480  -20.3310 C.ar   69  DT69        0.0534
   1415  C6        17.1460   -2.5060  -20.6200 C.ar   69  DT69        0.0824
   1416  C7        15.3260   -3.9930  -21.4060 C.3    69  DT69        0.0377
   1417  P         22.9470   -3.0860  -21.2850 P.3    70  DG70        0.2141
   1418  OP1       24.3610   -3.3860  -21.6050 O.2    70  DG70       -0.5172
   1419  OP2       21.8810   -4.0730  -21.5660 O.3    70  DG70       -0.4373
   1420  O5'       22.7810   -2.8300  -19.7100 O.3    70  DG70       -0.3114
   1421  C5'       23.5730   -1.8890  -19.0000 C.3    70  DG70        0.1811
   1422  C4'       23.6090   -2.2130  -17.5310 C.3    70  DG70        0.1746
   1423  O4'       22.3330   -1.8770  -16.9300 O.3    70  DG70       -0.3327
   1424  C3'       23.7970   -3.6890  -17.2060 C.3    70  DG70        0.1558
   1425  O3'       25.1340   -4.1640  -17.3010 O.3    70  DG70       -0.3138
   1426  C2'       23.1830   -3.8020  -15.8180 C.3    70  DG70        0.0865
   1427  C1'       21.9940   -2.8550  -15.9710 C.3    70  DG70        0.2094
   1428  N9        20.7870   -3.7010  -16.5070 N.ar   70  DG70       -0.2713
   1429  C8        20.3360   -3.8120  -17.8000 C.ar   70  DG70        0.1816
   1430  N7        19.2980   -4.5950  -17.9180 N.ar   70  DG70       -0.2173
   1431  C5        19.0450   -5.0270  -16.6290 C.ar   70  DG70        0.1748
   1432  C6        18.0440   -5.8970  -16.1260 C.ar   70  DG70        0.3023
   1433  O6        17.1490   -6.4780  -16.7530 O.2    70  DG70       -0.2633
   1434  N1        18.1480   -6.0690  -14.7490 N.ar   70  DG70       -0.1709
   1435  C2        19.0980   -5.4760  -13.9530 C.ar   70  DG70        0.2606
   1436  N2        19.0370   -5.7620  -12.6460 N.pl3  70  DG70       -0.0859
   1437  N3        20.0350   -4.6660  -14.4060 N.ar   70  DG70       -0.1918
   1438  C4        19.9550   -4.4840  -15.7410 C.ar   70  DG70        0.1722
   1439  P         25.1910   -5.3350  -18.0700 P.3    71  DC71        0.2141
   1440  OP1       26.6570   -5.2090  -18.1990 O.3    71  DC71       -0.4373
   1441  OP2       24.3500   -5.3490  -19.2950 O.2    71  DC71       -0.5172
   1442  O5'       24.9320   -6.6170  -17.1760 O.3    71  DC71       -0.3114
   1443  C5'       25.5870   -6.7310  -15.9250 C.3    71  DC71        0.1811
   1444  C4'       24.9580   -7.8300  -15.1160 C.3    71  DC71        0.1746
   1445  O4'       23.6160   -7.4470  -14.7410 O.3    71  DC71       -0.3327
   1446  C3'       24.7590   -9.1160  -15.8760 C.3    71  DC71        0.1558
   1447  O3'       25.9380   -9.8850  -15.8630 O.3    71  DC71       -0.3138
   1448  C2'       23.6490   -9.7860  -15.0920 C.3    71  DC71        0.0866
   1449  C1'       22.7830   -8.5860  -14.7410 C.3    71  DC71        0.2106
   1450  N1        21.6800   -8.3380  -15.5950 N.ar   71  DC71       -0.2556
   1451  C2        20.4710   -9.0110  -15.3850 C.ar   71  DC71        0.3531
   1452  O2        20.3870   -9.8070  -14.4340 O.2    71  DC71       -0.2443
   1453  N3        19.4320   -8.7780  -16.2220 N.ar   71  DC71       -0.1739
   1454  C4        19.5680   -7.9160  -17.2310 C.ar   71  DC71        0.1759
   1455  N4        18.5170   -7.7180  -18.0290 N.pl3  71  DC71       -0.1070
   1456  C5        20.7850   -7.2240  -17.4600 C.ar   71  DC71        0.0566
   1457  C6        21.8080   -7.4570  -16.6320 C.ar   71  DC71        0.0849
   1458  P         26.2810  -10.8160  -17.0240 P.3    72  DT72        0.2141
   1459  OP1       27.6310  -11.4040  -16.9770 O.3    72  DT72       -0.4373
   1460  OP2       25.9600   -9.8120  -18.0510 O.2    72  DT72       -0.5172
   1461  O5'       25.2270  -12.0010  -17.1320 O.3    72  DT72       -0.3114
   1462  C5'       24.8200  -12.5220  -18.4080 C.3    72  DT72        0.1811
   1463  C4'       23.5940  -13.3870  -18.2430 C.3    72  DT72        0.1746
   1464  O4'       23.9540  -14.5820  -17.4890 O.3    72  DT72       -0.3327
   1465  C3'       22.4470  -12.7330  -17.4730 C.3    72  DT72        0.1558
   1466  O3'       21.2060  -13.2420  -17.9370 O.3    72  DT72       -0.3138
   1467  C2'       22.6790  -13.2360  -16.0550 C.3    72  DT72        0.0866
   1468  C1'       23.1560  -14.6600  -16.3270 C.3    72  DT72        0.2106
   1469  N1        23.3910  -15.3620  -15.3610 N.ar   72  DT72       -0.2559
   1470  C2        22.5460  -16.1170  -14.5690 C.ar   72  DT72        0.3545
   1471  O2        21.5530  -16.6740  -15.0010 O.2    72  DT72       -0.2443
   1472  N3        22.9070  -16.1950  -13.2460 N.ar   72  DT72       -0.1533
   1473  C4        24.0020  -15.6080  -12.6480 C.ar   72  DT72        0.2804
   1474  O4        24.1950  -15.7710  -11.4460 O.2    72  DT72       -0.2654
   1475  C5        24.8300  -14.8410  -13.5360 C.ar   72  DT72        0.0534
   1476  C6        24.5020  -14.7470  -14.8270 C.ar   72  DT72        0.0824
   1477  C7        26.0470  -14.1620  -12.9800 C.3    72  DT72        0.0377
   1478  P         19.6890  -12.0960  -18.1540 P.3    73  DA73        0.2141
   1479  OP1       18.8510  -11.5670  -19.2550 O.2    73  DA73       -0.5172
   1480  OP2       20.5980  -11.1870  -17.4200 O.3    73  DA73       -0.4373
   1481  O5'       18.7680  -12.8530  -17.0880 O.3    73  DA73       -0.3114
   1482  C5'       17.6700  -13.6480  -17.5320 C.3    73  DA73        0.1811
   1483  C4'       17.3260  -14.6920  -16.4910 C.3    73  DA73        0.1746
   1484  O4'       18.5600  -15.2640  -15.9830 O.3    73  DA73       -0.3327
   1485  C3'       16.6370  -14.1890  -15.2300 C.3    73  DA73        0.1558
   1486  O3'       15.2330  -13.9700  -15.4450 O.3    73  DA73       -0.3138
   1487  C2'       16.9300  -15.3630  -14.2930 C.3    73  DA73        0.0865
   1488  C1'       18.3840  -15.6710  -14.6380 C.3    73  DA73        0.2094
   1489  N9        19.4560  -15.0520  -13.8990 N.ar   73  DA73       -0.2714
   1490  C8        20.4540  -14.1930  -14.2790 C.ar   73  DA73        0.1815
   1491  N7        21.2020  -13.7770  -13.2840 N.ar   73  DA73       -0.2193
   1492  C5        20.6570  -14.4050  -12.1750 C.ar   73  DA73        0.1518
   1493  C6        20.9970  -14.3780  -10.8110 C.ar   73  DA73        0.1919
   1494  N6        22.0120  -13.6650  -10.3160 N.pl3  73  DA73       -0.1054
   1495  N1        20.2500  -15.1190   -9.9650 N.ar   73  DA73       -0.2040
   1496  C2        19.2350  -15.8340  -10.4620 C.ar   73  DA73        0.2016
   1497  N3        18.8190  -15.9400  -11.7220 N.ar   73  DA73       -0.2048
   1498  C4        19.5810  -15.1920  -12.5380 C.ar   73  DA73        0.1691
   1499  P         14.5040  -12.5280  -15.5380 P.3    74  DC74        0.2141
   1500  OP1       13.1310  -12.5360  -16.1250 O.2    74  DC74       -0.5172
   1501  OP2       15.3430  -11.3010  -15.6490 O.3    74  DC74       -0.4373
   1502  O5'       14.4150  -12.9040  -13.9870 O.3    74  DC74       -0.3114
   1503  C5'       13.6500  -14.0290  -13.5330 C.3    74  DC74        0.1811
   1504  C4'       13.7610  -14.1470  -12.0320 C.3    74  DC74        0.1746
   1505  O4'       15.1440  -14.4330  -11.6800 O.3    74  DC74       -0.3327
   1506  C3'       13.4270  -12.8550  -11.2980 C.3    74  DC74        0.1558
   1507  O3'       12.0270  -12.7410  -11.0490 O.3    74  DC74       -0.3138
   1508  C2'       14.2630  -12.9500  -10.0240 C.3    74  DC74        0.0866
   1509  C1'       15.5130  -13.6760  -10.5350 C.3    74  DC74        0.2106
   1510  N1        16.6740  -12.7560  -10.9300 N.ar   74  DC74       -0.2556
   1511  C2        17.3190  -12.1290   -9.8580 C.ar   74  DC74        0.3531
   1512  O2        17.0080  -12.4560   -8.6990 O.2    74  DC74       -0.2443
   1513  N3        18.2580  -11.1870  -10.1130 N.ar   74  DC74       -0.1739
   1514  C4        18.5580  -10.8680  -11.3720 C.ar   74  DC74        0.1759
   1515  N4        19.4900   -9.9340  -11.5750 N.pl3  74  DC74       -0.1070
   1516  C5        17.9160  -11.4920  -12.4720 C.ar   74  DC74        0.0566
   1517  C6        16.9890  -12.4210  -12.2160 C.ar   74  DC74        0.0849
   1518  P         11.1530  -11.3810  -11.0960 P.3    75  DC75        0.2141
   1519  OP1        9.9380  -11.4370  -10.2320 O.3    75  DC75       -0.4373
   1520  OP2       11.0210  -11.1850  -12.5580 O.2    75  DC75       -0.5172
   1521  O5'       12.1640  -10.2560  -10.5570 O.3    75  DC75       -0.3114
   1522  C5'       12.4020  -10.0960   -9.1780 C.3    75  DC75        0.1811
   1523  C4'       13.6460   -9.2710   -8.9720 C.3    75  DC75        0.1746
   1524  O4'       14.6660   -9.7390   -9.8830 O.3    75  DC75       -0.3327
   1525  C3'       13.5330   -7.7970   -9.3030 C.3    75  DC75        0.1558
   1526  O3'       12.8400   -7.0330   -8.2730 O.3    75  DC75       -0.3138
   1527  C2'       15.0180   -7.4510   -9.4570 C.3    75  DC75        0.0866
   1528  C1'       15.5320   -8.6730  -10.2020 C.3    75  DC75        0.2106
   1529  N1        15.5110   -8.5430  -11.5970 N.ar   75  DC75       -0.2556
   1530  C2        16.5550   -7.8900  -12.2610 C.ar   75  DC75        0.3531
   1531  O2        17.5550   -7.5430  -11.6090 O.2    75  DC75       -0.2443
   1532  N3        16.4470   -7.6550  -13.5910 N.ar   75  DC75       -0.1739
   1533  C4        15.3550   -8.0450  -14.2500 C.ar   75  DC75        0.1759
   1534  N4        15.2920   -7.7920  -15.5600 N.pl3  75  DC75       -0.1070
   1535  C5        14.2860   -8.7080  -13.5950 C.ar   75  DC75        0.0566
   1536  C6        14.3970   -8.9380  -12.2820 C.ar   75  DC75        0.0849
   1537  P         12.6940   -5.4140   -8.3680 P.3    76  DG76        0.2141
   1538  OP1       11.2790   -5.4240   -7.9890 O.3    76  DG76       -0.4373
   1539  OP2       13.0570   -5.4250   -9.7960 O.2    76  DG76       -0.5172
   1540  O5'       13.4930   -4.1360   -7.8700 O.3    76  DG76       -0.3114
   1541  C5'       14.8630   -4.2810   -7.5510 C.3    76  DG76        0.1811
   1542  C4'       15.7690   -3.3560   -8.3220 C.3    76  DG76        0.1746
   1543  O4'       16.6370   -4.1340   -9.1700 O.3    76  DG76       -0.3327
   1544  C3'       15.1510   -2.3540   -9.2690 C.3    76  DG76        0.1558
   1545  O3'       14.7440   -1.2570   -8.5130 O.3    76  DG76       -0.3138
   1546  C2'       16.3640   -2.0140  -10.1250 C.3    76  DG76        0.0865
   1547  C1'       17.0060   -3.3850  -10.3120 C.3    76  DG76        0.2094
   1548  N9        16.5220   -3.9250  -11.4820 N.ar   76  DG76       -0.2713
   1549  C8        15.4250   -4.7350  -11.6450 C.ar   76  DG76        0.1816
   1550  N7        15.0630   -4.8680  -12.8920 N.ar   76  DG76       -0.2173
   1551  C5        15.9750   -4.1040  -13.5970 C.ar   76  DG76        0.1748
   1552  C6        16.0930   -3.8580  -14.9890 C.ar   76  DG76        0.3023
   1553  O6        15.3820   -4.2890  -15.9060 O.2    76  DG76       -0.2633
   1554  N1        17.1640   -3.0180  -15.2810 N.ar   76  DG76       -0.1709
   1555  C2        18.0170   -2.4820  -14.3460 C.ar   76  DG76        0.2606
   1556  N2        18.9930   -1.6950  -14.8200 N.pl3  76  DG76       -0.0859
   1557  N3        17.9200   -2.7000  -13.0500 N.ar   76  DG76       -0.1918
   1558  C4        16.8860   -3.5120  -12.7430 C.ar   76  DG76        0.1722
   1559  P         14.0140   -0.0260   -9.1020 P.3    77  DT77        0.2141
   1560  OP1       13.9630    1.2010   -8.2710 O.3    77  DT77       -0.4373
   1561  OP2       12.7670   -0.5430   -9.7170 O.2    77  DT77       -0.5172
   1562  O5'       15.0630    0.2320  -10.2750 O.3    77  DT77       -0.3114
   1563  C5'       15.9840    1.3250  -10.2170 C.3    77  DT77        0.1811
   1564  C4'       16.1470    1.9420  -11.5880 C.3    77  DT77        0.1746
   1565  O4'       16.6290    0.9280  -12.5060 O.3    77  DT77       -0.3327
   1566  C3'       14.8650    2.4690  -12.2130 C.3    77  DT77        0.1558
   1567  O3'       14.6680    3.8300  -11.8420 O.3    77  DT77       -0.3138
   1568  C2'       15.1460    2.3430  -13.7050 C.3    77  DT77        0.0866
   1569  C1'       15.9830    1.0610  -13.7610 C.3    77  DT77        0.2106
   1570  N1        15.1470   -0.2240  -13.8160 N.ar   77  DT77       -0.2559
   1571  C2        14.6960   -0.4830  -15.0970 C.ar   77  DT77        0.3545
   1572  O2        15.1730    0.0410  -16.0870 O.2    77  DT77       -0.2443
   1573  N3        13.6610   -1.3830  -15.1770 N.ar   77  DT77       -0.1533
   1574  C4        13.0450   -2.0350  -14.1290 C.ar   77  DT77        0.2804
   1575  O4        12.1270   -2.8180  -14.3590 O.2    77  DT77       -0.2654
   1576  C5        13.5690   -1.7120  -12.8310 C.ar   77  DT77        0.0534
   1577  C6        14.5750   -0.8400  -12.7250 C.ar   77  DT77        0.0824
   1578  C7        12.9650   -2.3690  -11.6260 C.3    77  DT77        0.0377
   1579  P         13.1100    4.5190  -11.8570 P.3    78  DG78        0.2141
   1580  OP1       12.9980    5.7830  -11.1100 O.3    78  DG78       -0.4373
   1581  OP2       12.1070    3.4580  -11.6550 O.2    78  DG78       -0.5172
   1582  O5'       13.0460    4.8250  -13.4240 O.3    78  DG78       -0.3114
   1583  C5'       13.5090    6.0720  -13.9130 C.3    78  DG78        0.1811
   1584  C4'       13.7620    6.0100  -15.3960 C.3    78  DG78        0.1746
   1585  O4'       14.1330    4.6570  -15.7530 O.3    78  DG78       -0.3327
   1586  C3'       12.5700    6.2660  -16.3010 C.3    78  DG78        0.1558
   1587  O3'       12.2220    7.6280  -16.4270 O.3    78  DG78       -0.3138
   1588  C2'       13.0160    5.6170  -17.6020 C.3    78  DG78        0.0865
   1589  C1'       13.6400    4.3520  -17.0400 C.3    78  DG78        0.2094
   1590  N9        12.6450    3.2680  -16.9670 N.ar   78  DG78       -0.2713
   1591  C8        12.3450    2.6530  -15.7750 C.ar   78  DG78        0.1816
   1592  N7        11.6160    1.5810  -15.9180 N.ar   78  DG78       -0.2173
   1593  C5        11.4220    1.4770  -17.2830 C.ar   78  DG78        0.1748
   1594  C6        10.7080    0.5160  -18.0440 C.ar   78  DG78        0.3023
   1595  O6        10.0840   -0.4730  -17.6380 O.2    78  DG78       -0.2633
   1596  N1        10.7630    0.7860  -19.4090 N.ar   78  DG78       -0.1709
   1597  C2        11.4250    1.8520  -19.9710 C.ar   78  DG78        0.2606
   1598  N2        11.3660    1.9460  -21.3060 N.pl3  78  DG78       -0.0859
   1599  N3        12.0910    2.7530  -19.2770 N.ar   78  DG78       -0.1918
   1600  C4        12.0510    2.5110  -17.9500 C.ar   78  DG78        0.1722
   1601  P         10.8200    8.0390  -16.2220 P.3    79  DA79        0.2141
   1602  OP1       11.0710    9.4750  -15.7760 O.2    79  DA79       -0.5172
   1603  OP2        9.6650    7.4340  -15.5160 O.3    79  DA79       -0.4373
   1604  O5'       10.6910    7.7720  -17.7760 O.3    79  DA79       -0.3114
   1605  C5'       10.7450    8.8290  -18.7730 C.3    79  DA79        0.1811
   1606  C4'       10.6080    8.1580  -20.1200 C.3    79  DA79        0.1767
   1607  O4'       11.0320    6.8030  -20.0460 O.3    79  DA79       -0.3327
   1608  C3'        9.1720    8.0710  -20.6300 C.3    79  DA79        0.2180
   1609  O3'        8.7030    9.2950  -21.1950 O.3    79  DA79       -0.1546
   1610  C2'        9.3010    6.9230  -21.6430 C.3    79  DA79        0.0586
   1611  C1'       10.1900    5.9800  -20.8970 C.3    79  DA79        0.2069
   1612  N9         9.3970    5.1120  -19.9790 N.ar   79  DA79       -0.2737
   1613  C8         9.3780    5.1910  -18.6110 C.ar   79  DA79        0.1811
   1614  N7         8.7370    4.2030  -18.0330 N.ar   79  DA79       -0.2236
   1615  C5         8.3050    3.4230  -19.0930 C.ar   79  DA79        0.1304
   1616  C6         7.5670    2.2270  -19.1490 C.3    79  DA79        0.2314
   1617  N6         7.1170    1.5850  -18.0680 N.3    79  DA79       -0.1020
   1618  N1         7.3040    1.7090  -20.3670 N.pl3  79  DA79       -0.1586
   1619  C2         7.7560    2.3530  -21.4500 C.cat  79  DA79        0.2862
   1620  N3         8.4590    3.4800  -21.5250 N.pl3  79  DA79       -0.1503
   1621  C4         8.7030    3.9700  -20.2980 C.ar   79  DA79        0.1564
   1622  P          8.0580   10.2010  -21.2190 P.3    80  DA80        0.4146
   1623  OP1        7.0080   10.9710  -20.4980 O.2    80  DA80       -0.2668
   1624  OP2        8.9210    9.2500  -20.4660 O.3    80  DA80       -0.2112
   1625  O5'        7.3930    9.3990  -22.4260 O.3    80  DA80       -0.2176
   1626  C5'        6.3140    8.5120  -22.1820 C.3    80  DA80        0.2140
   1627  C4'        5.5720    8.2010  -23.4600 C.3    80  DA80        0.1783
   1628  O4'        6.3000    7.1910  -24.2160 O.3    80  DA80       -0.3509
   1629  C3'        4.2180    7.5670  -23.1920 C.3    80  DA80        0.1840
   1630  O3'        3.2270    8.5550  -22.9540 O.3    80  DA80       -0.2204
   1631  C2'        3.9820    6.7190  -24.4340 C.3    80  DA80        0.0676
   1632  C1'        5.3980    6.2140  -24.7170 C.3    80  DA80        0.1450
   1633  N9         4.8680    5.2580  -21.9430 N.ar   80  DA80       -0.2032
   1634  C8         5.5810    5.5840  -20.8180 C.ar   80  DA80        0.2005
   1635  N7         5.3870    4.7640  -19.8130 N.ar   80  DA80       -0.2179
   1636  C5         4.4840    3.8370  -20.3100 C.ar   80  DA80        0.1534
   1637  C6         3.8770    2.7070  -19.7360 C.ar   80  DA80        0.1919
   1638  N6         4.1000    2.3030  -18.4840 N.pl3  80  DA80       -0.1054
   1639  N1         3.0220    1.9970  -20.5040 N.ar   80  DA80       -0.2040
   1640  C2         2.8000    2.4020  -21.7600 C.ar   80  DA80        0.2016
   1641  N3         3.3110    3.4450  -22.4100 N.ar   80  DA80       -0.2031
   1642  C4         4.1550    4.1300  -21.6200 C.ar   80  DA80        0.1862
@<TRIPOS>BOND
     1  1376  1375    2
     2  1364  1375    1
     3  1364  1363    1
     4  1360  1361    1
     5  1360  1359    1
     6  1361  1363    1
     7  1361  1362    1
     8  1375  1378    1
     9  1375  1377    1
    10  1379  1378    1
    11  1379  1380    1
    12  1357  1356    2
    13  1342  1356    1
    14  1342  1341    1
    15  1363  1365    1
    16  1398  1397    2
    17  1339  1338    1
    18  1339  1341    1
    19  1339  1340    1
    20  1356  1359    1
    21  1356  1358    1
    22  1362  1366    1
    23  1338  1337    1
    24  1380  1382    1
    25  1380  1381    1
    26  1365  1366    1
    27  1383  1397    1
    28  1383  1382    1
    29  1341  1343    1
    30  1343  1344    1
    31  1366  1367    1
    32  1340  1344    1
    33  1335  1334    2
    34  1632  1631    1
    35  1632  1628    1
    36  1397  1399    1
    37  1397  1400    1
    38  1337  1334    1
    39  1382  1384    1
    40  1381  1385    1
    41  1631  1629    1
    42  1344  1345    1
    43  1628  1627    1
    44  1322  1334    1
    45  1322  1321    1
    46  1334  1336    1
    47  1323  1321    1
    48  1323  1324    1
    49  1384  1385    1
    50  1401  1400    1
    51  1401  1402    1
    52  1627  1629    1
    53  1627  1626    1
    54  1367  1374   ar
    55  1367  1368   ar
    56  1385  1386    1
    57  1321  1319    1
    58  1629  1630    1
    59  1319  1320    1
    60  1319  1318    1
    61  1374  1373   ar
    62  1327  1326    2
    63  1324  1320    1
    64  1324  1325    1
    65  1345  1355   ar
    66  1345  1346   ar
    67  1354  1355   ar
    68  1354  1352   ar
    69  1369  1368    2
    70  1625  1626    1
    71  1641  1640   ar
    72  1641  1642   ar
    73  1368  1370   ar
    74  1355  1348   ar
    75  1353  1352    2
    76  1353  1619    2
    77  1387  1386   ar
    78  1387  1388   ar
    79  1386  1396   ar
    80  1318  1317    1
    81  1402  1403    1
    82  1402  1404    1
    83  1346  1347   ar
    84  1326  1325   ar
    85  1326  1328   ar
    86  1633  1642   ar
    87  1633  1634   ar
    88  1352  1351   ar
    89  1373  1371   ar
    90  1325  1332   ar
    91  1640  1639   ar
    92  1610  1611    1
    93  1642  1636   ar
    94  1418  1417    2
    95  1295  1293    2
    96  1419  1417    1
    97  1620  1619    1
    98  1620  1621    1
    99  1405  1404    1
   100  1405  1417    1
   101  1619  1618    1
   102  1416  1414    1
   103  1403  1407    1
   104  1404  1406    1
   105  1598  1597    1
   106  1417  1420    1
   107  1622  1609    1
   108  1622  1623    2
   109  1609  1624    1
   110  1370  1371   ar
   111  1388  1389   ar
   112  1294  1293    2
   113  1348  1347   ar
   114  1348  1349   ar
   115  1611  1607    1
   116  1611  1612    1
   117  1317  1314    1
   118  1371  1372    1
   119  1396  1395   ar
   120  1396  1389   ar
   121  1328  1329   ar
   122  1634  1635   ar
   123  1332  1331   ar
   124  1608  1624    1
   125  1415  1414   ar
   126  1415  1408   ar
   127  1297  1296    1
   128  1297  1298    1
   129  1293  1296    1
   130  1351  1618    1
   131  1351  1349   ar
   132  1639  1637   ar
   133  1315  1314    2
   134  1618  1616    1
   135  1395  1393   ar
   136  1414  1412   ar
   137  1636  1635   ar
   138  1636  1637   ar
   139  1621  1612   ar
   140  1621  1615   ar
   141  1389  1390   ar
   142  1606  1607    1
   143  1606  1605    1
   144  1407  1406    1
   145  1407  1408    1
   146  1349  1350    2
   147  1612  1613   ar
   148  1597  1596   ar
   149  1597  1599   ar
   150  1314  1301    1
   151  1314  1316    1
   152  1637  1638    1
   153  1420  1421    1
   154  1408  1409   ar
   155  1298  1300    1
   156  1298  1299    1
   157  1301  1300    1
   158  1329  1331   ar
   159  1329  1330    2
   160  1331  1333    1
   161  1596  1594   ar
   162  1441  1439    2
   163  1599  1600   ar
   164  1479  1478    2
   165  1616  1615    1
   166  1616  1617    1
   167  1615  1614   ar
   168  1281  1280    1
   169  1393  1394    1
   170  1393  1392   ar
   171  1421  1422    1
   172  1412  1413    2
   173  1412  1411   ar
   174  1300  1302    1
   175  1605  1604    1
   176  1390  1392   ar
   177  1390  1391    2
   178  1299  1303    1
   179  1613  1614   ar
   180  1462  1463    1
   181  1462  1461    1
   182  1409  1411   ar
   183  1409  1410    2
   184  1463  1464    1
   185  1463  1465    1
   186  1440  1439    1
   187  1478  1466    1
   188  1478  1480    1
   189  1478  1481    1
   190  1439  1425    1
   191  1439  1442    1
   192  1460  1458    2
   193  1594  1595    2
   194  1594  1593   ar
   195  1455  1454    1
   196  1600  1593   ar
   197  1600  1590   ar
   198  1466  1465    1
   199  1430  1429   ar
   200  1430  1431   ar
   201  1280  1278    1
   202  1280  1282    1
   203  1429  1428   ar
   204  1604  1601    1
   205  1278  1277    1
   206  1278  1279    1
   207  1093  1094    1
   208  1093  1092    1
   209  1302  1303    1
   210  1588  1589    1
   211  1588  1586    1
   212  1072  1071    1
   213  1072  1073    1
   214  1072  1074    1
   215  1303  1304    1
   216  1482  1481    1
   217  1482  1483    1
   218  1422  1424    1
   219  1422  1423    1
   220  1464  1468    1
   221  1465  1467    1
   222  1090  1089    2
   223  1456  1454   ar
   224  1456  1457   ar
   225  1075  1074    1
   226  1075  1089    1
   227  1094  1095    1
   228  1094  1096    1
   229  1064  1063    1
   230  1071  1070    1
   231  1425  1424    1
   232  1593  1592   ar
   233  1073  1077    1
   234  1454  1453   ar
   235  1424  1426    1
   236  1442  1443    1
   237  1461  1458    1
   238  1277  1276    1
   239  1589  1590    1
   240  1589  1585    1
   241  1458  1459    1
   242  1458  1447    1
   243  1590  1591   ar
   244  1305  1304   ar
   245  1305  1306   ar
   246  1423  1427    1
   247  1095  1099    1
   248  1279  1283    1
   249  1076  1077    1
   250  1076  1074    1
   251  1077  1078    1
   252  1433  1432    2
   253  1089  1092    1
   254  1089  1091    1
   255  1282  1283    1
   256  1457  1450   ar
   257  1431  1432   ar
   258  1431  1438   ar
   259  1097  1096    1
   260  1097  1111    1
   261  1304  1313   ar
   262  1428  1427    1
   263  1428  1438   ar
   264  1112  1111    2
   265  1483  1484    1
   266  1483  1485    1
   267  1283  1284    1
   268  1587  1586    1
   269  1587  1601    1
   270  1468  1467    1
   271  1468  1469    1
   272  1586  1584    1
   273  1065  1063   ar
   274  1065  1066   ar
   275  1096  1098    1
   276  1601  1602    2
   277  1601  1603    1
   278  1453  1451   ar
   279  1063  1062   ar
   280  1054  1055    1
   281  1054  1052    1
   282  1432  1434   ar
   283  1500  1499    2
   284  1572  1571    2
   285  1274  1273    2
   286  1099  1098    1
   287  1099  1100    1
   288  1053  1067    1
   289  1053  1052    1
   290  1068  1067    2
   291  1484  1488    1
   292  1427  1426    1
   293  1070  1067    1
   294  1306  1307   ar
   295  1443  1444    1
   296  1592  1591   ar
   297  1553  1552    2
   298  1276  1273    1
   299  1446  1447    1
   300  1446  1444    1
   301  1446  1448    1
   302  1055  1051    1
   303  1055  1056    1
   304  1585  1584    1
   305  1438  1437   ar
   306  1115  1116    1
   307  1115  1114    1
   308  1111  1114    1
   309  1111  1113    1
   310  1501  1499    1
   311  1286  1285    2
   312  1450  1451   ar
   313  1450  1449    1
   314  1534  1533    1
   315  1499  1486    1
   316  1499  1502    1
   317  1078  1088   ar
   318  1078  1079   ar
   319  1087  1088   ar
   320  1087  1085   ar
   321  1486  1485    1
   322  1067  1069    1
   323  1584  1583    1
   324  1451  1452    2
   325  1469  1476   ar
   326  1469  1470   ar
   327  1052  1050    1
   328  1050  1051    1
   329  1050  1049    1
   330  1554  1552   ar
   331  1554  1555   ar
   332  1485  1487    1
   333  1313  1307   ar
   334  1313  1312   ar
   335  1273  1262    1
   336  1273  1275    1
   337  1573  1571   ar
   338  1573  1574   ar
   339  1444  1445    1
   340  1086  1085    1
   341  1571  1570   ar
   342  1284  1285   ar
   343  1284  1291   ar
   344  1448  1449    1
   345  1066  1056   ar
   346  1066  1059   ar
   347  1262  1261    1
   348  1062  1060   ar
   349  1471  1470    2
   350  1552  1551   ar
   351  1116  1117    1
   352  1116  1118    1
   353  1088  1081   ar
   354  1307  1308   ar
   355  1056  1057   ar
   356  1476  1475   ar
   357  1556  1555    1
   358  1285  1287   ar
   359  1434  1435   ar
   360  1445  1449    1
   361  1263  1261    1
   362  1263  1264    1
   363  1085  1084   ar
   364  1488  1487    1
   365  1488  1489    1
   366  1100  1101   ar
   367  1100  1110   ar
   368  1079  1080   ar
   369  1470  1472   ar
   370  1117  1121    1
   371  1267  1266    2
   372  1312  1311   ar
   373  1437  1435   ar
   374  1575  1574    2
   375  1555  1557   ar
   376  1490  1489   ar
   377  1490  1491   ar
   378  1533  1535   ar
   379  1533  1532   ar
   380  1049  1048    1
   381  1574  1576   ar
   382  1291  1290   ar
   383  1101  1102   ar
   384  1261  1259    1
   385  1502  1503    1
   386  1435  1436    1
   387  1583  1582    1
   388  1489  1498   ar
   389  1059  1060   ar
   390  1059  1058   ar
   391  1119  1118    1
   392  1119  1132    1
   393  1060  1061    2
   394  1570  1569    1
   395  1570  1577   ar
   396  1569  1568    1
   397  1569  1565    1
   398  1264  1260    1
   399  1264  1265    1
   400  1568  1566    1
   401  1081  1080   ar
   402  1081  1082   ar
   403  1118  1120    1
   404  1109  1110   ar
   405  1109  1107   ar
   406  1551  1550   ar
   407  1551  1558   ar
   408  1535  1536   ar
   409  1532  1530   ar
   410  1110  1103   ar
   411  1475  1477    1
   412  1475  1473   ar
   413  1503  1504    1
   414  1133  1132    2
   415  1057  1058   ar
   416  1308  1309    1
   417  1308  1310   ar
   418  1287  1288   ar
   419  1259  1260    1
   420  1259  1258    1
   421  1084  1082   ar
   422  1582  1579    1
   423  1266  1265   ar
   424  1266  1268   ar
   425  1121  1120    1
   426  1121  1122    1
   427  1491  1492   ar
   428  1472  1473   ar
   429  1311  1310   ar
   430  1557  1558   ar
   431  1048  1045    1
   432  1132  1134    1
   433  1132  1135    1
   434  1550  1549   ar
   435  1265  1272   ar
   436  1082  1083    2
   437  1576  1577   ar
   438  1576  1578    1
   439  1290  1288   ar
   440  1290  1292    1
   441  1102  1103   ar
   442  1558  1548   ar
   443  1473  1474    2
   444  1520  1518    2
   445  1268  1269   ar
   446  1498  1492   ar
   447  1498  1497   ar
   448  1123  1122   ar
   449  1123  1124   ar
   450  1565  1564    1
   451  1516  1517   ar
   452  1516  1514   ar
   453  1103  1104   ar
   454  1107  1108    1
   455  1107  1106   ar
   456  1288  1289    2
   457  1258  1257    1
   458  1122  1131   ar
   459  1536  1529   ar
   460  1530  1531    2
   461  1530  1529   ar
   462  1517  1510   ar
   463  1566  1567    1
   464  1566  1564    1
   465  1492  1493   ar
   466  1504  1505    1
   467  1504  1506    1
   468  1031  1045    1
   469  1031  1030    1
   470  1135  1136    1
   471  1579  1567    1
   472  1579  1581    2
   473  1579  1580    1
   474   144   143    2
   475  1497  1496   ar
   476  1505  1509    1
   477  1045  1046    2
   478  1045  1047    1
   479  1272  1271   ar
   480  1549  1548   ar
   481  1529  1528    1
   482  1564  1563    1
   483  1515  1514    1
   484  1124  1125   ar
   485  1548  1547    1
   486  1032  1030    1
   487  1032  1033    1
   488   127   126    1
   489   127   128    1
   490   127   129    1
   491   130   143    1
   492   130   129    1
   493  1514  1513   ar
   494  1269  1271   ar
   495  1269  1270    1
   496   126   125    1
   497  1506  1507    1
   498  1506  1508    1
   499  1106  1104   ar
   500  1257  1254    1
   501  1136  1137    1
   502  1104  1105    2
   503  1518  1507    1
   504  1518  1521    1
   505  1518  1519    1
   506  1131  1125   ar
   507  1131  1130   ar
   508  1030  1028    1
   509  1510  1509    1
   510  1510  1511   ar
   511   128   132    1
   512  1493  1494    1
   513  1493  1495   ar
   514  1248  1247    2
   515   143   145    1
   516   143   146    1
   517   112   113    1
   518   112   110    1
   519   129   131    1
   520  1125  1126   ar
   521   131   132    1
   522  1521  1522    1
   523  1509  1508    1
   524   111   110    1
   525   111   122    1
   526  1496  1495   ar
   527  1028  1029    1
   528  1028  1027    1
   529  1130  1129   ar
   530   123   122    2
   531   108   109    1
   532   108   110    1
   533   108   107    1
   534  1033  1029    1
   535  1033  1034    1
   536   113   109    1
   537   113   114    1
   538  1547  1546    1
   539  1547  1543    1
   540  1562  1563    1
   541  1562  1559    1
   542   132   133    1
   543   116   115    2
   544  1042  1041    1
   545  1528  1524    1
   546  1528  1527    1
   547  1255  1254    2
   548  1546  1544    1
   549  1513  1511   ar
   550   100    99    1
   551   147   146    1
   552   147   148    1
   553   125   122    1
   554  1043  1041   ar
   555  1043  1044   ar
   556  1524  1523    1
   557  1244  1245    1
   558  1244  1242    1
   559  1511  1512    2
   560  1254  1243    1
   561  1254  1256    1
   562  1137  1138    1
   563  1137  1139    1
   564  1539  1537    2
   565  1561  1559    2
   566  1247  1249   ar
   567  1247  1246   ar
   568   122   124    1
   569    77    78   ar
   570    77    75   ar
   571  1156  1154    2
   572  1027  1026    1
   573  1041  1040   ar
   574  1527  1525    1
   575   107   106    1
   576  1155  1154    1
   577  1249  1250   ar
   578  1243  1242    1
   579  1525  1523    1
   580  1525  1526    1
   581    78    79   ar
   582  1544  1545    1
   583  1544  1542    1
   584  1126  1127    1
   585  1126  1128   ar
   586  1034  1044   ar
   587  1034  1035   ar
   588  1522  1523    1
   589  1129  1128   ar
   590  1543  1542    1
   591  1559  1545    1
   592  1559  1560    1
   593   115   114   ar
   594   115   117   ar
   595  1138  1142    1
   596  1044  1037   ar
   597  1140  1139    1
   598  1140  1154    1
   599  1139  1141    1
   600   114   121   ar
   601  1245  1246    1
   602  1245  1241    1
   603  1154  1157    1
   604    99   101   ar
   605    99    98   ar
   606  1242  1240    1
   607   148   149    1
   608   148   150    1
   609   133   134   ar
   610   133   142   ar
   611    76    75    1
   612  1144  1145    2
   613  1144  1143    1
   614   101   102   ar
   615  1246  1253   ar
   616  1026  1023    1
   617    75    74   ar
   618  1537  1526    1
   619  1537  1538    1
   620  1537  1540    1
   621  1542  1541    1
   622  1024  1023    2
   623   149   153    1
   624  1040  1038   ar
   625  1250  1251    1
   626  1250  1252   ar
   627   141   142   ar
   628   141   140   ar
   629    90    91    1
   630    90    88    1
   631  1145  1146    1
   632    79    80   ar
   633  1035  1036   ar
   634   134   135   ar
   635   106   103    1
   636   117   118   ar
   637  1143  1142    1
   638  1143  1153    1
   639   142   136   ar
   640  1142  1141    1
   641  1540  1541    1
   642    98    96   ar
   643  1240  1241    1
   644  1240  1239    1
   645  1037  1038   ar
   646  1037  1036   ar
   647   151   150    1
   648   151   162    1
   649    91    92    1
   650    91    87    1
   651   121   120   ar
   652   104   103    2
   653    57    56    1
   654   150   152    1
   655  1023  1025    1
   656  1023  1011    1
   657  1253  1252   ar
   658   102    92   ar
   659   102    95   ar
   660    35    34    2
   661  1157  1158    1
   662  1038  1039    2
   663   163   162    2
   664   164   162    1
   665    74    80   ar
   666    74    73   ar
   667    80    71   ar
   668   140   139   ar
   669    89   103    1
   670    89    88    1
   671  1228  1227    2
   672   103   105    1
   673    92    93   ar
   674    87    86    1
   675   162   165    1
   676  1158  1159    1
   677   153   152    1
   678   153   154    1
   679    88    86    1
   680  1146  1153    1
   681  1146  1147    1
   682   135   136   ar
   683   118   120   ar
   684   118   119    1
   685   161   154   ar
   686   161   160   ar
   687  1153  1152    2
   688   136   137   ar
   689    14    13    1
   690    86    85    1
   691   867   866    2
   692    96    95   ar
   693    96    97    2
   694  1239  1238    1
   695    56    55   ar
   696    56    58   ar
   697    95    94   ar
   698   154   155   ar
   699  1229  1227   ar
   700  1229  1230   ar
   701  1011  1010    1
   702    34    36   ar
   703    34    33   ar
   704    55    53   ar
   705    11    10    2
   706    11    12    1
   707  1016  1015    2
   708  1227  1226   ar
   709  1167  1166   ar
   710  1167  1168   ar
   711  1012  1010    1
   712  1012  1013    1
   713   868   866    1
   714   160   158   ar
   715    73    72   ar
   716  1166  1165   ar
   717  1238  1235    1
   718   139   137   ar
   719    71    70    1
   720    71    72   ar
   721  1147  1148    2
   722  1147  1149    1
   723    36    37   ar
   724  1152  1150    1
   725   866   869    1
   726   866   854    1
   727   137   138    1
   728    93    94   ar
   729  1231  1230    1
   730  1231    15    1
   731    13    12    2
   732    13    15    1
   733  1191  1190    1
   734  1210  1209    1
   735  1159  1160    1
   736  1159  1161    1
   737  1010  1008    1
   738   165   166    1
   739    10     9    1
   740    58    59   ar
   741   888   887    2
   742    85    84    1
   743    12    18    1
   744  1015  1017   ar
   745  1015  1014   ar
   746  1230  1232   ar
   747   870   869    1
   748   870   871    1
   749    32    33   ar
   750    32    31   ar
   751  1177  1175    2
   752    33    40   ar
   753    70    69    1
   754    70    66    1
   755  1160  1164    1
   756     1     2    1
   757    69    67    1
   758  1170  1169    1
   759  1224  1225    1
   760  1224  1222    1
   761  1013  1014    1
   762  1013  1009    1
   763   155   156    2
   764   155   157   ar
   765    53    54    2
   766    53    52   ar
   767  1017  1018   ar
   768  1226  1225    1
   769  1226  1233   ar
   770   166   167    1
   771  1168  1169   ar
   772  1168  1174   ar
   773   158   157   ar
   774   158   159    1
   775  1149  1150    2
   776  1165  1164    1
   777  1165  1174   ar
   778  1150  1151    1
   779  1161  1162    1
   780  1161  1163    1
   781  1014  1021   ar
   782   847   846    2
   783  1225  1221    1
   784    37    38    1
   785    37    39   ar
   786  1235  1237    2
   787  1235  1236    1
   788  1235  1223    1
   789    15    16    1
   790  1192  1190   ar
   791  1192  1193   ar
   792  1190  1189   ar
   793    84    81    1
   794  1169  1171   ar
   795    21    19    2
   796  1209  1211   ar
   797  1209  1208   ar
   798  1008  1009    1
   799  1008  1007    1
   800     2     3    1
   801   854   853    1
   802   871   873    1
   803   871   872    1
   804    59    52   ar
   805  1164  1163    1
   806     9    18    1
   807     9     8    1
   808   887   874    1
   809   887   889    1
   810   887   890    1
   811  1175  1162    1
   812  1175  1176    1
   813  1175  1178    1
   814    31    30   ar
   815    18    17    1
   816  1211  1212   ar
   817   874   873    1
   818  1232  1233   ar
   819  1232  1234    1
   820  1018  1019    2
   821  1018  1020   ar
   822    40    39   ar
   823    40    30   ar
   824  1174  1173   ar
   825    66    65    1
   826    52    51    1
   827     4     3    1
   828     4     8    1
   829  1021  1020   ar
   830  1222  1223    1
   831  1222  1220    1
   832    67    68    1
   833    67    65    1
   834   167   168    1
   835   167   169    1
   836   168   172    1
   837   853   851    1
   838   853   855    1
   839   873   875    1
   840  1020  1022    1
   841     3     5    1
   842     5     7    1
   843     5     6    1
   844  1193  1186   ar
   845     8     7    1
   846   849   846    1
   847   849   850    1
   848    16    17    2
   849   846   833    1
   850   846   848    1
   851  1189  1187   ar
   852   872   876    1
   853    30    29    1
   854  1208  1207   ar
   855  1208  1214   ar
   856  1007  1006    1
   857   850   851    1
   858  1221  1220    1
   859   174   175   ar
   860   174   173   ar
   861  1207  1206   ar
   862   890   891    1
   863    68    81    1
   864   175   176   ar
   865  1171  1172   ar
   866    65    64    1
   867    81    82    2
   868    81    83    1
   869  1178  1179    1
   870   833   832    1
   871    19     6    1
   872    19    22    1
   873    19    20    1
   874    43    41    2
   875  1212  1213   ar
   876  1220  1219    1
   877    51    50    1
   878    51    47    1
   879   851   852    1
   880  1173  1172   ar
   881    50    48    1
   882   169   170    1
   883   169   171    1
   884   891   892    1
   885    22    23    1
   886   855   856    1
   887   996   995    2
   888   185   183    2
   889   173   172    1
   890   173   182   ar
   891   826   825    2
   892  1186  1187   ar
   893  1186  1185    1
   894   907   906    2
   895   172   171    1
   896  1187  1188    2
   897   875   876    1
   898   170   183    1
   899  1214  1213   ar
   900  1214  1205   ar
   901  1006  1003    1
   902    63    64    1
   903    63    60    1
   904   876   877    1
   905    29    25    1
   906    29    28    1
   907  1206  1205   ar
   908    48    49    1
   909    48    46    1
   910   176   182   ar
   911   176   177   ar
   912   878   877    1
   913   878   879    1
   914  1179  1180    1
   915   997   995   ar
   916   997   998   ar
   917    47    46    1
   918    25    24    1
   919    28    26    1
   920   178   177    1
   921   995   994   ar
   922    62    49    1
   923    62    60    1
   924    26    24    1
   925    26    27    1
   926    44    41    1
   927    44    45    1
   928   832   830    1
   929   832   834    1
   930    41    27    1
   931    41    42    1
   932   183   184    1
   933   183   186    1
   934  1196  1194    2
   935   908   906    1
   936  1181  1185    1
   937  1181  1180    1
   938   182   181   ar
   939   829   830    1
   940   829   828    1
   941   852   856    1
   942  1219  1218    1
   943   906   895    1
   944   906   909    1
   945   895   894    1
   946   877   886    1
   947  1205  1204    1
   948   177   179   ar
   949  1218  1215    1
   950   830   831    1
   951   865   863    1
   952    23    24    1
   953   999   998    2
   954   992   993    1
   955   992   990    1
   956   856   879    1
   957   856   857    1
   958   892   894    1
   959   892   893    1
   960  1005  1003    2
   961  1185  1184    1
   962   879   880    1
   963   828   825    1
   964  1004  1003    1
   965    46    45    1
   966   825   827    1
   967   825   811    1
   968  1003   991    1
   969    60    61    1
   970   998  1000   ar
   971   864   863   ar
   972   864   857   ar
   973   894   896    1
   974  1180  1182    1
   975   834   835    1
   976  1182  1184    1
   977  1182  1183    1
   978   904   905   ar
   979   904   902   ar
   980   994   993    1
   981   994  1001   ar
   982   905   898   ar
   983   863   861   ar
   984   991   990    1
   985   181   180   ar
   986   993   989    1
   987   857   858   ar
   988   893   897    1
   989   186   187    1
   990   990   988    1
   991   179   180   ar
   992   811   810    1
   993  1194  1197    1
   994  1194  1183    1
   995  1194  1195    1
   996   886   880    1
   997   886   885    2
   998  1217  1215    2
   999   979   978    2
  1000  1204  1203    1
  1001  1204  1200    1
  1002   909   910    1
  1003   880   881    1
  1004  1197  1198    1
  1005  1203  1201    1
  1006  1000  1001   ar
  1007  1000  1002    1
  1008  1215  1216    1
  1009  1215  1202    1
  1010   831   835    1
  1011   196   195   ar
  1012   196   197   ar
  1013   835   836    1
  1014  1201  1202    1
  1015  1201  1199    1
  1016   195   194   ar
  1017   896   897    1
  1018   903   902    1
  1019   902   901   ar
  1020   861   862    2
  1021   861   860   ar
  1022   898   897    1
  1023   898   899   ar
  1024   910   911    1
  1025  1200  1199    1
  1026   885   884    1
  1027   199   198    2
  1028   858   860   ar
  1029   858   859    1
  1030   187   188    1
  1031   978   977   ar
  1032   978   980   ar
  1033   989   988    1
  1034   923   924   ar
  1035   923   921   ar
  1036   988   987    1
  1037   810   812    1
  1038   810   808    1
  1039   197   198   ar
  1040   197   204   ar
  1041   977   975   ar
  1042  1199  1198    1
  1043   836   837    1
  1044   836   845    1
  1045   881   882    2
  1046   881   883    1
  1047   982   980    1
  1048   859   882    1
  1049   198   200   ar
  1050   189   188    1
  1051   189   193    1
  1052   927   925    2
  1053   924   917   ar
  1054   922   921    1
  1055   194   204   ar
  1056   194   193    1
  1057   812   813    1
  1058   837   838    2
  1059   980   981   ar
  1060   901   899   ar
  1061   899   900    2
  1062   960   959    1
  1063   808   807    1
  1064   808   809    1
  1065   921   920   ar
  1066   188   190    1
  1067   884   883    2
  1068   986   987    1
  1069   986   983    1
  1070   844   845    1
  1071   844   843    2
  1072   845   839    1
  1073   804   803    2
  1074   807   806    1
  1075   204   203   ar
  1076   941   940    1
  1077   911   912    1
  1078   911   913    1
  1079   975   976    2
  1080   975   974   ar
  1081   912   916    1
  1082   193   192    1
  1083   985   983    2
  1084   838   839    1
  1085   200   201   ar
  1086   925   926    1
  1087   925   914    1
  1088   925   928    1
  1089   221   220    1
  1090   806   803    1
  1091   913   914    1
  1092   913   915    1
  1093   981   974   ar
  1094   839   840    2
  1095   917   916    1
  1096   917   918   ar
  1097   843   842    1
  1098   190   192    1
  1099   190   191    1
  1100   959   961   ar
  1101   959   958   ar
  1102   942   940   ar
  1103   942   943   ar
  1104   974   973    1
  1105   983   984    1
  1106   983   971    1
  1107   813   809    1
  1108   813   814    1
  1109   940   939   ar
  1110   203   201   ar
  1111   803   805    1
  1112   803   791    1
  1113   920   918   ar
  1114   242   241    2
  1115   201   202    1
  1116   916   915    1
  1117   207   205    2
  1118   961   962   ar
  1119   958   956   ar
  1120   840   842    1
  1121   840   841    1
  1122   264   263    2
  1123   842   286    1
  1124   918   919    2
  1125   218   219   ar
  1126   218   217   ar
  1127   191   205    1
  1128   972   970    1
  1129   972   973    1
  1130   965   963    2
  1131   220   219   ar
  1132   220   222   ar
  1133   928   929    1
  1134   814   815   ar
  1135   814   824   ar
  1136   943   936   ar
  1137   970   971    1
  1138   970   968    1
  1139   946   944    2
  1140   265   263   ar
  1141   265   266   ar
  1142   973   969    1
  1143   219   225   ar
  1144   791   790    1
  1145   815   816   ar
  1146   939   937   ar
  1147   823   824   ar
  1148   823   821   ar
  1149   824   817   ar
  1150   263   262   ar
  1151   241   243   ar
  1152   241   240   ar
  1153   217   216   ar
  1154   267   266    1
  1155   962   955   ar
  1156   956   957    2
  1157   956   955   ar
  1158   205   206    1
  1159   205   208    1
  1160   286   285    1
  1161   966   963    1
  1162   966   967    1
  1163   222   223   ar
  1164   303   302    2
  1165   243   244   ar
  1166   315   319    1
  1167   315   314    1
  1168   963   964    1
  1169   963   952    1
  1170   822   821    1
  1171   821   820   ar
  1172   816   817   ar
  1173   284   285   ar
  1174   284   282   ar
  1175   969   968    1
  1176   792   790    1
  1177   792   793    1
  1178   266   268   ar
  1179   817   818   ar
  1180   319   318    1
  1181   319   320    1
  1182   955   954    1
  1183   936   937   ar
  1184   936   935    1
  1185   929   930    1
  1186   314   313    1
  1187   314   316    1
  1188   283   282    2
  1189   968   967    1
  1190   937   938    2
  1191   790   788    1
  1192   285   287   ar
  1193   225   216   ar
  1194   225   224   ar
  1195   328   327   ar
  1196   328   329   ar
  1197   944   947    1
  1198   944   945    1
  1199   944   933    1
  1200   240   239   ar
  1201   240   247   ar
  1202   820   818   ar
  1203   208   209    1
  1204   216   215    1
  1205   302   304   ar
  1206   302   301   ar
  1207   239   238   ar
  1208   818   819    2
  1209   313   312    1
  1210   318   316    1
  1211   282   281   ar
  1212   300   299    1
  1213   300   301    1
  1214   300   296    1
  1215   262   261   ar
  1216   262   269   ar
  1217   223   224   ar
  1218   947   948    1
  1219   299   297    1
  1220   932   930    1
  1221   932   933    1
  1222   932   934    1
  1223   327   326   ar
  1224   336   335    1
  1225   336   340    1
  1226   244   245    1
  1227   244   246   ar
  1228   951   953    1
  1229   951   952    1
  1230   951   949    1
  1231   953   954    1
  1232   320   329   ar
  1233   320   321   ar
  1234   335   334    1
  1235   335   337    1
  1236   304   305   ar
  1237   931   930    1
  1238   931   935    1
  1239   329   323   ar
  1240   788   789    1
  1241   788   787    1
  1242   340   339    1
  1243   340   341    1
  1244   796   795    2
  1245   793   789    1
  1246   793   794    1
  1247   268   269   ar
  1248   316   317    1
  1249   301   308   ar
  1250   954   950    1
  1251   935   934    1
  1252   334   333    1
  1253   261   260   ar
  1254   317   330    1
  1255   296   295    1
  1256   211   215    1
  1257   211   210    1
  1258   209   210    1
  1259   269   259   ar
  1260   247   246   ar
  1261   247   237   ar
  1262   339   337    1
  1263   312   309    1
  1264   287   289    1
  1265   287   288   ar
  1266   215   214    1
  1267   238   237   ar
  1268   326   324   ar
  1269   795   794   ar
  1270   795   797   ar
  1271   950   949    1
  1272   281   288   ar
  1273   281   280    1
  1274   948   949    1
  1275   295   297    1
  1276   295   294    1
  1277   321   322   ar
  1278   794   801   ar
  1279   298   297    1
  1280   298   309    1
  1281   337   338    1
  1282   305   306    1
  1283   305   307   ar
  1284   338   352    1
  1285   787   786    1
  1286   341   351   ar
  1287   341   342   ar
  1288   323   324   ar
  1289   323   322   ar
  1290   210   212    1
  1291   350   351   ar
  1292   350   348   ar
  1293   289   306    1
  1294   308   307   ar
  1295   237   236    1
  1296   797   798   ar
  1297   333   330    1
  1298   260   259   ar
  1299   330   331    2
  1300   330   332    1
  1301   212   214    1
  1302   212   213    1
  1303   324   325    1
  1304   349   348    1
  1305   351   344   ar
  1306   786   783    1
  1307   356   357    1
  1308   356   355    1
  1309   309   310    2
  1310   309   311    1
  1311   259   258    1
  1312   358   357    1
  1313   358   362    1
  1314   353   352    2
  1315   801   800   ar
  1316   280   279    1
  1317   280   276    1
  1318   357   359    1
  1319   228   226    2
  1320   577   576    1
  1321   342   343   ar
  1322   348   347   ar
  1323   279   277    1
  1324   294   293    1
  1325   798   800   ar
  1326   798   799    2
  1327   355   352    1
  1328   352   354    1
  1329   800   802    1
  1330   784   783    2
  1331   344   343   ar
  1332   344   345   ar
  1333   362   361    1
  1334   362   363    1
  1335   213   226    1
  1336   226   229    1
  1337   226   227    1
  1338   236   232    1
  1339   236   235    1
  1340   598   599   ar
  1341   598   597   ar
  1342   783   785    1
  1343   783   771    1
  1344   347   345   ar
  1345   258   257    1
  1346   258   254    1
  1347   599   600   ar
  1348   276   275    1
  1349   360   359    1
  1350   360   373    1
  1351   232   231    1
  1352   359   361    1
  1353   576   575   ar
  1354   576   578   ar
  1355   293   290    1
  1356   345   346    2
  1357   257   255    1
  1358   771   770    1
  1359   277   275    1
  1360   277   278    1
  1361   555   554    1
  1362   776   775    2
  1363   229   230    1
  1364   363   364   ar
  1365   363   372   ar
  1366   575   573   ar
  1367   589   590    1
  1368   589   587    1
  1369   364   365   ar
  1370   597   595   ar
  1371   622   621    2
  1372   590   586    1
  1373   590   591    1
  1374   374   373    2
  1375   578   579   ar
  1376   254   253    1
  1377   235   233    1
  1378   275   274    1
  1379   600   591   ar
  1380   600   594   ar
  1381   772   770    1
  1382   772   773    1
  1383   278   290    1
  1384   604   605    1
  1385   604   601    1
  1386   230   231    1
  1387   602   588    1
  1388   602   601    1
  1389   233   231    1
  1390   233   234    1
  1391   586   585    1
  1392   553   554   ar
  1393   553   551   ar
  1394   770   768    1
  1395   775   777   ar
  1396   775   774   ar
  1397   255   253    1
  1398   255   256    1
  1399   373   375    1
  1400   373   376    1
  1401   290   291    2
  1402   290   292    1
  1403   591   592   ar
  1404   554   556   ar
  1405   372   371   ar
  1406   372   366   ar
  1407   250   248    2
  1408   609   621    1
  1409   609   608    1
  1410   585   587    1
  1411   585   584    1
  1412   588   587    1
  1413   777   778   ar
  1414   365   366   ar
  1415   273   274    1
  1416   273   270    1
  1417   605   606    1
  1418   371   370   ar
  1419   606   608    1
  1420   606   607    1
  1421   377   376    1
  1422   377   378    1
  1423   272   270    2
  1424   251   248    1
  1425   251   252    1
  1426   595   594   ar
  1427   595   596    1
  1428   573   574    2
  1429   573   572   ar
  1430   253   252    1
  1431   552   551    2
  1432   621   624    1
  1433   621   623    1
  1434   579   572   ar
  1435   579   569   ar
  1436   601   603    1
  1437   594   593   ar
  1438   774   773    1
  1439   774   781   ar
  1440   625   624    1
  1441   625   626    1
  1442   366   367   ar
  1443   551   550   ar
  1444   773   769    1
  1445   379   378    1
  1446   379   383    1
  1447   256   270    1
  1448   608   610    1
  1449   248   234    1
  1450   248   249    1
  1451   378   380    1
  1452   643   642    2
  1453   778   779    2
  1454   778   780   ar
  1455   607   611    1
  1456   270   271    1
  1457   556   557   ar
  1458   572   571   ar
  1459   768   769    1
  1460   768   767    1
  1461   568   567    1
  1462   568   569    1
  1463   568   564    1
  1464   592   593   ar
  1465   370   369   ar
  1466   584   583    1
  1467   567   565    1
  1468   610   611    1
  1469   569   570   ar
  1470   781   780   ar
  1471   367   369   ar
  1472   367   368    1
  1473   626   628    1
  1474   626   627    1
  1475   780   782    1
  1476   642   644    1
  1477   642   629    1
  1478   642   645    1
  1479   611   612    1
  1480   383   384    1
  1481   383   382    1
  1482   550   557   ar
  1483   550   549   ar
  1484   767   766    1
  1485   557   547   ar
  1486   629   628    1
  1487   564   563    1
  1488   392   390    1
  1489   391   384   ar
  1490   391   390   ar
  1491   583   580    1
  1492   380   382    1
  1493   380   381    1
  1494   571   570   ar
  1495   766   763    1
  1496   628   630    1
  1497   627   631    1
  1498   384   385   ar
  1499   390   388   ar
  1500   565   563    1
  1501   565   566    1
  1502   381   393    1
  1503   563   562    1
  1504   566   580    1
  1505   549   548   ar
  1506   645   646    1
  1507   612   619   ar
  1508   612   613   ar
  1509   547   548   ar
  1510   547   546    1
  1511   646   647    1
  1512   580   581    2
  1513   580   582    1
  1514   619   618   ar
  1515   395   393    2
  1516   385   386    2
  1517   385   387   ar
  1518   393   394    1
  1519   393   396    1
  1520   388   387   ar
  1521   388   389    2
  1522   630   631    1
  1523   756   755    2
  1524   763   765    2
  1525   763   764    1
  1526   763   751    1
  1527   631   632    1
  1528   757   755   ar
  1529   757   758   ar
  1530   546   545    1
  1531   546   542    1
  1532   759   758    2
  1533   614   613    2
  1534   545   543    1
  1535   613   615   ar
  1536   755   754   ar
  1537   562   561    1
  1538   758   760   ar
  1539   633   632   ar
  1540   633   634   ar
  1541   618   620    1
  1542   618   616   ar
  1543   661   659    1
  1544   664   662    1
  1545   632   641   ar
  1546   647   648    1
  1547   647   649    1
  1548   396   397    1
  1549   561   558    1
  1550   542   541    1
  1551   752   750    1
  1552   752   753    1
  1553   754   761   ar
  1554   754   753    1
  1555   648   652    1
  1556   751   750    1
  1557   760   761   ar
  1558   760   762    1
  1559   615   616   ar
  1560   739   738    2
  1561   634   635   ar
  1562   650   649    1
  1563   650   663    1
  1564   649   651    1
  1565   543   541    1
  1566   543   544    1
  1567   750   748    1
  1568   397   398    1
  1569   662   663    1
  1570   662   665    1
  1571   616   617    2
  1572   660   659   ar
  1573   660   653   ar
  1574   659   657   ar
  1575   641   635   ar
  1576   641   640   ar
  1577   737   738   ar
  1578   737   735   ar
  1579   681   679    1
  1580   399   398    1
  1581   399   403    1
  1582   753   749    1
  1583   541   540    1
  1584   738   740   ar
  1585   544   558    1
  1586   405   406   ar
  1587   405   404   ar
  1588   406   407   ar
  1589   635   636   ar
  1590   558   560    2
  1591   558   559    1
  1592   398   400    1
  1593   652   653    1
  1594   652   651    1
  1595   719   718    2
  1596   736   735    2
  1597   640   639   ar
  1598   537   524    1
  1599   653   654   ar
  1600   665   666    1
  1601   525   526    1
  1602   525   523    1
  1603   735   734   ar
  1604   539   540    1
  1605   748   749    1
  1606   748   747    1
  1607   657   658    2
  1608   657   656   ar
  1609   524   536    1
  1610   403   404    1
  1611   403   402    1
  1612   404   414   ar
  1613   407   414   ar
  1614   407   408   ar
  1615   740   742    1
  1616   740   741   ar
  1617   679   677   ar
  1618   679   680   ar
  1619   747   746    1
  1620   529   528    2
  1621   409   408    2
  1622   526   522    1
  1623   526   527    1
  1624   678   677    2
  1625   684   682    2
  1626   718   717   ar
  1627   718   720   ar
  1628   523   521    1
  1629   521   522    1
  1630   521   520    1
  1631   636   637    1
  1632   636   638   ar
  1633   414   413   ar
  1634   408   410   ar
  1635   400   402    1
  1636   400   401    1
  1637   639   638   ar
  1638   666   667    1
  1639   698   697    1
  1640   717   715   ar
  1641   654   656   ar
  1642   654   655    2
  1643   734   741   ar
  1644   734   733    1
  1645   510   509    2
  1646   677   676   ar
  1647   680   673   ar
  1648   745   743    2
  1649   683   682    1
  1650   722   720    1
  1651   528   527   ar
  1652   528   530   ar
  1653   695   696   ar
  1654   695   694   ar
  1655   682   685    1
  1656   682   670    1
  1657   520   519    1
  1658   720   721   ar
  1659   527   534   ar
  1660   401   415    1
  1661   413   411   ar
  1662   746   743    1
  1663   410   411   ar
  1664   732   733    1
  1665   732   730    1
  1666   431   430    1
  1667   733   729    1
  1668   697   696   ar
  1669   697   699   ar
  1670   715   716    2
  1671   715   714   ar
  1672   509   511   ar
  1673   509   508   ar
  1674   667   669    1
  1675   667   668    1
  1676   411   412    1
  1677   669   670    1
  1678   669   671    1
  1679   743   744    1
  1680   743   731    1
  1681   668   672    1
  1682   685   686    1
  1683   696   702   ar
  1684   511   512   ar
  1685   676   674   ar
  1686   694   693   ar
  1687   673   674   ar
  1688   673   672    1
  1689   432   430   ar
  1690   432   433   ar
  1691   430   429   ar
  1692   530   531   ar
  1693   721   714   ar
  1694   730   731    1
  1695   730   728    1
  1696   417   415    2
  1697   519   516    1
  1698   534   533   ar
  1699   450   449    2
  1700   415   416    1
  1701   415   418    1
  1702   705   703    2
  1703   507   508    1
  1704   507   506    1
  1705   507   503    1
  1706   472   471    1
  1707   699   700   ar
  1708   714   713    1
  1709   674   675    2
  1710   672   671    1
  1711   433   426   ar
  1712   508   515   ar
  1713   506   504    1
  1714   729   728    1
  1715   473   471   ar
  1716   473   474   ar
  1717   725   723    2
  1718   429   427   ar
  1719   512   513    1
  1720   512   514   ar
  1721   686   687    1
  1722   702   693   ar
  1723   702   701   ar
  1724   693   692    1
  1725   490   489    2
  1726   505   516    1
  1727   505   504    1
  1728   471   470   ar
  1729   517   516    2
  1730   503   502    1
  1731   531   533   ar
  1732   531   532    2
  1733   419   418    1
  1734   419   420    1
  1735   728   727    1
  1736   726   723    1
  1737   726   727    1
  1738   491   489   ar
  1739   491   492   ar
  1740   533   535    1
  1741   516   518    1
  1742   449   451   ar
  1743   449   448   ar
  1744   426   427   ar
  1745   426   425    1
  1746   493   492    2
  1747   474   475   ar
  1748   700   701   ar
  1749   689   687    1
  1750   689   690    1
  1751   689   691    1
  1752   427   428    2
  1753   504   502    1
  1754   703   706    1
  1755   703   690    1
  1756   703   704    1
  1757   515   514   ar
  1758   713   712    1
  1759   713   709    1
  1760   451   452   ar
  1761   688   687    1
  1762   688   692    1
  1763   489   488   ar
  1764   706   707    1
  1765   723   724    1
  1766   723   711    1
  1767   502   501    1
  1768   712   710    1
  1769   492   494   ar
  1770   692   691    1
  1771   710   711    1
  1772   710   708    1
  1773   421   420    1
  1774   421   425    1
  1775   448   447   ar
  1776   448   455   ar
  1777   447   446   ar
  1778   470   476   ar
  1779   470   469   ar
  1780   709   708    1
  1781   420   422    1
  1782   425   424    1
  1783   475   476   ar
  1784   452   453    1
  1785   452   454   ar
  1786   708   707    1
  1787   488   487    1
  1788   488   495   ar
  1789   476   467   ar
  1790   469   468   ar
  1791   501   500    1
  1792   494   495   ar
  1793   494   496    1
  1794   422   424    1
  1795   422   423    1
  1796   446   445   ar
  1797   455   454   ar
  1798   455   445   ar
  1799   487   486    1
  1800   487   483    1
  1801   486   484    1
  1802   436   434    2
  1803   500   497    1
  1804   445   444    1
  1805   468   467   ar
  1806   467   466    1
  1807   423   434    1
  1808   483   482    1
  1809   434   437    1
  1810   434   435    1
  1811   484   485    1
  1812   484   482    1
  1813   497   499    2
  1814   497   485    1
  1815   497   498    1
  1816   466   465    1
  1817   466   462    1
  1818   437   438    1
  1819   444   440    1
  1820   444   443    1
  1821   482   481    1
  1822   440   439    1
  1823   465   463    1
  1824   443   441    1
  1825   462   461    1
  1826   438   439    1
  1827   458   456    2
  1828   441   439    1
  1829   441   442    1
  1830   480   481    1
  1831   480   477    1
  1832   463   461    1
  1833   463   464    1
  1834   459   456    1
  1835   459   460    1
  1836   479   477    2
  1837   461   460    1
  1838   456   442    1
  1839   456   457    1
  1840   477   464    1
  1841   477   478    1
