@<TRIPOS>MOLECULE
dna.pdb
 1463 1632 0 0 0
SMALL
GASTEIGER

@<TRIPOS>ATOM
      1  O5'       14.8850   -4.5900    2.9560 O.3     1  DA1        -0.2176
      2  C5'       14.0300   -5.4690    2.2220 C.3     1  DA1         0.2140
      3  C4'       12.7370   -4.7960    1.7810 C.3     1  DA1         0.1776
      4  O4'       11.6830   -5.0950    2.7330 O.3     1  DA1        -0.3326
      5  C3'       12.7180   -3.2720    1.7250 C.3     1  DA1         0.1559
      6  O3'       13.3610   -2.7520    0.5640 O.3     1  DA1        -0.3138
      7  C2'       11.2160   -3.0060    1.7130 C.3     1  DA1         0.0865
      8  C1'       10.7160   -4.0530    2.7070 C.3     1  DA1         0.2094
      9  N9        10.4920   -3.5970    3.9350 N.ar    1  DA1        -0.2714
     10  C8        11.4330   -3.5360    4.9290 C.ar    1  DA1         0.1815
     11  N7        11.0200   -2.9190    6.0120 N.ar    1  DA1        -0.2193
     12  C5         9.7200   -2.5490    5.7070 C.ar    1  DA1         0.1518
     13  C6         8.7360   -1.8620    6.4390 C.ar    1  DA1         0.1919
     14  N6         8.9210   -1.4090    7.6810 N.pl3   1  DA1        -0.1054
     15  N1         7.5420   -1.6550    5.8430 N.ar    1  DA1        -0.2040
     16  C2         7.3580   -2.1110    4.5990 C.ar    1  DA1         0.2016
     17  N3         8.2050   -2.7700    3.8110 N.ar    1  DA1        -0.2048
     18  C4         9.3810   -2.9590    4.4310 C.ar    1  DA1         0.1691
     19  P         14.2430   -1.3330    0.5930 P.3     2  DT2         0.2141
     20  OP1       14.8250   -0.9810   -0.7310 O.2     2  DT2        -0.5172
     21  OP2       15.0130   -1.0320    1.8370 O.3     2  DT2        -0.4373
     22  O5'       12.8030   -0.6440    0.6510 O.3     2  DT2        -0.3114
     23  C5'       12.0330   -0.5050   -0.5390 C.3     2  DT2         0.1811
     24  C4'       10.6410    0.0070   -0.2460 C.3     2  DT2         0.1746
     25  O4'       10.1060   -0.6510    0.9350 O.3     2  DT2        -0.3327
     26  C3'       10.4650    1.4890    0.0500 C.3     2  DT2         0.1558
     27  O3'       10.4010    2.2780   -1.1340 O.3     2  DT2        -0.3138
     28  C2'        9.1270    1.5090    0.7790 C.3     2  DT2         0.0866
     29  C1'        9.1860    0.2150    1.5870 C.3     2  DT2         0.2106
     30  N1         9.6210    0.4840    2.9670 N.ar    2  DT2        -0.2559
     31  C2         8.7110    1.0440    3.8430 C.ar    2  DT2         0.3545
     32  O2         7.5900    1.3840    3.5080 O.2     2  DT2        -0.2443
     33  N3         9.1620    1.1950    5.1320 N.ar    2  DT2        -0.1533
     34  C4        10.4040    0.8490    5.6220 C.ar    2  DT2         0.2804
     35  O4        10.6620    1.0450    6.8070 O.2     2  DT2        -0.2654
     36  C5        11.2920    0.2750    4.6520 C.ar    2  DT2         0.0534
     37  C6        10.8800    0.1170    3.3910 C.ar    2  DT2         0.0824
     38  C7        12.6680   -0.1340    5.0880 C.3     2  DT2         0.0377
     39  P         10.7580    3.9150   -1.0680 P.3     3  DC3         0.2141
     40  OP1       10.4520    4.5590   -2.3700 O.2     3  DC3        -0.5172
     41  OP2       11.9970    4.2710   -0.3460 O.3     3  DC3        -0.4373
     42  O5'        9.5510    4.1670   -0.0660 O.3     3  DC3        -0.3114
     43  C5'        8.1940    4.1200   -0.5340 C.3     3  DC3         0.1811
     44  C4'        7.2880    4.8570    0.4170 C.3     3  DC3         0.1746
     45  O4'        7.0100    4.0370    1.5780 O.3     3  DC3        -0.3327
     46  C3'        7.8340    6.1590    0.9740 C.3     3  DC3         0.1558
     47  O3'        7.6260    7.2310    0.0680 O.3     3  DC3        -0.3138
     48  C2'        7.0410    6.3110    2.2660 C.3     3  DC3         0.0866
     49  C1'        6.8950    4.8620    2.7220 C.3     3  DC3         0.2106
     50  N1         7.9470    4.4980    3.7130 N.ar    3  DC3        -0.2556
     51  C2         7.6820    4.8510    5.0410 C.ar    3  DC3         0.3531
     52  O2         6.5700    5.3320    5.3210 O.2     3  DC3        -0.2443
     53  N3         8.6410    4.6610    5.9790 N.ar    3  DC3        -0.1739
     54  C4         9.8200    4.1440    5.6320 C.ar    3  DC3         0.1759
     55  N4        10.7340    3.9750    6.5900 N.pl3   3  DC3        -0.1070
     56  C5        10.1080    3.7790    4.2920 C.ar    3  DC3         0.0566
     57  C6         9.1590    3.9690    3.3690 C.ar    3  DC3         0.0849
     58  P          8.4690    8.6350    0.2160 P.3     4  DC4         0.2141
     59  OP1        8.0730    9.4380   -0.9640 O.2     4  DC4        -0.5172
     60  OP2        9.9050    8.3470    0.4690 O.3     4  DC4        -0.4373
     61  O5'        7.9290    9.3310    1.5440 O.3     4  DC4        -0.3114
     62  C5'        6.6580    9.9970    1.5840 C.3     4  DC4         0.1811
     63  C4'        6.3850   10.4950    2.9880 C.3     4  DC4         0.1746
     64  O4'        6.3470    9.3610    3.9000 O.3     4  DC4        -0.3327
     65  C3'        7.4780   11.3610    3.5870 C.3     4  DC4         0.1558
     66  O3'        7.4340   12.7030    3.1470 O.3     4  DC4        -0.3138
     67  C2'        7.2200   11.2180    5.0800 C.3     4  DC4         0.0866
     68  C1'        6.8850    9.7380    5.1640 C.3     4  DC4         0.2106
     69  N1         8.1140    8.9410    5.4350 N.ar    4  DC4        -0.2556
     70  C2         8.5670    8.9920    6.7590 C.ar    4  DC4         0.3531
     71  O2         7.9070    9.6360    7.5920 O.2     4  DC4        -0.2443
     72  N3         9.7060    8.3400    7.0910 N.ar    4  DC4        -0.1739
     73  C4        10.3820    7.6620    6.1630 C.ar    4  DC4         0.1759
     74  N4        11.5000    7.0350    6.5370 N.pl3   4  DC4        -0.1070
     75  C5         9.9400    7.5980    4.8160 C.ar    4  DC4         0.0566
     76  C6         8.8140    8.2430    4.4920 C.ar    4  DC4         0.0849
     77  P          8.8730   13.7570    3.4590 P.3     5  DG5         0.2141
     78  OP1        8.6400   15.1520    3.0200 O.3     5  DG5        -0.4373
     79  OP2        9.9200   12.9360    2.7910 O.2     5  DG5        -0.5172
     80  O5'        9.1650   13.7520    5.0360 O.3     5  DG5        -0.3114
     81  C5'        8.3350   14.5050    5.9030 C.3     5  DG5         0.1811
     82  C4'        8.8120   14.3660    7.3350 C.3     5  DG5         0.1746
     83  O4'        8.9510   12.9600    7.6510 O.3     5  DG5        -0.3327
     84  C3'       10.1950   14.9260    7.6180 C.3     5  DG5         0.1558
     85  O3'       10.1210   16.3260    7.8620 O.3     5  DG5        -0.3138
     86  C2'       10.5880   14.1530    8.8710 C.3     5  DG5         0.0865
     87  C1'        9.9940   12.7800    8.5870 C.3     5  DG5         0.2094
     88  N9        10.9110   11.7960    8.1350 N.ar    5  DG5        -0.2713
     89  C8        11.1720   11.3550    6.8600 C.ar    5  DG5         0.1816
     90  N7        12.1750   10.5230    6.7970 N.ar    5  DG5        -0.2173
     91  C5        12.6040   10.4040    8.1060 C.ar    5  DG5         0.1748
     92  C6        13.6620    9.6400    8.6650 C.ar    5  DG5         0.3023
     93  O6        14.4550    8.8900    8.0830 O.2     5  DG5        -0.2633
     94  N1        13.7540    9.8100   10.0440 N.ar    5  DG5        -0.1709
     95  C2        12.9290   10.6150   10.7920 C.ar    5  DG5         0.2606
     96  N2        13.1720   10.6490   12.1090 N.pl3   5  DG5        -0.0859
     97  N3        11.9430   11.3310   10.2870 N.ar    5  DG5        -0.1918
     98  C4        11.8350   11.1830    8.9490 C.ar    5  DG5         0.1722
     99  P         11.3830   17.2470    7.6070 P.3     6  DT6         0.2141
    100  OP1       11.0860   18.6960    7.5320 O.3     6  DT6        -0.4373
    101  OP2       11.8530   16.5510    6.3880 O.2     6  DT6        -0.5172
    102  O5'       12.4510   17.0000    8.7740 O.3     6  DT6        -0.3114
    103  C5'       12.3440   17.6090   10.0560 C.3     6  DT6         0.1811
    104  C4'       13.3290   16.9230   10.9780 C.3     6  DT6         0.1746
    105  O4'       13.0390   15.5030   11.0440 O.3     6  DT6        -0.3327
    106  C3'       14.7890   16.9250   10.5410 C.3     6  DT6         0.1558
    107  O3'       15.3960   18.0880   10.9710 O.3     6  DT6        -0.3138
    108  C2'       15.3430   15.7980   11.3800 C.3     6  DT6         0.0866
    109  C1'       14.2400   14.7720   11.2310 C.3     6  DT6         0.2106
    110  N1        14.4850   13.8960   10.0470 N.ar    6  DT6        -0.2559
    111  C2        15.3050   12.8150   10.3100 C.ar    6  DT6         0.3545
    112  O2        15.7230   12.5540   11.4240 O.2     6  DT6        -0.2443
    113  N3        15.6210   12.0460    9.2160 N.ar    6  DT6        -0.1533
    114  C4        15.2090   12.2450    7.9150 C.ar    6  DT6         0.2804
    115  O4        15.5770   11.4670    7.0380 O.2     6  DT6        -0.2654
    116  C5        14.3610   13.3880    7.7230 C.ar    6  DT6         0.0534
    117  C6        14.0380   14.1530    8.7690 C.ar    6  DT6         0.0824
    118  C7        13.8600   13.6900    6.3420 C.3     6  DT6         0.0377
    119  P         16.3470   18.4260   10.3130 P.3     7  DC7         0.2141
    120  OP1       16.4340   19.8280   10.7770 O.3     7  DC7        -0.4373
    121  OP2       16.1600   18.1340    8.8760 O.2     7  DC7        -0.5172
    122  O5'       17.6520   17.6430   10.8080 O.3     7  DC7        -0.3114
    123  C5'       18.1600   17.8740   12.1200 C.3     7  DC7         0.1812
    124  C4'       19.1610   16.8030   12.5050 C.3     7  DC7         0.1775
    125  O4'       18.5470   15.4970   12.3700 O.3     7  DC7        -0.3326
    126  C3'       20.3900   16.6930   11.6210 C.3     7  DC7         0.1859
    127  O3'       21.3440   17.6760   11.9500 O.3     7  DC7        -0.2202
    128  C2'       20.8600   15.3010   12.0100 C.3     7  DC7         0.0895
    129  C1'       19.5280   14.5550   11.9750 C.3     7  DC7         0.2107
    130  N1        19.2490   14.0800   10.5780 N.ar    7  DC7        -0.2556
    131  C2        19.9850   13.0380   10.0010 C.ar    7  DC7         0.3531
    132  O2        21.0080   12.6360   10.5820 O.2     7  DC7        -0.2443
    133  N3        19.5630   12.5010    8.8310 N.ar    7  DC7        -0.1739
    134  C4        18.4600   12.9650    8.2430 C.ar    7  DC7         0.1759
    135  N4        18.0830   12.4050    7.0920 N.pl3   7  DC7        -0.1070
    136  C5        17.7000   14.0200    8.8110 C.ar    7  DC7         0.0566
    137  C6        18.1200   14.5470    9.9660 C.ar    7  DC7         0.0849
    138  P         21.7500   18.5640   10.8280 P.3     8  DA8         0.4149
    139  OP1       22.9090   19.4960   10.8310 O.2     8  DA8        -0.2668
    140  OP2       20.9010   18.4430    9.6090 O.3     8  DA8        -0.1481
    141  O5'       22.2880   17.1020   11.1610 O.3     8  DA8        -0.2177
    142  C5'       23.5760   16.9140   11.7280 C.3     8  DA8         0.2140
    143  C4'       24.0940   15.5230   11.4270 C.3     8  DA8         0.1776
    144  O4'       23.0100   14.6310   11.0510 O.3     8  DA8        -0.3326
    145  C3'       25.0410   15.4270   10.2480 C.3     8  DA8         0.1559
    146  O3'       26.3450   15.8300   10.6180 O.3     8  DA8        -0.3138
    147  C2'       24.9820   13.9430    9.9270 C.3     8  DA8         0.0865
    148  C1'       23.4910   13.6760   10.1130 C.3     8  DA8         0.2094
    149  N9        22.7780   13.8310    8.8210 N.ar    8  DA8        -0.2714
    150  C8        21.8940   14.8310    8.5130 C.ar    8  DA8         0.1815
    151  N7        21.3170   14.6860    7.3440 N.ar    8  DA8        -0.2193
    152  C5        21.8600   13.5100    6.8500 C.ar    8  DA8         0.1518
    153  C6        21.6590   12.8060    5.6500 C.ar    8  DA8         0.1919
    154  N6        20.8190   13.2040    4.6910 N.pl3   8  DA8        -0.1054
    155  N1        22.3590   11.6660    5.4670 N.ar    8  DA8        -0.2040
    156  C2        23.2000   11.2680    6.4290 C.ar    8  DA8         0.2016
    157  N3        23.4730   11.8430    7.5980 N.ar    8  DA8        -0.2048
    158  C4        22.7620   12.9730    7.7480 C.ar    8  DA8         0.1691
    159  P         27.1280   16.8380    9.7060 P.3     9  DC9         0.2141
    160  OP1       28.1510   17.6830   10.3580 O.3     9  DC9        -0.4373
    161  OP2       25.8120   17.3910    9.3120 O.2     9  DC9        -0.5172
    162  O5'       27.7140   16.2020    8.3650 O.3     9  DC9        -0.3114
    163  C5'       28.7590   15.2540    8.5090 C.3     9  DC9         0.1811
    164  C4'       29.0680   14.5770    7.2030 C.3     9  DC9         0.1746
    165  O4'       27.9670   13.7090    6.8460 O.3     9  DC9        -0.3327
    166  C3'       29.2180   15.5060    6.0100 C.3     9  DC9         0.1558
    167  O3'       30.5070   16.0960    5.9530 O.3     9  DC9        -0.3138
    168  C2'       28.8960   14.5830    4.8410 C.3     9  DC9         0.0866
    169  C1'       27.7770   13.7240    5.4470 C.3     9  DC9         0.2106
    170  N1        26.3650   14.1370    5.2860 N.ar    9  DC9        -0.2556
    171  C2        25.8920   13.9680    3.9800 C.ar    9  DC9         0.3531
    172  O2        26.5660   13.2940    3.1830 O.2     9  DC9        -0.2443
    173  N3        24.7180   14.5420    3.6240 N.ar    9  DC9        -0.1739
    174  C4        24.0290   15.2580    4.5140 C.ar    9  DC9         0.1759
    175  N4        22.8770   15.8050    4.1170 N.pl3   9  DC9        -0.1070
    176  C5        24.4910   15.4410    5.8420 C.ar    9  DC9         0.0566
    177  C6        25.6510   14.8730    6.1890 C.ar    9  DC9         0.0849
    178  P         30.8340   17.4700    5.1810 P.3    10  DA10        0.2141
    179  OP1       32.2260   17.7350    5.7330 O.2    10  DA10       -0.5172
    180  OP2       29.8120   18.2290    5.8800 O.3    10  DA10       -0.4373
    181  O5'       30.7170   17.4820    3.5610 O.3    10  DA10       -0.3114
    182  C5'       31.4250   16.3270    2.9770 C.3    10  DA10        0.1811
    183  C4'       30.9380   16.2360    1.5380 C.3    10  DA10        0.1746
    184  O4'       29.7200   15.5370    1.5610 O.3    10  DA10       -0.3327
    185  C3'       30.5580   17.5700    0.9080 C.3    10  DA10        0.1558
    186  O3'       31.6240   18.3330    0.4180 O.3    10  DA10       -0.3138
    187  C2'       29.5640   17.1240   -0.1610 C.3    10  DA10        0.0865
    188  C1'       28.7950   16.0360    0.6090 C.3    10  DA10        0.2094
    189  N9        27.6030   16.7060    1.1670 N.ar   10  DA10       -0.2714
    190  C8        27.3570   17.2150    2.4150 C.ar   10  DA10        0.1815
    191  N7        26.1850   17.7940    2.5290 N.ar   10  DA10       -0.2193
    192  C5        25.6240   17.6570    1.2690 C.ar   10  DA10        0.1518
    193  C6        24.3870   18.0600    0.7360 C.ar   10  DA10        0.1919
    194  N6        23.4570   18.7120    1.4370 N.pl3  10  DA10       -0.1054
    195  N1        24.1380   17.7680   -0.5580 N.ar   10  DA10       -0.2040
    196  C2        25.0710   17.1140   -1.2600 C.ar   10  DA10        0.2016
    197  N3        26.2680   16.6820   -0.8700 N.ar   10  DA10       -0.2048
    198  C4        26.4850   16.9890    0.4200 C.ar   10  DA10        0.1691
    199  P         31.6560   19.8940    0.2200 P.3    11  DC11        0.2141
    200  OP1       33.0490   20.0660   -0.2540 O.2    11  DC11       -0.5172
    201  OP2       31.0720   20.9080    1.1540 O.3    11  DC11       -0.4373
    202  O5'       30.6840   19.8130   -1.0390 O.3    11  DC11       -0.3114
    203  C5'       31.1660   19.3570   -2.2920 C.3    11  DC11        0.1811
    204  C4'       30.2400   19.8020   -3.3860 C.3    11  DC11        0.1746
    205  O4'       28.9670   19.1080   -3.2570 O.3    11  DC11       -0.3327
    206  C3'       29.8580   21.2670   -3.3560 C.3    11  DC11        0.1558
    207  O3'       30.8780   22.1000   -3.8910 O.3    11  DC11       -0.3138
    208  C2'       28.5360   21.2730   -4.1240 C.3    11  DC11        0.0866
    209  C1'       27.9120   19.9520   -3.6680 C.3    11  DC11        0.2106
    210  N1        27.0240   20.1160   -2.5360 N.ar   11  DC11       -0.2556
    211  C2        25.6700   20.3740   -2.7790 C.ar   11  DC11        0.3531
    212  O2        25.2540   20.3340   -3.9500 O.2    11  DC11       -0.2443
    213  N3        24.8550   20.6590   -1.7350 N.ar   11  DC11       -0.1739
    214  C4        25.3460   20.6920   -0.4960 C.ar   11  DC11        0.1759
    215  N4        24.5060   20.9780    0.5020 N.pl3  11  DC11       -0.1070
    216  C5        26.7150   20.4340   -0.2290 C.ar   11  DC11        0.0566
    217  C6        27.5160   20.1520   -1.2620 C.ar   11  DC11        0.0849
    218  P         31.0120   23.6740   -3.3590 P.3    12  DC12        0.2141
    219  OP1       32.3640   24.2430   -3.5710 O.2    12  DC12       -0.5172
    220  OP2       30.3710   23.6890   -2.0240 O.3    12  DC12       -0.4373
    221  O5'       29.9490   24.4040   -4.3060 O.3    12  DC12       -0.3114
    222  C5'       30.1350   24.2550   -5.7030 C.3    12  DC12        0.1811
    223  C4'       28.8300   24.1820   -6.4490 C.3    12  DC12        0.1746
    224  O4'       27.9260   23.2210   -5.8370 O.3    12  DC12       -0.3327
    225  C3'       28.0110   25.4590   -6.4900 C.3    12  DC12        0.1558
    226  O3'       28.5210   26.4130   -7.4060 O.3    12  DC12       -0.3138
    227  C2'       26.6380   24.9290   -6.8770 C.3    12  DC12        0.0866
    228  C1'       26.5900   23.6000   -6.1170 C.3    12  DC12        0.2106
    229  N1        25.9120   23.6020   -4.8630 N.ar   12  DC12       -0.2556
    230  C2        24.5520   23.9270   -4.8180 C.ar   12  DC12        0.3531
    231  O2        23.9720   24.2200   -5.8780 O.2    12  DC12       -0.2443
    232  N3        23.9090   23.9130   -3.6260 N.ar   12  DC12       -0.1739
    233  C4        24.5730   23.5930   -2.5140 C.ar   12  DC12        0.1759
    234  N4        23.8980   23.5930   -1.3620 N.pl3  12  DC12       -0.1070
    235  C5        25.9510   23.2610   -2.5380 C.ar   12  DC12        0.0566
    236  C6        26.5820   23.2760   -3.7180 C.ar   12  DC12        0.0849
    237  P         28.0500   28.0260   -7.3420 P.3    13  DT13        0.2141
    238  OP1       28.5840   28.8250   -8.4750 O.2    13  DT13       -0.5172
    239  OP2       28.4000   28.3980   -5.9470 O.3    13  DT13       -0.4373
    240  O5'       26.4650   28.0400   -7.4690 O.3    13  DT13       -0.3114
    241  C5'       25.8390   27.6790   -8.6980 C.3    13  DT13        0.1811
    242  C4'       24.3440   27.6690   -8.5370 C.3    13  DT13        0.1746
    243  O4'       23.9690   26.7920   -7.4410 O.3    13  DT13       -0.3327
    244  C3'       23.7100   28.9910   -8.1650 C.3    13  DT13        0.1558
    245  O3'       23.5570   29.8200   -9.2950 O.3    13  DT13       -0.3138
    246  C2'       22.3840   28.5590   -7.5410 C.3    13  DT13        0.0866
    247  C1'       22.7930   27.2830   -6.8120 C.3    13  DT13        0.2106
    248  N1        23.0320   27.6430   -5.4870 N.ar   13  DT13       -0.2559
    249  C2        21.9900   27.8450   -4.6020 C.ar   13  DT13        0.3545
    250  O2        20.8240   27.8980   -4.9510 O.2    13  DT13       -0.2443
    251  N3        22.3630   27.9870   -3.2880 N.ar   13  DT13       -0.1533
    252  C4        23.6450   27.9460   -2.7800 C.ar   13  DT13        0.2804
    253  O4        23.8220   28.0890   -1.5730 O.2    13  DT13       -0.2654
    254  C5        24.6710   27.7330   -3.7610 C.ar   13  DT13        0.0534
    255  C6        24.3370   27.5930   -5.0460 C.ar   13  DT13        0.0824
    256  C7        26.1000   27.6740   -3.3070 C.3    13  DT13        0.0377
    257  P         23.5650   31.3220   -9.0520 P.3    14  DG14        0.2141
    258  OP1       23.6200   32.1260  -10.3080 O.2    14  DG14       -0.5172
    259  OP2       24.8020   31.1310   -8.2430 O.3    14  DG14       -0.4373
    260  O5'       22.4380   31.9330   -8.0920 O.3    14  DG14       -0.3114
    261  C5'       21.1550   32.3200   -8.6130 C.3    14  DG14        0.1811
    262  C4'       20.0650   32.2620   -7.5410 C.3    14  DG14        0.1746
    263  O4'       20.3310   31.1840   -6.5980 O.3    14  DG14       -0.3327
    264  C3'       19.8770   33.4490   -6.6080 C.3    14  DG14        0.1558
    265  O3'       19.1650   34.5270   -7.1770 O.3    14  DG14       -0.3138
    266  C2'       19.0700   32.8470   -5.4660 C.3    14  DG14        0.0865
    267  C1'       19.6910   31.4640   -5.3600 C.3    14  DG14        0.2094
    268  N9        20.6990   31.4190   -4.3720 N.ar   14  DG14       -0.2713
    269  C8        22.0570   31.3680   -4.5760 C.ar   14  DG14        0.1816
    270  N7        22.7460   31.4130   -3.4680 N.ar   14  DG14       -0.2173
    271  C5        21.7900   31.4960   -2.4730 C.ar   14  DG14        0.1748
    272  C6        21.9300   31.5750   -1.0630 C.ar   14  DG14        0.3023
    273  O6        22.9720   31.5860   -0.3960 O.2    14  DG14       -0.2633
    274  N1        20.6970   31.6470   -0.4210 N.ar   14  DG14       -0.1709
    275  C2        19.4790   31.6430   -1.0580 C.ar   14  DG14        0.2606
    276  N2        18.3990   31.7180   -0.2690 N.pl3  14  DG14       -0.0859
    277  N3        19.3340   31.5700   -2.3660 N.ar   14  DG14       -0.1918
    278  C4        20.5180   31.5010   -3.0110 C.ar   14  DG14        0.1722
    279  P         19.2380   36.0410   -6.4580 P.3    15  DC15        0.2141
    280  OP1       19.4870   36.4910   -7.8440 O.2    15  DC15       -0.5172
    281  OP2       20.2740   36.2390   -5.4220 O.3    15  DC15       -0.4373
    282  O5'       17.9580   36.8060   -5.8700 O.3    15  DC15       -0.3114
    283  C5'       16.9900   36.2280   -5.0000 C.3    15  DC15        0.1811
    284  C4'       17.0340   36.7960   -3.5960 C.3    15  DC15        0.1746
    285  O4'       17.3910   35.7550   -2.6460 O.3    15  DC15       -0.3327
    286  C3'       18.0350   37.9160   -3.3400 C.3    15  DC15        0.1558
    287  O3'       17.5280   39.1970   -3.6580 O.3    15  DC15       -0.3138
    288  C2'       18.3380   37.7950   -1.8560 C.3    15  DC15        0.0866
    289  C1'       18.1690   36.2940   -1.5960 C.3    15  DC15        0.2106
    290  N1        19.4140   35.5100   -1.4750 N.ar   15  DC15       -0.2556
    291  C2        20.0180   35.4710   -0.2130 C.ar   15  DC15        0.3531
    292  O2        19.3570   35.8280    0.7770 O.2    15  DC15       -0.2443
    293  N3        21.3010   35.0490   -0.1080 N.ar   15  DC15       -0.1739
    294  C4        21.9720   34.6760   -1.1990 C.ar   15  DC15        0.1759
    295  N4        23.2340   34.2670   -1.0470 N.pl3  15  DC15       -0.1070
    296  C5        21.3780   34.7080   -2.4870 C.ar   15  DC15        0.0566
    297  C6        20.1110   35.1260   -2.5860 C.ar   15  DC15        0.0849
    298  P         18.5600   40.5170   -3.7300 P.3    16  DT16        0.2141
    299  OP1       17.5940   41.5090   -4.2450 O.3    16  DT16       -0.4373
    300  OP2       19.7390   40.1240   -4.5310 O.2    16  DT16       -0.5172
    301  O5'       19.1830   41.0230   -2.3490 O.3    16  DT16       -0.3114
    302  C5'       18.3330   41.7150   -1.4500 C.3    16  DT16        0.1811
    303  C4'       18.7080   41.4780   -0.0100 C.3    16  DT16        0.1746
    304  O4'       18.9000   40.0600    0.2270 O.3    16  DT16       -0.3327
    305  C3'       20.0230   42.0780    0.4520 C.3    16  DT16        0.1558
    306  O3'       19.9680   43.4720    0.6710 O.3    16  DT16       -0.3138
    307  C2'       20.2920   41.2700    1.7120 C.3    16  DT16        0.0866
    308  C1'       19.8780   39.8830    1.2300 C.3    16  DT16        0.2106
    309  N1        21.0780   39.0710    0.6750 N.ar   16  DT16       -0.2559
    310  C2        21.9800   38.5270    1.5700 C.ar   16  DT16        0.3545
    311  O2        21.9200   38.7170    2.7710 O.2    16  DT16       -0.2443
    312  N3        22.9610   37.7480    1.0050 N.ar   16  DT16       -0.1533
    313  C4        23.1270   37.4650   -0.3350 C.ar   16  DT16        0.2804
    314  O4        24.0580   36.7470   -0.6900 O.2    16  DT16       -0.2654
    315  C5        22.1520   38.0670   -1.2000 C.ar   16  DT16        0.0534
    316  C6        21.1870   38.8290   -0.6770 C.ar   16  DT16        0.0824
    317  C7        22.2480   37.8190   -2.6760 C.3    16  DT16        0.0377
    318  P         21.1540   44.2120    0.2830 P.3    17  DC17        0.2141
    319  OP1       20.5980   45.5840    0.2920 O.3    17  DC17       -0.4373
    320  OP2       21.5800   43.5760   -0.9840 O.2    17  DC17       -0.5172
    321  O5'       22.4570   44.1570    1.2170 O.3    17  DC17       -0.3114
    322  C5'       22.4330   44.7110    2.5260 C.3    17  DC17        0.1811
    323  C4'       23.5550   44.1810    3.3870 C.3    17  DC17        0.1746
    324  O4'       23.5720   42.7330    3.3150 O.3    17  DC17       -0.3327
    325  C3'       24.9640   44.6040    2.9920 C.3    17  DC17        0.1558
    326  O3'       25.3220   45.8670    3.5310 O.3    17  DC17       -0.3138
    327  C2'       25.8280   43.4630    3.5180 C.3    17  DC17        0.0866
    328  C1'       24.9010   42.2570    3.3630 C.3    17  DC17        0.2106
    329  N1        25.0990   41.4030    2.1540 N.ar   17  DC17       -0.2556
    330  C2        26.0300   40.3630    2.2510 C.ar   17  DC17        0.3531
    331  O2        26.6120   40.1800    3.3330 O.2    17  DC17       -0.2443
    332  N3        26.2690   39.5890    1.1650 N.ar   17  DC17       -0.1739
    333  C4        25.6220   39.8240    0.0230 C.ar   17  DC17        0.1759
    334  N4        25.8900   39.0350   -1.0210 N.pl3  17  DC17       -0.1070
    335  C5        24.6750   40.8730   -0.0950 C.ar   17  DC17        0.0566
    336  C6        24.4410   41.6340    0.9790 C.ar   17  DC17        0.0849
    337  P         26.5660   46.7270    2.8710 P.3    18  DT18        0.2141
    338  OP1       25.8110   47.4120    3.9730 O.3    18  DT18       -0.4373
    339  OP2       27.4680   47.5210    1.9970 O.2    18  DT18       -0.5172
    340  O5'       27.4430   45.5260    3.4300 O.3    18  DT18       -0.3114
    341  C5'       28.2260   44.7210    2.5300 C.3    18  DT18        0.1811
    342  C4'       29.4860   44.2620    3.2240 C.3    18  DT18        0.1746
    343  O4'       30.1070   45.4350    3.8190 O.3    18  DT18       -0.3327
    344  C3'       29.2820   43.2710    4.3680 C.3    18  DT18        0.1558
    345  O3'       30.4570   42.4750    4.4670 O.3    18  DT18       -0.3138
    346  C2'       29.2260   44.1870    5.5850 C.3    18  DT18        0.0866
    347  C1'       30.2740   45.2270    5.2000 C.3    18  DT18        0.2106
    348  N1        30.4200   45.6070    6.2260 N.ar   18  DT18       -0.2559
    349  C2        31.3610   45.7070    7.2330 C.ar   18  DT18        0.3545
    350  O2        32.4470   45.1570    7.1850 O.2    18  DT18       -0.2443
    351  N3        30.9840   46.4770    8.3060 N.ar   18  DT18       -0.1533
    352  C4        29.7870   47.1420    8.4700 C.ar   18  DT18        0.2804
    353  O4        29.5930   47.7970    9.4910 O.2    18  DT18       -0.2654
    354  C5        28.8620   46.9890    7.3820 C.ar   18  DT18        0.0534
    355  C6        29.2040   46.2450    6.3260 C.ar   18  DT18        0.0824
    356  C7        27.5300   47.6740    7.4660 C.3    18  DT18        0.0377
    357  P         30.6150   40.5770    4.0880 P.3    19  DA19        0.2141
    358  OP1       32.0290   40.0760    4.1580 O.3    19  DA19       -0.4373
    359  OP2       29.6160   40.1370    3.0510 O.2    19  DA19       -0.5172
    360  O5'       29.8920   40.2780    5.4040 O.3    19  DA19       -0.3114
    361  C5'       30.8410   40.1330    6.5440 C.3    19  DA19        0.1811
    362  C4'       30.0500   40.0330    7.9910 C.3    19  DA19        0.1746
    363  O4'       28.9010   41.3090    8.0820 O.3    19  DA19       -0.3327
    364  C3'       29.3490   38.8480    8.0340 C.3    19  DA19        0.1558
    365  O3'       30.2610   37.9830    8.6920 O.3    19  DA19       -0.3138
    366  C2'       28.1590   39.3260    8.9030 C.3    19  DA19        0.0865
    367  C1'       27.7660   40.7750    8.5350 C.3    19  DA19        0.2094
    368  N9        26.8020   40.5160    7.5720 N.ar   19  DA19       -0.2714
    369  C8        26.9560   40.2060    6.2460 C.ar   19  DA19        0.1815
    370  N7        25.8260   40.1440    5.5830 N.ar   19  DA19       -0.2193
    371  C5        24.8640   40.4310    6.5380 C.ar   19  DA19        0.1518
    372  C6        23.4630   40.5230    6.4720 C.ar   19  DA19        0.1919
    373  N6        22.7610   40.3270    5.3530 N.pl3  19  DA19       -0.1054
    374  N1        22.8000   40.8270    7.6090 N.ar   19  DA19       -0.2040
    375  C2        23.5050   41.0240    8.7290 C.ar   19  DA19        0.2016
    376  N3        24.8210   40.9660    8.9160 N.ar   19  DA19       -0.2048
    377  C4        25.4500   40.6610    7.7680 C.ar   19  DA19        0.1691
    378  P         30.0470   36.5100    8.3800 P.3    20  DT20        0.2141
    379  OP1       31.0090   35.5920    9.0270 O.3    20  DT20       -0.4373
    380  OP2       30.2320   36.8820    6.9600 O.2    20  DT20       -0.5172
    381  O5'       28.5550   35.9470    8.5570 O.3    20  DT20       -0.3114
    382  C5'       27.9950   35.7340    9.8530 C.3    20  DT20        0.1812
    383  C4'       26.5540   36.2160    9.9660 C.3    20  DT20        0.1775
    384  O4'       26.3430   37.4190    9.1830 O.3    20  DT20       -0.3326
    385  C3'       25.4820   35.2660    9.4540 C.3    20  DT20        0.1863
    386  O3'       25.2210   34.2570   10.4160 O.3    20  DT20       -0.1271
    387  C2'       24.3100   36.2320    9.3170 C.3    20  DT20        0.0851
    388  C1'       25.0090   37.4330    8.7000 C.3    20  DT20        0.2106
    389  N1        25.0110   37.3560    7.2610 N.ar   20  DT20       -0.2559
    390  C2        23.8710   37.6130    6.5230 C.ar   20  DT20        0.3545
    391  O2        22.7840   37.8230    7.0320 O.2    20  DT20       -0.2443
    392  N3        24.0480   37.6140    5.1610 N.ar   20  DT20       -0.1533
    393  C4        25.2240   37.3890    4.4770 C.ar   20  DT20        0.2804
    394  O4        25.2260   37.4240    3.2490 O.2    20  DT20       -0.2654
    395  C5        26.3630   37.1290    5.3130 C.ar   20  DT20        0.0534
    396  C6        26.2190   37.1220    6.6410 C.ar   20  DT20        0.0824
    397  C7        27.6900   36.8710    4.6630 C.3    20  DT20        0.0377
    398  P         25.1670   32.9680    9.9400 P.3    21  DT21        0.5677
    399  OP1       24.1000   31.9300    9.8820 O.2    21  DT21       -0.2249
    400  OP2       26.4170   32.7780    9.1530 O.2    21  DT21       -0.2249
    401  O5'       24.5080   34.3530    9.5350 O.3    21  DT21       -0.2118
    402  C5'       23.4520   34.9020   10.3140 C.3    21  DT21        0.0392
    403  C4'       22.2060   35.0120    9.4790 C.3    21  DT21        0.1450
    404  O4'       22.5460   35.7650    8.2920 O.3    21  DT21       -0.3353
    405  C3'       21.6160   33.6890    8.9840 C.3    21  DT21        0.1532
    406  O3'       20.4530   33.2660    9.7150 O.3    21  DT21       -0.3139
    407  C2'       21.2920   33.9210    7.5080 C.3    21  DT21        0.0865
    408  C1'       21.6890   35.3710    7.2520 C.3    21  DT21        0.2105
    409  N1        22.3220   35.1400    6.1290 N.ar   21  DT21       -0.2559
    410  C2        21.8610   35.5310    4.8860 C.ar   21  DT21        0.3545
    411  O2        20.9680   36.3460    4.7340 O.2    21  DT21       -0.2443
    412  N3        22.4840   34.9290    3.8190 N.ar   21  DT21       -0.1533
    413  C4        23.4990   33.9970    3.8700 C.ar   21  DT21        0.2804
    414  O4        23.9600   33.5460    2.8240 O.2    21  DT21       -0.2654
    415  C5        23.9220   33.6420    5.1960 C.ar   21  DT21        0.0534
    416  C6        23.3330   34.2130    6.2510 C.ar   21  DT21        0.0824
    417  C7        25.0210   32.6340    5.3570 C.3    21  DT21        0.0377
    418  P         19.7350   31.9200    9.4190 P.3    22  DC22        0.2141
    419  OP1       18.7020   31.6900   10.4520 O.3    22  DC22       -0.4373
    420  OP2       20.6700   30.8310    9.0350 O.2    22  DC22       -0.5172
    421  O5'       18.9680   32.3770    8.1020 O.3    22  DC22       -0.3114
    422  C5'       17.5900   32.6960    8.1490 C.3    22  DC22        0.1811
    423  C4'       17.0620   32.6330    6.7360 C.3    22  DC22        0.1746
    424  O4'       17.9160   33.4490    5.8900 O.3    22  DC22       -0.3327
    425  C3'       17.1480   31.2610    6.0880 C.3    22  DC22        0.1558
    426  O3'       16.0880   30.4080    6.5230 O.3    22  DC22       -0.3138
    427  C2'       17.0270   31.6720    4.6200 C.3    22  DC22        0.0866
    428  C1'       17.9460   32.8900    4.5890 C.3    22  DC22        0.2106
    429  N1        19.2830   32.5710    4.2260 N.ar   22  DC22       -0.2556
    430  C2        19.6130   32.4350    2.8730 C.ar   22  DC22        0.3531
    431  O2        18.7280   32.6250    2.0200 O.2    22  DC22       -0.2443
    432  N3        20.8800   32.1010    2.5330 N.ar   22  DC22       -0.1739
    433  C4        21.7960   31.9060    3.4830 C.ar   22  DC22        0.1759
    434  N4        23.0330   31.5780    3.1000 N.pl3  22  DC22       -0.1070
    435  C5        21.4820   32.0390    4.8600 C.ar   22  DC22        0.0566
    436  C6        20.2290   32.3690    5.1910 C.ar   22  DC22        0.0849
    437  P         16.2840   28.7450    6.7810 P.3    23  DC23        0.2141
    438  OP1       15.1990   28.0840    7.5270 O.3    23  DC23       -0.4373
    439  OP2       17.6550   28.2100    6.8560 O.2    23  DC23       -0.5172
    440  O5'       15.9390   28.7230    5.2210 O.3    23  DC23       -0.3114
    441  C5'       14.5850   28.7200    4.8030 C.3    23  DC23        0.1811
    442  C4'       14.4650   29.1220    3.3570 C.3    23  DC23        0.1746
    443  O4'       15.5540   30.0160    3.0270 O.3    23  DC23       -0.3327
    444  C3'       14.6300   28.0190    2.3280 C.3    23  DC23        0.1558
    445  O3'       13.4980   27.1900    2.1810 O.3    23  DC23       -0.3138
    446  C2'       14.9890   28.8050    1.0760 C.3    23  DC23        0.0866
    447  C1'       15.9520   29.8070    1.6890 C.3    23  DC23        0.2106
    448  N1        17.3390   29.3940    1.5610 N.ar   23  DC23       -0.2556
    449  C2        18.0240   29.2200    0.3520 C.ar   23  DC23        0.3531
    450  O2        17.3710   29.1910   -0.7050 O.2    23  DC23       -0.2443
    451  N3        19.3720   29.0890    0.3710 N.ar   23  DC23       -0.1739
    452  C4        20.0300   29.1250    1.5300 C.ar   23  DC23        0.1759
    453  N4        21.3580   28.9910    1.4990 N.pl3  23  DC23       -0.1070
    454  C5        19.3550   29.3000    2.7650 C.ar   23  DC23        0.0566
    455  C6        18.0240   29.4300    2.7430 C.ar   23  DC23        0.0849
    456  P         13.6980   25.6610    2.6310 P.3    24  DT24        0.2141
    457  OP1       12.2480   25.4710    2.8900 O.2    24  DT24       -0.5172
    458  OP2       14.7370   24.9660    3.4240 O.3    24  DT24       -0.4373
    459  O5'       14.0590   25.2780    1.1310 O.3    24  DT24       -0.3114
    460  C5'       13.3760   26.0680    0.1780 C.3    24  DT24        0.1811
    461  C4'       14.0020   25.9680   -1.1840 C.3    24  DT24        0.1746
    462  O4'       15.1330   26.8710   -1.2760 O.3    24  DT24       -0.3327
    463  C3'       14.5810   24.6130   -1.5520 C.3    24  DT24        0.1558
    464  O3'       13.5810   23.6510   -1.8640 O.3    24  DT24       -0.3138
    465  C2'       15.4870   25.0100   -2.7090 C.3    24  DT24        0.0866
    466  C1'       16.0790   26.3150   -2.1590 C.3    24  DT24        0.2106
    467  N1        17.3420   26.1130   -1.3450 N.ar   24  DT24       -0.2559
    468  C2        18.5360   25.8710   -1.9970 C.ar   24  DT24        0.3545
    469  O2        18.6350   25.8400   -3.2110 O.2    24  DT24       -0.2443
    470  N3        19.6160   25.6630   -1.1740 N.ar   24  DT24       -0.1533
    471  C4        19.6220   25.6730    0.2050 C.ar   24  DT24        0.2804
    472  O4        20.6740   25.4710    0.8060 O.2    24  DT24       -0.2654
    473  C5        18.3450   25.9300    0.8080 C.ar   24  DT24        0.0534
    474  C6        17.2780   26.1350    0.0310 C.ar   24  DT24        0.0824
    475  C7        18.2480   25.9600    2.3050 C.3    24  DT24        0.0377
    476  P         13.8740   22.0230   -2.2280 P.3    25  DC25        0.2141
    477  OP1       12.6580   21.4840   -2.8720 O.2    25  DC25       -0.5172
    478  OP2       14.3690   21.4240   -0.9660 O.3    25  DC25       -0.4373
    479  O5'       15.0610   22.0180   -3.2970 O.3    25  DC25       -0.3114
    480  C5'       14.8850   22.7030   -4.5200 C.3    25  DC25        0.1811
    481  C4'       15.9970   22.3140   -5.4660 C.3    25  DC25        0.1746
    482  O4'       17.1590   23.1400   -5.2150 O.3    25  DC25       -0.3327
    483  C3'       16.4920   20.8900   -5.2680 C.3    25  DC25        0.1558
    484  O3'       15.6560   19.9670   -5.9580 O.3    25  DC25       -0.3138
    485  C2'       17.9030   20.9750   -5.8470 C.3    25  DC25        0.0866
    486  C1'       18.3340   22.3590   -5.3620 C.3    25  DC25        0.2106
    487  N1        19.0570   22.2860   -4.0880 N.ar   25  DC25       -0.2556
    488  C2        20.4400   22.0950   -4.1820 C.ar   25  DC25        0.3531
    489  O2        20.9880   22.2260   -5.2900 O.2    25  DC25       -0.2443
    490  N3        21.1390   21.7730   -3.0670 N.ar   25  DC25       -0.1739
    491  C4        20.5090   21.6420   -1.8990 C.ar   25  DC25        0.1759
    492  N4        21.2390   21.3240   -0.8280 N.pl3  25  DC25       -0.1070
    493  C5        19.1080   21.8320   -1.7830 C.ar   25  DC25        0.0566
    494  C6        18.4220   22.1490   -2.8860 C.ar   25  DC25        0.0849
    495  P         15.9300   18.3710   -5.9220 P.3    26  DT26        0.2141
    496  OP1       14.8490   17.8710   -6.8170 O.2    26  DT26       -0.5172
    497  OP2       15.7760   18.0660   -4.4950 O.3    26  DT26       -0.4373
    498  O5'       17.3530   17.8850   -6.4260 O.3    26  DT26       -0.3114
    499  C5'       17.8120   18.0470   -7.7740 C.3    26  DT26        0.1811
    500  C4'       19.3230   17.7920   -7.7870 C.3    26  DT26        0.1746
    501  O4'       20.0530   18.8490   -7.1010 O.3    26  DT26       -0.3327
    502  C3'       19.7370   16.5590   -6.9720 C.3    26  DT26        0.1558
    503  O3'       19.5120   15.4220   -7.7410 O.3    26  DT26       -0.3138
    504  C2'       21.2240   16.8550   -6.7800 C.3    26  DT26        0.0866
    505  C1'       21.1780   18.3390   -6.4290 C.3    26  DT26        0.2106
    506  N1        21.0840   18.6510   -4.9670 N.ar   26  DT26       -0.2559
    507  C2        22.1810   18.4210   -4.1590 C.ar   26  DT26        0.3545
    508  O2        23.2540   18.0350   -4.5890 O.2    26  DT26       -0.2443
    509  N3        21.9770   18.6580   -2.8210 N.ar   26  DT26       -0.1533
    510  C4        20.8130   19.0930   -2.2240 C.ar   26  DT26        0.2804
    511  O4        20.7830   19.2620   -1.0070 O.2    26  DT26       -0.2654
    512  C5        19.7190   19.3080   -3.1290 C.ar   26  DT26        0.0534
    513  C6        19.8900   19.0850   -4.4350 C.ar   26  DT26        0.0824
    514  C7        18.4080   19.7810   -2.5750 C.3    26  DT26        0.0377
    515  P         19.1040   13.9990   -7.2930 P.3    27  DG27        0.2141
    516  OP1       18.3320   13.2590   -8.3170 O.2    27  DG27       -0.5172
    517  OP2       18.8460   13.7940   -5.8500 O.3    27  DG27       -0.4373
    518  O5'       20.6580   13.6720   -7.4650 O.3    27  DG27       -0.3114
    519  C5'       21.1520   12.4280   -7.0090 C.3    27  DG27        0.1811
    520  C4'       22.5320   12.5610   -6.4250 C.3    27  DG27        0.1746
    521  O4'       22.6850   13.8500   -5.7780 O.3    27  DG27       -0.3327
    522  C3'       22.8420   11.5730   -5.3200 C.3    27  DG27        0.1558
    523  O3'       23.1500   10.2830   -5.8110 O.3    27  DG27       -0.3138
    524  C2'       23.9750   12.2680   -4.5840 C.3    27  DG27        0.0865
    525  C1'       23.4670   13.7050   -4.6100 C.3    27  DG27        0.2094
    526  N9        22.7010   14.1230   -3.3780 N.ar   27  DG27       -0.2713
    527  C8        21.4500   14.6890   -3.4110 C.ar   27  DG27        0.1816
    528  N7        21.0480   15.1200   -2.2460 N.ar   27  DG27       -0.2173
    529  C5        22.0940   14.8240   -1.3920 C.ar   27  DG27        0.1748
    530  C6        22.2410   15.0510    0.0010 C.ar   27  DG27        0.3023
    531  O6        21.4380   15.5810    0.7790 O.2    27  DG27       -0.2633
    532  N1        23.4660   14.5920    0.4770 N.ar   27  DG27       -0.1709
    533  C2        24.4310   13.9890   -0.2940 C.ar   27  DG27        0.2606
    534  N2        25.5480   13.6150    0.3440 N.pl3  27  DG27       -0.0859
    535  N3        24.3090   13.7710   -1.5890 N.ar   27  DG27       -0.1918
    536  C4        23.1260   14.2080   -2.0720 C.ar   27  DG27        0.1722
    537  P         22.2990    9.0590   -5.2790 P.3    28  DT28        0.2141
    538  OP1       22.7800    7.9530   -6.1550 O.2    28  DT28       -0.5172
    539  OP2       20.8960    9.0640   -4.7840 O.3    28  DT28       -0.4373
    540  O5'       23.2700    9.1500   -4.0260 O.3    28  DT28       -0.3114
    541  C5'       24.6730    8.8770   -4.1570 C.3    28  DT28        0.1811
    542  C4'       25.2340    8.4730   -2.8240 C.3    28  DT28        0.1746
    543  O4'       25.3420    9.6300   -1.9520 O.3    28  DT28       -0.3327
    544  C3'       24.3390    7.5240   -2.0520 C.3    28  DT28        0.1558
    545  O3'       24.4930    6.1880   -2.4670 O.3    28  DT28       -0.3138
    546  C2'       24.7850    7.7560   -0.6210 C.3    28  DT28        0.0866
    547  C1'       25.0090    9.2610   -0.6270 C.3    28  DT28        0.2106
    548  N1        23.8280    9.9410   -0.2570 N.ar   28  DT28       -0.2559
    549  C2        23.7070   10.4000    1.0410 C.ar   28  DT28        0.3545
    550  O2        24.5390   10.1820    1.9040 O.2    28  DT28       -0.2443
    551  N3        22.5690   11.1270    1.2960 N.ar   28  DT28       -0.1533
    552  C4        21.5630   11.4330    0.4040 C.ar   28  DT28        0.2804
    553  O4        20.6010   12.0980    0.7810 O.2    28  DT28       -0.2654
    554  C5        21.7620   10.9200   -0.9230 C.ar   28  DT28        0.0534
    555  C6        22.8590   10.2110   -1.1980 C.ar   28  DT28        0.0824
    556  C7        20.7220   11.1990   -1.9670 C.3    28  DT28        0.0377
    557  P         23.1730    5.0760   -2.2760 P.3    29  DT29        0.2141
    558  OP1       22.9370    3.8710   -3.1180 O.2    29  DT29       -0.5172
    559  OP2       22.0310    5.7200   -1.5720 O.3    29  DT29       -0.4373
    560  O5'       24.2520    4.6820   -1.1790 O.3    29  DT29       -0.3114
    561  C5'       23.8570    4.1310    0.0750 C.3    29  DT29        0.1811
    562  C4'       24.7580    4.6470    1.1570 C.3    29  DT29        0.1746
    563  O4'       24.8270    6.0890    1.0420 O.3    29  DT29       -0.3327
    564  C3'       24.2720    4.3760    2.5680 C.3    29  DT29        0.1558
    565  O3'       24.6920    3.1040    3.0190 O.3    29  DT29       -0.3138
    566  C2'       24.8750    5.5320    3.3570 C.3    29  DT29        0.0866
    567  C1'       24.8090    6.6740    2.3330 C.3    29  DT29        0.2106
    568  N1        23.4450    7.5970    2.5060 N.ar   29  DT29       -0.2559
    569  C2        23.4240    8.4680    3.5780 C.ar   29  DT29        0.3545
    570  O2        24.2400    8.4290    4.4820 O.2    29  DT29       -0.2443
    571  N3        22.4070    9.3920    3.5560 N.ar   29  DT29       -0.1533
    572  C4        21.4320    9.5280    2.5910 C.ar   29  DT29        0.2804
    573  O4        20.5830   10.4090    2.7090 O.2    29  DT29       -0.2654
    574  C5        21.5210    8.5870    1.5110 C.ar   29  DT29        0.0534
    575  C6        22.5000    7.6780    1.5070 C.ar   29  DT29        0.0824
    576  C7        20.5040    8.6540    0.4110 C.3    29  DT29        0.0377
    577  P         23.7580    2.2710    3.9000 P.3    30  DG30        0.2141
    578  OP1       24.3070    0.9200    4.1540 O.3    30  DG30       -0.4373
    579  OP2       22.3390    2.4640    3.5190 O.2    30  DG30       -0.5172
    580  O5'       23.9390    3.2040    5.1870 O.3    30  DG30       -0.3114
    581  C5'       25.2480    3.5100    5.6390 C.3    30  DG30        0.1811
    582  C4'       25.2280    4.5700    6.7080 C.3    30  DG30        0.1746
    583  O4'       25.0400    5.8840    6.1250 O.3    30  DG30       -0.3327
    584  C3'       24.1020    4.4650    7.7210 C.3    30  DG30        0.1558
    585  O3'       24.3460    3.4760    8.7030 O.3    30  DG30       -0.3138
    586  C2'       24.0390    5.8750    8.2920 C.3    30  DG30        0.0865
    587  C1'       24.4280    6.7270    7.0810 C.3    30  DG30        0.2094
    588  N9        23.3730    7.3570    6.5660 N.ar   30  DG30       -0.2713
    589  C8        22.5670    6.8700    5.5660 C.ar   30  DG30        0.1816
    590  N7        21.4410    7.5200    5.4490 N.ar   30  DG30       -0.2173
    591  C5        21.5060    8.4960    6.4250 C.ar   30  DG30        0.1748
    592  C6        20.5760    9.5060    6.7840 C.ar   30  DG30        0.3023
    593  O6        19.4690    9.7410    6.2830 O.2    30  DG30       -0.2633
    594  N1        21.0380   10.2880    7.8390 N.ar   30  DG30       -0.1709
    595  C2        22.2470   10.1190    8.4700 C.ar   30  DG30        0.2606
    596  N2        22.5180   10.9730    9.4660 N.pl3  30  DG30       -0.0859
    597  N3        23.1210    9.1850    8.1480 N.ar   30  DG30       -0.1918
    598  C4        22.6930    8.4130    7.1270 C.ar   30  DG30        0.1722
    599  P         23.2570    2.2460    8.9350 P.3    31  DA31        0.2141
    600  OP1       23.6730    0.9720    9.5670 O.3    31  DA31       -0.4373
    601  OP2       22.0690    2.2820    8.0510 O.2    31  DA31       -0.5172
    602  O5'       22.9390    3.3410   10.0630 O.3    31  DA31       -0.3114
    603  C5'       23.7650    3.4910   11.2120 C.3    31  DA31        0.1811
    604  C4'       23.3090    4.6280   12.1000 C.3    31  DA31        0.1746
    605  O4'       23.1950    5.8460   11.3210 O.3    31  DA31       -0.3327
    606  C3'       21.9470    4.4730   12.7640 C.3    31  DA31        0.1558
    607  O3'       21.9960    3.7100   13.9570 O.3    31  DA31       -0.3138
    608  C2'       21.5090    5.9120   13.0000 C.3    31  DA31        0.0865
    609  C1'       22.1320    6.6360   11.8080 C.3    31  DA31        0.2094
    610  N9        21.1160    6.8130   10.7220 N.ar   31  DA31       -0.2714
    611  C8        21.0070    6.0610    9.5820 C.ar   31  DA31        0.1815
    612  N7        20.0250    6.4310    8.7950 N.ar   31  DA31       -0.2193
    613  C5        19.4480    7.4990    9.4650 C.ar   31  DA31        0.1518
    614  C6        18.3600    8.3330    9.1560 C.ar   31  DA31        0.1919
    615  N6        17.6290    8.2140    8.0450 N.pl3  31  DA31       -0.1054
    616  N1        18.0440    9.3040   10.0390 N.ar   31  DA31       -0.2040
    617  C2        18.7770    9.4230   11.1520 C.ar   31  DA31        0.2016
    618  N3        19.8220    8.7020   11.5520 N.ar   31  DA31       -0.2048
    619  C4        20.1090    7.7450   10.6540 C.ar   31  DA31        0.1691
    620  P         20.6240    3.0560   14.5960 P.3    32  DA32        0.2141
    621  OP1       20.7670    2.2440   15.8320 O.3    32  DA32       -0.4373
    622  OP2       20.1530    2.3940   13.3490 O.2    32  DA32       -0.5172
    623  O5'       19.6240    4.2710   14.8970 O.3    32  DA32       -0.3114
    624  C5'       19.7030    5.0160   16.1180 C.3    32  DA32        0.1811
    625  C4'       18.9700    6.3470   15.9990 C.3    32  DA32        0.1746
    626  O4'       19.3530    6.9810   14.7440 O.3    32  DA32       -0.3327
    627  C3'       17.4410    6.3600   15.9570 C.3    32  DA32        0.1558
    628  O3'       16.7780    6.2650   17.2190 O.3    32  DA32       -0.3138
    629  C2'       17.1560    7.6950   15.2820 C.3    32  DA32        0.0865
    630  C1'       18.2640    7.7420   14.2310 C.3    32  DA32        0.2094
    631  N9        17.7660    7.0490   13.0330 N.ar   32  DA32       -0.2714
    632  C8        18.2000    5.8550   12.5190 C.ar   32  DA32        0.1815
    633  N7        17.6970    5.5730   11.3400 N.ar   32  DA32       -0.2193
    634  C5        16.8760    6.6550   11.0620 C.ar   32  DA32        0.1518
    635  C6        16.0580    6.9630    9.9610 C.ar   32  DA32        0.1919
    636  N6        15.9290    6.1740    8.8920 N.pl3  32  DA32       -0.1054
    637  N1        15.3690    8.1230    9.9980 N.ar   32  DA32       -0.2040
    638  C2        15.4990    8.9140   11.0690 C.ar   32  DA32        0.2016
    639  N3        16.2360    8.7330   12.1630 N.ar   32  DA32       -0.2048
    640  C4        16.9080    7.5710   12.0960 C.ar   32  DA32        0.1691
    641  P         15.3970    5.1880   17.4010 P.3    33  DG33        0.2141
    642  OP1       15.4670    5.0320   18.8760 O.3    33  DG33       -0.4373
    643  OP2       15.4880    4.0320   16.4820 O.2    33  DG33       -0.5172
    644  O5'       14.0390    5.8950   16.9710 O.3    33  DG33       -0.3114
    645  C5'       13.8930    7.1910   17.5170 C.3    33  DG33        0.1811
    646  C4'       12.8280    7.9800   16.8090 C.3    33  DG33        0.1746
    647  O4'       13.3710    8.5720   15.6010 O.3    33  DG33       -0.3327
    648  C3'       11.6260    7.1880   16.3230 C.3    33  DG33        0.1558
    649  O3'       10.7470    6.8150   17.3780 O.3    33  DG33       -0.3138
    650  C2'       11.0490    8.1660   15.3090 C.3    33  DG33        0.0865
    651  C1'       12.3400    8.6690   14.6470 C.3    33  DG33        0.2094
    652  N9        12.7500    7.7510   13.4480 N.ar   33  DG33       -0.2713
    653  C8        13.5990    6.6700   13.4430 C.ar   33  DG33        0.1816
    654  N7        13.6860    6.0890   12.2770 N.ar   33  DG33       -0.2173
    655  C5        12.8480    6.8270   11.4620 C.ar   33  DG33        0.1748
    656  C6        12.5280    6.6760   10.0880 C.ar   33  DG33        0.3023
    657  O6        12.9440    5.8240    9.2940 O.2    33  DG33       -0.2633
    658  N1        11.6280    7.6460    9.6540 N.ar   33  DG33       -0.1709
    659  C2        11.1020    8.6380   10.4450 C.ar   33  DG33        0.2606
    660  N2        10.2500    9.4820    9.8470 N.pl3  33  DG33       -0.0859
    661  N3        11.3890    8.7900   11.7230 N.ar   33  DG33       -0.1918
    662  C4        12.2600    7.8600   12.1670 C.ar   33  DG33        0.1722
    663  P          9.2540    6.0600   17.0730 P.3    34  DA34        0.2141
    664  OP1        8.5170    5.8170   18.3410 O.3    34  DA34       -0.4373
    665  OP2       10.1920    5.0370   16.5660 O.2    34  DA34       -0.5172
    666  O5'        8.2170    6.3160   15.9020 O.3    34  DA34       -0.3114
    667  C5'        7.3450    7.4490   15.9070 C.3    34  DA34        0.1811
    668  C4'        6.5960    7.5000   14.6020 C.3    34  DA34        0.1746
    669  O4'        7.5430    7.7590   13.5270 O.3    34  DA34       -0.3327
    670  C3'        5.9520    6.1760   14.2010 C.3    34  DA34        0.1558
    671  O3'        4.6850    5.9650   14.7960 O.3    34  DA34       -0.3138
    672  C2'        5.8440    6.3220   12.6960 C.3    34  DA34        0.0865
    673  C1'        7.1750    7.0120   12.3790 C.3    34  DA34        0.2094
    674  N9         8.2860    6.0630   12.0720 N.ar   34  DA34       -0.2714
    675  C8         9.1810    5.4300   12.8930 C.ar   34  DA34        0.1815
    676  N7         9.8580    4.4750   12.3010 N.ar   34  DA34       -0.2193
    677  C5         9.3740    4.4810   11.0030 C.ar   34  DA34        0.1518
    678  C6         9.6860    3.7040    9.8730 C.ar   34  DA34        0.1919
    679  N6        10.6010    2.7310    9.8750 N.pl3  34  DA34       -0.1054
    680  N1         9.0190    3.9640    8.7300 N.ar   34  DA34       -0.2040
    681  C2         8.1030    4.9400    8.7290 C.ar   34  DA34        0.2016
    682  N3         7.7230    5.7370    9.7240 N.ar   34  DA34       -0.2048
    683  C4         8.4040    5.4520   10.8470 C.ar   34  DA34        0.1691
    684  P          3.9630    4.3600   14.7660 P.3    35  DA35        0.2141
    685  OP1        2.8840    4.6210   15.7570 O.3    35  DA35       -0.4373
    686  OP2        5.1540    3.5700   15.1670 O.2    35  DA35       -0.5172
    687  O5'        3.3440    3.6310   13.4920 O.3    35  DA35       -0.3114
    688  C5'        2.1220    4.0910   12.9160 C.3    35  DA35        0.1811
    689  C4'        2.2740    4.2490   11.4310 C.3    35  DA35        0.1746
    690  O4'        3.6510    4.5850   11.1300 O.3    35  DA35       -0.3327
    691  C3'        1.9900    3.0320   10.5730 C.3    35  DA35        0.1558
    692  O3'        0.5910    2.9650   10.3250 O.3    35  DA35       -0.3138
    693  C2'        2.7790    3.3370    9.3020 C.3    35  DA35        0.0865
    694  C1'        3.9790    4.1050    9.8490 C.3    35  DA35        0.2094
    695  N9         5.2490    3.5270    9.9630 N.ar   35  DA35       -0.2714
    696  C8         5.8330    3.0830   11.1200 C.ar   35  DA35        0.1815
    697  N7         6.8950    2.3370   10.9240 N.ar   35  DA35       -0.2193
    698  C5         7.0150    2.2880    9.5440 C.ar   35  DA35        0.1518
    699  C6         7.9420    1.6560    8.6970 C.ar   35  DA35        0.1919
    700  N6         8.9670    0.9220    9.1390 N.pl3  35  DA35       -0.1054
    701  N1         7.7780    1.8050    7.3650 N.ar   35  DA35       -0.2040
    702  C2         6.7520    2.5420    6.9240 C.ar   35  DA35        0.2016
    703  N3         5.8170    3.1850    7.6200 N.ar   35  DA35       -0.2048
    704  C4         6.0080    3.0150    8.9390 C.ar   35  DA35        0.1691
    705  P         -0.0820    1.6180    9.6920 P.3    36  DC36        0.2141
    706  OP1       -1.4200    2.1510   10.0350 O.2    36  DC36       -0.5172
    707  OP2        0.4010    0.3500   10.2830 O.3    36  DC36       -0.4373
    708  O5'        0.0050    1.3720    8.1150 O.3    36  DC36       -0.3114
    709  C5'       -0.2230    2.4810    7.2580 C.3    36  DC36        0.1811
    710  C4'        0.8030    2.5760    6.1570 C.3    36  DC36        0.1746
    711  O4'        2.1450    2.6150    6.7080 O.3    36  DC36       -0.3327
    712  C3'        0.8370    1.4130    5.1790 C.3    36  DC36        0.1558
    713  O3'       -0.1810    1.5030    4.2000 O.3    36  DC36       -0.3138
    714  C2'        2.2470    1.4970    4.6060 C.3    36  DC36        0.0866
    715  C1'        3.0480    2.0020    5.8100 C.3    36  DC36        0.2106
    716  N1         3.8010    0.8930    6.4590 N.ar   36  DC36       -0.2556
    717  C2         5.0040    0.4770    5.8760 C.ar   36  DC36        0.3531
    718  O2         5.3480    0.9800    4.7920 O.2    36  DC36       -0.2443
    719  N3         5.7540   -0.4580    6.5060 N.ar   36  DC36       -0.1739
    720  C4         5.3450   -0.9700    7.6670 C.ar   36  DC36        0.1759
    721  N4         6.1170   -1.8890    8.2520 N.pl3  36  DC36       -0.1070
    722  C5         4.1290   -0.5620    8.2750 C.ar   36  DC36        0.0566
    723  C6         3.3910    0.3610    7.6490 C.ar   36  DC36        0.0849
    724  P         -0.4720    0.2120    3.2360 P.3    37  DC37        0.2141
    725  OP1       -1.3420    0.6570    2.1170 O.2    37  DC37       -0.5172
    726  OP2       -0.8590   -0.9740    4.0270 O.3    37  DC37       -0.4373
    727  O5'        0.9850   -0.0290    2.6480 O.3    37  DC37       -0.3114
    728  C5'        1.5360    0.8620    1.6680 C.3    37  DC37        0.1811
    729  C4'        2.6960    0.2070    0.9660 C.3    37  DC37        0.1746
    730  O4'        3.7580   -0.0240    1.9270 O.3    37  DC37       -0.3327
    731  C3'        2.4070   -1.1640    0.3860 C.3    37  DC37        0.1558
    732  O3'        1.8030   -1.0690   -0.8990 O.3    37  DC37       -0.3138
    733  C2'        3.7920   -1.7860    0.3490 C.3    37  DC37        0.0866
    734  C1'        4.3770   -1.2720    1.6660 C.3    37  DC37        0.2106
    735  N1         4.1330   -2.1920    2.8860 N.ar   37  DC37       -0.2556
    736  C2         4.7700   -3.4380    2.9230 C.ar   37  DC37        0.3531
    737  O2         5.4090   -3.8120    1.9250 O.2    37  DC37       -0.2443
    738  N3         4.6710   -4.1960    4.0410 N.ar   37  DC37       -0.1739
    739  C4         3.9730   -3.7540    5.0880 C.ar   37  DC37        0.1759
    740  N4         3.9030   -4.5360    6.1670 N.pl3  37  DC37       -0.1070
    741  C5         3.3200   -2.4950    5.0700 C.ar   37  DC37        0.0566
    742  C6         3.4210   -1.7490    3.9650 C.ar   37  DC37        0.0849
    743  P          0.6980   -2.1650   -1.3030 P.3    38  DA38        0.2141
    744  OP1        0.0780   -1.7700   -2.5880 O.2    38  DA38       -0.5172
    745  OP2       -0.1680   -2.3980   -0.1300 O.3    38  DA38       -0.4373
    746  O5'        1.4810   -3.5610   -1.4190 O.3    38  DA38       -0.3114
    747  C5'        2.6980   -3.6280   -2.1550 C.3    38  DA38        0.1811
    748  C4'        3.4660   -4.9140   -1.9410 C.3    38  DA38        0.1746
    749  O4'        4.0450   -4.9450   -0.6130 O.3    38  DA38       -0.3327
    750  C3'        2.6790   -6.2090   -2.0390 C.3    38  DA38        0.1558
    751  O3'        2.4940   -6.6450   -3.3750 O.3    38  DA38       -0.3138
    752  C2'        3.5470   -7.1590   -1.2350 C.3    38  DA38        0.0865
    753  C1'        4.0030   -6.2510   -0.0950 C.3    38  DA38        0.2094
    754  N9         3.0450   -6.2840    1.0620 N.ar   38  DA38       -0.2714
    755  C8         2.1500   -5.3140    1.4300 C.ar   38  DA38        0.1815
    756  N7         1.5370   -5.5610    2.5630 N.ar   38  DA38       -0.2193
    757  C5         2.0660   -6.7770    2.9670 C.ar   38  DA38        0.1518
    758  C6         1.8290   -7.5840    4.0940 C.ar   38  DA38        0.1919
    759  N6         0.9620   -7.2690    5.0600 N.pl3  38  DA38       -0.1054
    760  N1         2.5220   -8.7380    4.1950 N.ar   38  DA38       -0.2040
    761  C2         3.3920   -9.0520    3.2270 C.ar   38  DA38        0.2016
    762  N3         3.7000   -8.3760    2.1230 N.ar   38  DA38       -0.2048
    763  C4         2.9940   -7.2350    2.0520 C.ar   38  DA38        0.1691
    764  P          1.0920   -7.2510   -3.7390 P.3    39  DC39        0.2141
    765  OP1        0.1410   -6.6830   -4.6970 O.2    39  DC39       -0.5172
    766  OP2        0.6150   -7.6530   -2.4040 O.3    39  DC39       -0.4373
    767  O5'        1.7810   -8.5970   -4.2220 O.3    39  DC39       -0.3114
    768  C5'        3.1040   -8.8650   -3.7990 C.3    39  DC39        0.1811
    769  C4'        3.2560  -10.1790   -3.0760 C.3    39  DC39        0.1746
    770  O4'        3.6490   -9.9310   -1.7110 O.3    39  DC39       -0.3327
    771  C3'        2.0510  -11.0800   -2.9410 C.3    39  DC39        0.1558
    772  O3'        1.9260  -11.7960   -4.1290 O.3    39  DC39       -0.3138
    773  C2'        2.5160  -11.9780   -1.8020 C.3    39  DC39        0.0866
    774  C1'        3.1930  -10.9750   -0.8730 C.3    39  DC39        0.2106
    775  N1         2.3190  -10.3740    0.1010 N.ar   39  DC39       -0.2556
    776  C2         2.1300  -11.0970    1.2850 C.ar   39  DC39        0.3531
    777  O2         2.8180  -12.1130    1.4810 O.2    39  DC39       -0.2443
    778  N3         1.2070  -10.6690    2.1790 N.ar   39  DC39       -0.1739
    779  C4         0.4910   -9.5730    1.9260 C.ar   39  DC39        0.1759
    780  N4        -0.4070   -9.1890    2.8360 N.pl3  39  DC39       -0.1070
    781  C5         0.6670   -8.8270    0.7320 C.ar   39  DC39        0.0566
    782  C6         1.5800   -9.2530   -0.1480 C.ar   39  DC39        0.0849
    783  P          0.7950  -12.9430   -4.2300 P.3    40  DT40        0.2141
    784  OP1        0.6070  -13.4130   -5.6190 O.2    40  DT40       -0.5172
    785  OP2        0.2130  -11.6500   -3.8100 O.3    40  DT40       -0.4373
    786  O5'        0.2950  -14.0700   -3.2020 O.3    40  DT40       -0.3114
    787  C5'        0.8780  -15.3740   -3.1960 C.3    40  DT40        0.1811
    788  C4'        1.1500  -15.8990   -1.7920 C.3    40  DT40        0.1746
    789  O4'        1.5620  -14.8270   -0.9050 O.3    40  DT40       -0.3327
    790  C3'       -0.0290  -16.5290   -1.0660 C.3    40  DT40        0.1558
    791  O3'       -0.2340  -17.8560   -1.5240 O.3    40  DT40       -0.3138
    792  C2'        0.4900  -16.5000    0.3680 C.3    40  DT40        0.0866
    793  C1'        1.1120  -15.1130    0.4100 C.3    40  DT40        0.2106
    794  N1         0.1290  -14.0040    0.8060 N.ar   40  DT40       -0.2559
    795  C2        -0.1690  -13.8730    2.1490 C.ar   40  DT40        0.3545
    796  O2         0.2530  -14.6350    3.0010 O.2    40  DT40       -0.2443
    797  N3        -0.9860  -12.8140    2.4630 N.ar   40  DT40       -0.1533
    798  C4        -1.5220  -11.8920    1.5880 C.ar   40  DT40        0.2804
    799  O4        -2.2390  -10.9930    2.0200 O.2    40  DT40       -0.2654
    800  C5        -1.1670  -12.0960    0.2110 C.ar   40  DT40        0.0534
    801  C6        -0.3740  -13.1180   -0.1210 C.ar   40  DT40        0.0824
    802  C7        -1.7010  -11.1460   -0.8190 C.3    40  DT40        0.0377
    803  P         -1.7860  -18.3870   -1.8230 P.3    41  DT41        0.2141
    804  OP1       -1.6340  -19.7590   -2.3510 O.2    41  DT41       -0.5172
    805  OP2       -2.9780  -17.5970   -2.2100 O.3    41  DT41       -0.4373
    806  O5'       -1.7360  -18.4910   -0.2320 O.3    41  DT41       -0.3114
    807  C5'       -0.8090  -19.3560    0.4030 C.3    41  DT41        0.1811
    808  C4'       -0.9770  -19.3500    1.9110 C.3    41  DT41        0.1746
    809  O4'       -0.7610  -18.0290    2.4690 O.3    41  DT41       -0.3327
    810  C3'       -2.3510  -19.7560    2.4070 C.3    41  DT41        0.1558
    811  O3'       -2.4160  -21.1620    2.4640 O.3    41  DT41       -0.3138
    812  C2'       -2.3690  -19.1490    3.8020 C.3    41  DT41        0.0866
    813  C1'       -1.5700  -17.8600    3.6190 C.3    41  DT41        0.2106
    814  N1        -2.4220  -16.6410    3.5610 N.ar   41  DT41       -0.2559
    815  C2        -2.9330  -16.1090    4.7300 C.ar   41  DT41        0.3545
    816  O2        -2.6870  -16.5670    5.8310 O.2    41  DT41       -0.2443
    817  N3        -3.7470  -15.0150    4.5630 N.ar   41  DT41       -0.1533
    818  C4        -4.0940  -14.4130    3.3710 C.ar   41  DT41        0.2804
    819  O4        -4.8350  -13.4330    3.3820 O.2    41  DT41       -0.2654
    820  C5        -3.5250  -15.0240    2.2030 C.ar   41  DT41        0.0534
    821  C6        -2.7300  -16.0890    2.3370 C.ar   41  DT41        0.0824
    822  C7        -3.8440  -14.4420    0.8580 C.3    41  DT41        0.0377
    823  P         -3.6270  -21.7370    2.3330 P.3    42  DC42        0.2141
    824  OP1       -3.6200  -23.2030    2.1120 O.3    42  DC42       -0.4373
    825  OP2       -4.2320  -20.7740    1.3840 O.2    42  DC42       -0.5172
    826  O5'       -4.3550  -21.4720    3.7270 O.3    42  DC42       -0.3114
    827  C5'       -3.8810  -22.0540    4.9170 C.3    42  DC42        0.1811
    828  C4'       -4.6490  -21.4790    6.0890 C.3    42  DC42        0.1746
    829  O4'       -4.2220  -20.1230    6.3710 O.3    42  DC42       -0.3327
    830  C3'       -6.1380  -21.3240    5.8510 C.3    42  DC42        0.1558
    831  O3'       -6.7990  -22.5480    6.0050 O.3    42  DC42       -0.3138
    832  C2'       -6.4980  -20.3230    6.9310 C.3    42  DC42        0.0866
    833  C1'       -5.3360  -19.3450    6.7810 C.3    42  DC42        0.2106
    834  N1        -5.6360  -18.3420    5.8380 N.ar   42  DC42       -0.2556
    835  C2        -6.1910  -17.1190    6.2320 C.ar   42  DC42        0.3531
    836  O2        -6.4470  -16.9390    7.4350 O.2    42  DC42       -0.2443
    837  N3        -6.4340  -16.1720    5.2950 N.ar   42  DC42       -0.1739
    838  C4        -6.1430  -16.4100    4.0150 C.ar   42  DC42        0.1759
    839  N4        -6.4000  -15.4470    3.1270 N.pl3  42  DC42       -0.1070
    840  C5        -5.5800  -17.6420    3.5950 C.ar   42  DC42        0.0566
    841  C6        -5.3420  -18.5750    4.5240 C.ar   42  DC42        0.0849
    842  P         -7.8920  -22.9050    4.9360 P.3    43  DC43        0.2141
    843  OP1       -8.0780  -24.3740    4.8830 O.3    43  DC43       -0.4373
    844  OP2       -7.5660  -22.1480    3.7060 O.2    43  DC43       -0.5172
    845  O5'       -9.1960  -22.1710    5.5040 O.3    43  DC43       -0.3114
    846  C5'       -9.6740  -22.6020    6.7690 C.3    43  DC43        0.1811
    847  C4'      -10.0950  -21.4570    7.6530 C.3    43  DC43        0.1746
    848  O4'       -9.2330  -20.3090    7.4410 O.3    43  DC43       -0.3327
    849  C3'      -11.4820  -20.8930    7.4020 C.3    43  DC43        0.1558
    850  O3'      -12.5290  -21.7030    7.9030 O.3    43  DC43       -0.3138
    851  C2'      -11.3860  -19.5350    8.0780 C.3    43  DC43        0.0866
    852  C1'       -9.9760  -19.1230    7.6550 C.3    43  DC43        0.2106
    853  N1       -10.0780  -18.3090    6.3840 N.ar   43  DC43       -0.2556
    854  C2       -10.4620  -16.9630    6.3960 C.ar   43  DC43        0.3531
    855  O2       -10.9700  -16.4960    7.4300 O.2    43  DC43       -0.2443
    856  N3       -10.2710  -16.2130    5.2850 N.ar   43  DC43       -0.1739
    857  C4        -9.7230  -16.7580    4.1980 C.ar   43  DC43        0.1759
    858  N4        -9.5530  -15.9790    3.1270 N.pl3  43  DC43       -0.1070
    859  C5        -9.3270  -18.1190    4.1650 C.ar   43  DC43        0.0566
    860  C6        -9.5180  -18.8570    5.2650 C.ar   43  DC43        0.0849
    861  P        -13.7140  -22.0000    6.9820 P.3    44  DG44        0.2141
    862  OP1      -14.6690  -22.9420    7.6150 O.3    44  DG44       -0.4373
    863  OP2      -13.3490  -22.1370    5.5520 O.2    44  DG44       -0.5172
    864  O5'      -14.2790  -20.5010    7.0800 O.3    44  DG44       -0.3114
    865  C5'      -14.9260  -20.0190    8.2520 C.3    44  DG44        0.1811
    866  C4'      -15.2130  -18.5350    8.1860 C.3    44  DG44        0.1746
    867  O4'      -14.0290  -17.8260    7.7360 O.3    44  DG44       -0.3327
    868  C3'      -16.2940  -18.0830    7.2110 C.3    44  DG44        0.1558
    869  O3'      -17.6140  -18.2500    7.6930 O.3    44  DG44       -0.3138
    870  C2'      -15.9330  -16.6250    6.9740 C.3    44  DG44        0.0865
    871  C1'      -14.4060  -16.7000    6.9670 C.3    44  DG44        0.2094
    872  N9       -13.9290  -16.8190    5.5610 N.ar   44  DG44       -0.2713
    873  C8       -13.1940  -17.8790    5.0900 C.ar   44  DG44        0.1816
    874  N7       -12.7320  -17.6910    3.8840 N.ar   44  DG44       -0.2173
    875  C5       -13.1860  -16.4320    3.5350 C.ar   44  DG44        0.1748
    876  C6       -13.0070  -15.6830    2.3440 C.ar   44  DG44        0.3023
    877  O6       -12.3840  -16.0040    1.3240 O.2    44  DG44       -0.2633
    878  N1       -13.6410  -14.4460    2.4070 N.ar   44  DG44       -0.1709
    879  C2       -14.3580  -13.9860    3.4850 C.ar   44  DG44        0.2606
    880  N2       -14.8960  -12.7650    3.3600 N.pl3  44  DG44       -0.0859
    881  N3       -14.5340  -14.6700    4.5980 N.ar   44  DG44       -0.1918
    882  C4       -13.9280  -15.8760    4.5590 C.ar   44  DG44        0.1722
    883  P        -18.5680  -18.7580    6.8000 P.3    45  DG45        0.2141
    884  OP1      -19.4200  -19.0810    7.9650 O.3    45  DG45       -0.4373
    885  OP2      -18.4900  -19.7040    5.6650 O.2    45  DG45       -0.5172
    886  O5'      -19.0620  -17.3800    6.1430 O.3    45  DG45       -0.3114
    887  C5'      -19.4000  -16.2690    6.9650 C.3    45  DG45        0.1811
    888  C4'      -19.4420  -14.9590    6.2100 C.3    45  DG45        0.1746
    889  O4'      -18.1190  -14.6120    5.7200 O.3    45  DG45       -0.3327
    890  C3'      -20.2960  -14.9120    4.9530 C.3    45  DG45        0.1558
    891  O3'      -21.6840  -14.8120    5.1930 O.3    45  DG45       -0.3138
    892  C2'      -19.7150  -13.7050    4.2330 C.3    45  DG45        0.0865
    893  C1'      -18.2320  -13.9710    4.4660 C.3    45  DG45        0.2094
    894  N9       -17.6870  -14.9230    3.3740 N.ar   45  DG45       -0.2713
    895  C8       -17.3790  -16.2520    3.5370 C.ar   45  DG45        0.1816
    896  N7       -16.8040  -16.7800    2.4910 N.ar   45  DG45       -0.2173
    897  C5       -16.7240  -15.7410    1.5830 C.ar   45  DG45        0.1748
    898  C6       -16.1980  -15.7040    0.2660 C.ar   45  DG45        0.3023
    899  O6       -15.6790  -16.6250   -0.3780 O.2    45  DG45       -0.2633
    900  N1       -16.3180  -14.4410   -0.3080 N.ar   45  DG45       -0.1709
    901  C2       -16.8760  -13.3480    0.3110 C.ar   45  DG45        0.2606
    902  N2       -16.9020  -12.2140   -0.4020 N.pl3  45  DG45       -0.0859
    903  N3       -17.3690  -13.3670    1.5340 N.ar   45  DG45       -0.1918
    904  C4       -17.2640  -14.5830    2.1100 C.ar   45  DG45        0.1722
    905  P        -22.5120  -15.5770    4.2580 P.3    46  DA46        0.2141
    906  OP1      -23.5230  -16.1490    5.1020 O.3    46  DA46       -0.4373
    907  OP2      -21.7460  -16.4690    3.3670 O.2    46  DA46       -0.5172
    908  O5'      -23.1600  -14.4500    3.3490 O.3    46  DA46       -0.3114
    909  C5'      -23.8330  -14.8380    2.1750 C.3    46  DA46        0.1811
    910  C4'      -23.7370  -13.7800    1.1180 C.3    46  DA46        0.1746
    911  O4'      -22.3330  -13.4200    0.8250 O.3    46  DA46       -0.3327
    912  C3'      -24.3260  -14.3360   -0.1710 C.3    46  DA46        0.1558
    913  O3'      -25.7160  -13.9320   -0.2050 O.3    46  DA46       -0.3138
    914  C2'      -23.4870  -13.6300   -1.2280 C.3    46  DA46        0.0865
    915  C1'      -22.0970  -13.5700   -0.5570 C.3    46  DA46        0.2094
    916  N9       -20.9420  -14.6500   -0.5210 N.ar   46  DA46       -0.2714
    917  C8       -20.6540  -15.6950    0.3180 C.ar   46  DA46        0.1815
    918  N7       -19.8010  -16.5560   -0.1840 N.ar   46  DA46       -0.2193
    919  C5       -19.5100  -16.0430   -1.4380 C.ar   46  DA46        0.1518
    920  C6       -18.6680  -16.4910   -2.4710 C.ar   46  DA46        0.1919
    921  N6       -17.9350  -17.6040   -2.3970 N.pl3  46  DA46       -0.1054
    922  N1       -18.6050  -15.7460   -3.5950 N.ar   46  DA46       -0.2040
    923  C2       -19.3390  -14.6300   -3.6670 C.ar   46  DA46        0.2016
    924  N3       -20.1650  -14.1060   -2.7640 N.ar   46  DA46       -0.2048
    925  C4       -20.2060  -14.8700   -1.6600 C.ar   46  DA46        0.1691
    926  P        -26.7490  -14.9020   -0.6790 P.3    47  DA47        0.2141
    927  OP1      -28.2070  -15.0310   -0.4260 O.3    47  DA47       -0.4373
    928  OP2      -26.0130  -16.0260   -1.3000 O.2    47  DA47       -0.5172
    929  O5'      -26.4520  -13.6150   -1.5580 O.3    47  DA47       -0.3114
    930  C5'      -26.8630  -13.6020   -2.8880 C.3    47  DA47        0.1811
    931  C4'      -25.7620  -13.1320   -3.7910 C.3    47  DA47        0.1746
    932  O4'      -24.4180  -13.4650   -3.3280 O.3    47  DA47       -0.3327
    933  C3'      -25.8430  -13.8410   -5.1180 C.3    47  DA47        0.1558
    934  O3'      -26.9710  -13.4580   -5.8640 O.3    47  DA47       -0.3138
    935  C2'      -24.4650  -13.5960   -5.7100 C.3    47  DA47        0.0865
    936  C1'      -23.5820  -13.7270   -4.4630 C.3    47  DA47        0.2094
    937  N9       -23.0140  -15.0060   -4.4480 N.ar   47  DA47       -0.2714
    938  C8       -23.4610  -16.0770   -3.7180 C.ar   47  DA47        0.1815
    939  N7       -22.6430  -17.1030   -3.7300 N.ar   47  DA47       -0.2193
    940  C5       -21.5890  -16.6780   -4.5230 C.ar   47  DA47        0.1518
    941  C6       -20.3970  -17.3050   -4.9270 C.ar   47  DA47        0.1919
    942  N6       -20.0560  -18.5450   -4.5700 N.pl3  47  DA47       -0.1054
    943  N1       -19.5580  -16.6040   -5.7200 N.ar   47  DA47       -0.2040
    944  C2       -19.9010  -15.3610   -6.0760 C.ar   47  DA47        0.2016
    945  N3       -20.9910  -14.6650   -5.7600 N.ar   47  DA47       -0.2048
    946  C4       -21.8040  -15.3890   -4.9730 C.ar   47  DA47        0.1691
    947  P        -27.8880  -14.6550   -6.4570 P.3    48  DA48        0.2141
    948  OP1      -29.3180  -14.2460   -6.5370 O.2    48  DA48       -0.5172
    949  OP2      -27.4160  -15.9630   -5.9400 O.3    48  DA48       -0.4373
    950  O5'      -27.2880  -14.4630   -7.9220 O.3    48  DA48       -0.3114
    951  C5'      -26.9100  -13.1620   -8.2600 C.3    48  DA48        0.1811
    952  C4'      -25.8450  -13.3060   -9.3170 C.3    48  DA48        0.1744
    953  O4'      -24.8810  -14.0420   -8.6000 O.3    48  DA48       -0.3349
    954  C3'      -25.9680  -14.2790  -10.4560 C.3    48  DA48        0.1555
    955  O3'      -26.7050  -13.7630  -11.4930 O.3    48  DA48       -0.3139
    956  C2'      -24.5060  -14.5900  -10.8360 C.3    48  DA48        0.0835
    957  C1'      -23.9250  -14.5650   -9.4770 C.3    48  DA48        0.1974
    958  N9       -23.6750  -15.8140   -8.8850 N.pl3  48  DA48       -0.2458
    959  C8       -24.3700  -16.3050   -7.8110 C.2    48  DA48        0.1669
    960  N7       -23.9760  -17.4960   -7.4250 N.2    48  DA48       -0.2209
    961  C5       -22.9530  -17.8080   -8.3060 C.2    48  DA48        0.1887
    962  C6       -22.1220  -18.9350   -8.4290 C.2    48  DA48        0.4115
    963  N6       -22.1960  -19.9990   -7.6270 N.pl3  48  DA48        0.2140
    964  N1       -21.2020  -18.9300   -9.4170 N.pl3  48  DA48       -0.0204
    965  C2       -21.1280  -17.8630  -10.2200 C.2    48  DA48        0.3068
    966  N3       -21.8520  -16.7460  -10.2030 N.2    48  DA48       -0.2039
    967  C4       -22.7570  -16.7820   -9.2120 C.3    48  DA48        0.2331
    968  P        -27.6510  -14.7770  -11.9630 P.3    49  DT49        0.2141
    969  OP1      -28.2950  -14.0320  -13.0750 O.2    49  DT49       -0.5172
    970  OP2      -28.4940  -15.4380  -10.9350 O.3    49  DT49       -0.4373
    971  O5'      -26.6720  -15.8660  -12.5880 O.3    49  DT49       -0.3114
    972  C5'      -25.7390  -15.5120  -13.6230 C.3    49  DT49        0.1811
    973  C4'      -24.8400  -16.6830  -13.9390 C.3    49  DT49        0.1746
    974  O4'      -24.0580  -17.0170  -12.7640 O.3    49  DT49       -0.3327
    975  C3'      -25.5420  -17.9860  -14.2840 C.3    49  DT49        0.1558
    976  O3'      -25.9660  -18.0270  -15.6440 O.3    49  DT49       -0.3138
    977  C2'      -24.4620  -19.0160  -13.9840 C.3    49  DT49        0.0866
    978  C1'      -23.8100  -18.4130  -12.7410 C.3    49  DT49        0.2106
    979  N1       -24.3360  -18.9680  -11.5290 N.ar   49  DT49       -0.2559
    980  C2       -23.9810  -20.2670  -11.2180 C.ar   49  DT49        0.3545
    981  O2       -23.2220  -20.9300  -11.9020 O.2    49  DT49       -0.2443
    982  N3       -24.5500  -20.7650  -10.0710 N.ar   49  DT49       -0.1533
    983  C4       -25.4190  -20.1100   -9.2240 C.ar   49  DT49        0.2804
    984  O4       -25.8470  -20.6910   -8.2290 O.2    49  DT49       -0.2654
    985  C5       -25.7390  -18.7660   -9.6150 C.ar   49  DT49        0.0534
    986  C6       -25.2000  -18.2570  -10.7260 C.ar   49  DT49        0.0824
    987  C7       -26.6770  -17.9690   -8.7570 C.3    49  DT49        0.0377
    988  P        -27.1870  -19.0730  -16.1250 P.3    50  DA50        0.2141
    989  OP1      -27.7020  -19.3860  -17.4780 O.2    50  DA50       -0.5172
    990  OP2      -28.0560  -19.3040  -14.9320 O.3    50  DA50       -0.4373
    991  O5'      -25.8290  -19.8690  -15.8680 O.3    50  DA50       -0.3114
    992  C5'      -24.8300  -20.0140  -16.8900 C.3    50  DA50        0.1811
    993  C4'      -24.1370  -21.3550  -16.7550 C.3    50  DA50        0.1746
    994  O4'      -23.5410  -21.4730  -15.4310 O.3    50  DA50       -0.3327
    995  C3'      -25.0270  -22.5850  -16.8740 C.3    50  DA50        0.1558
    996  O3'      -25.2010  -22.9530  -18.2290 O.3    50  DA50       -0.3138
    997  C2'      -24.2050  -23.6290  -16.1400 C.3    50  DA50        0.0865
    998  C1'      -23.6690  -22.8070  -14.9690 C.3    50  DA50        0.2094
    999  N9       -24.7530  -22.9150  -13.8610 N.ar   50  DA50       -0.2714
   1000  C8       -25.6380  -21.9570  -13.4400 C.ar   50  DA50        0.1815
   1001  N7       -26.3730  -22.3290  -12.4180 N.ar   50  DA50       -0.2193
   1002  C5       -25.9420  -23.6190  -12.1510 C.ar   50  DA50        0.1518
   1003  C6       -26.3270  -24.5640  -11.1840 C.ar   50  DA50        0.1919
   1004  N6       -27.2730  -24.3410  -10.2680 N.pl3  50  DA50       -0.1054
   1005  N1       -25.6980  -25.7590  -11.1900 N.ar   50  DA50       -0.2040
   1006  C2       -24.7500  -25.9800  -12.1070 C.ar   50  DA50        0.2016
   1007  N3       -24.3010  -25.1720  -13.0650 N.ar   50  DA50       -0.2048
   1008  C4       -24.9460  -23.9940  -13.0320 C.ar   50  DA50        0.1691
   1009  P        -26.6000  -23.0640  -18.8110 P.3    51  DA51        0.2141
   1010  OP1      -26.6040  -22.7400  -20.2630 O.2    51  DA51       -0.5172
   1011  OP2      -27.8880  -23.1270  -18.0630 O.3    51  DA51       -0.4373
   1012  O5'      -25.8520  -24.4420  -18.5660 O.3    51  DA51       -0.3114
   1013  C5'      -26.5780  -25.6390  -18.6440 C.3    51  DA51        0.1811
   1014  C4'      -26.0630  -26.6500  -17.6610 C.3    51  DA51        0.1746
   1015  O4'      -25.9000  -26.0770  -16.3340 O.3    51  DA51       -0.3327
   1016  C3'      -27.1170  -27.7130  -17.4670 C.3    51  DA51        0.1558
   1017  O3'      -27.2190  -28.6130  -18.5500 O.3    51  DA51       -0.3138
   1018  C2'      -26.8370  -28.2570  -16.0740 C.3    51  DA51        0.0865
   1019  C1'      -26.4010  -26.9830  -15.3470 C.3    51  DA51        0.2094
   1020  N9       -27.6010  -26.3760  -14.7610 N.ar   51  DA51       -0.2714
   1021  C8       -27.9170  -25.1020  -15.1540 C.ar   51  DA51        0.1815
   1022  N7       -28.6860  -24.4620  -14.3040 N.ar   51  DA51       -0.2193
   1023  C5       -28.8890  -25.3790  -13.2860 C.ar   51  DA51        0.1518
   1024  C6       -29.6180  -25.3130  -12.0850 C.ar   51  DA51        0.1919
   1025  N6       -30.3040  -24.2360  -11.6950 N.pl3  51  DA51       -0.1054
   1026  N1       -29.6170  -26.4050  -11.2910 N.ar   51  DA51       -0.2040
   1027  C2       -28.9290  -27.4830  -11.6820 C.ar   51  DA51        0.2016
   1028  N3       -28.2070  -27.6650  -12.7850 N.ar   51  DA51       -0.2048
   1029  C4       -28.2280  -26.5630  -13.5530 C.ar   51  DA51        0.1691
   1030  P        -28.5230  -28.8630  -19.1170 P.3    52  DG52        0.2141
   1031  OP1      -28.5050  -29.7710  -20.2900 O.2    52  DG52       -0.5172
   1032  OP2      -29.1700  -27.5340  -19.2310 O.3    52  DG52       -0.4373
   1033  O5'      -29.2010  -29.6200  -17.8880 O.3    52  DG52       -0.3114
   1034  C5'      -28.7850  -30.9460  -17.5340 C.3    52  DG52        0.1811
   1035  C4'      -29.3740  -31.3630  -16.2050 C.3    52  DG52        0.1746
   1036  O4'      -28.9950  -30.4030  -15.1800 O.3    52  DG52       -0.3327
   1037  C3'      -30.8890  -31.4170  -16.0660 C.3    52  DG52        0.1558
   1038  O3'      -31.4760  -32.5870  -16.6350 O.3    52  DG52       -0.3138
   1039  C2'      -31.0340  -31.4360  -14.5520 C.3    52  DG52        0.0865
   1040  C1'      -29.9690  -30.4160  -14.1430 C.3    52  DG52        0.2093
   1041  N9       -30.5460  -29.0780  -14.0000 N.ar   52  DG52       -0.2736
   1042  C8       -30.4340  -28.0120  -14.8590 C.ar   52  DG52        0.1814
   1043  N7       -31.1070  -26.9630  -14.4690 N.ar   52  DG52       -0.2178
   1044  C5       -31.6970  -27.3560  -13.2820 C.ar   52  DG52        0.1693
   1045  C6       -32.5480  -26.6480  -12.3950 C.2    52  DG52        0.2892
   1046  O6       -32.9590  -25.4850  -12.4930 O.2    52  DG52       -0.2665
   1047  N1       -32.9240  -27.4250  -11.3030 N.am   52  DG52       -0.1480
   1048  C2       -32.5290  -28.7240  -11.0910 C.3    52  DG52        0.3212
   1049  N2       -32.9940  -29.3090   -9.9790 N.3    52  DG52       -0.0660
   1050  N3       -31.7400  -29.3950  -11.9060 N.pl3  52  DG52       -0.1685
   1051  C4       -31.3630  -28.6610  -12.9740 C.ar   52  DG52        0.1580
   1052  P        -32.9150  -32.5790  -16.8960 P.3    53  DA53        0.2141
   1053  OP1      -33.4010  -33.7300  -17.6930 O.2    53  DA53       -0.5172
   1054  OP2      -33.0960  -31.1940  -17.3890 O.3    53  DA53       -0.4373
   1055  O5'      -33.6100  -32.5640  -15.4520 O.3    53  DA53       -0.3114
   1056  C5'      -33.5070  -33.6210  -14.5090 C.3    53  DA53        0.1811
   1057  C4'      -34.4940  -33.4080  -13.3910 C.3    53  DA53        0.1746
   1058  O4'      -33.9910  -32.4290  -12.4500 O.3    53  DA53       -0.3327
   1059  C3'      -35.8240  -32.8420  -13.8490 C.3    53  DA53        0.1558
   1060  O3'      -36.7060  -33.8600  -14.2770 O.3    53  DA53       -0.3138
   1061  C2'      -36.3350  -32.0520  -12.6530 C.3    53  DA53        0.0865
   1062  C1'      -35.0370  -31.5990  -11.9900 C.3    53  DA53        0.2094
   1063  N9       -34.7170  -30.2230  -12.3430 N.ar   53  DA53       -0.2714
   1064  C8       -34.2250  -29.7120  -13.5150 C.ar   53  DA53        0.1815
   1065  N7       -34.3670  -28.4120  -13.6260 N.ar   53  DA53       -0.2193
   1066  C5       -34.9980  -28.0450  -12.4480 C.ar   53  DA53        0.1518
   1067  C6       -35.4280  -26.8020  -11.9520 C.ar   53  DA53        0.1919
   1068  N6       -35.2780  -25.6510  -12.6130 N.pl3  53  DA53       -0.1054
   1069  N1       -36.0230  -26.7820  -10.7400 N.ar   53  DA53       -0.2040
   1070  C2       -36.1710  -27.9360  -10.0790 C.ar   53  DA53        0.2016
   1071  N3       -35.8080  -29.1640  -10.4400 N.ar   53  DA53       -0.2048
   1072  C4       -35.2210  -29.1500  -11.6480 C.ar   53  DA53        0.1691
   1073  P        -38.1090  -33.4060  -15.1540 P.3    54  DG54        0.2141
   1074  OP1      -38.8360  -34.6480  -15.5240 O.3    54  DG54       -0.4373
   1075  OP2      -37.4420  -32.6030  -16.2110 O.2    54  DG54       -0.5172
   1076  O5'      -39.1120  -32.4510  -14.3570 O.3    54  DG54       -0.3114
   1077  C5'      -40.0050  -32.9790  -13.3740 C.3    54  DG54        0.1811
   1078  C4'      -40.6960  -31.8590  -12.6210 C.3    54  DG54        0.1746
   1079  O4'      -39.7200  -31.1210  -11.8260 O.3    54  DG54       -0.3327
   1080  C3'      -41.3720  -30.7840  -13.4580 C.3    54  DG54        0.1558
   1081  O3'      -42.6680  -31.1540  -13.9170 O.3    54  DG54       -0.3138
   1082  C2'      -41.4240  -29.6210  -12.4770 C.3    54  DG54        0.0865
   1083  C1'      -40.0490  -29.7370  -11.8300 C.3    54  DG54        0.2094
   1084  N9       -39.0290  -28.9690  -12.5860 N.ar   54  DG54       -0.2713
   1085  C8       -38.1710  -29.4510  -13.5450 C.ar   54  DG54        0.1816
   1086  N7       -37.4470  -28.5190  -14.1030 N.ar   54  DG54       -0.2173
   1087  C5       -37.8470  -27.3530  -13.4780 C.ar   54  DG54        0.1748
   1088  C6       -37.4190  -26.0130  -13.6620 C.ar   54  DG54        0.3023
   1089  O6       -36.5650  -25.5830  -14.4480 O.2    54  DG54       -0.2633
   1090  N1       -38.0880  -25.1320  -12.8180 N.ar   54  DG54       -0.1709
   1091  C2       -39.0520  -25.4960  -11.9080 C.ar   54  DG54        0.2606
   1092  N2       -39.5840  -24.5040  -11.1810 N.pl3  54  DG54       -0.0859
   1093  N3       -39.4610  -26.7360  -11.7260 N.ar   54  DG54       -0.1918
   1094  C4       -38.8250  -27.6100  -12.5360 C.ar   54  DG54        0.1722
   1095  P        -43.4670  -30.2650  -15.2010 P.3    55  DT55        0.2141
   1096  OP1      -44.7030  -30.3590  -16.0070 O.2    55  DT55       -0.5172
   1097  OP2      -42.1570  -30.1720  -15.8810 O.3    55  DT55       -0.4373
   1098  O5'      -43.6140  -29.0050  -14.2280 O.3    55  DT55       -0.3114
   1099  C5'      -44.8660  -28.6890  -13.6410 C.3    55  DT55        0.1811
   1100  C4'      -44.7130  -27.5560  -12.6490 C.3    55  DT55        0.1746
   1101  O4'      -43.3150  -27.2990  -12.3660 O.3    55  DT55       -0.3327
   1102  C3'      -45.2120  -26.2370  -13.1910 C.3    55  DT55        0.1558
   1103  O3'      -46.6010  -26.1210  -13.0010 O.3    55  DT55       -0.3138
   1104  C2'      -44.4240  -25.2120  -12.3890 C.3    55  DT55        0.0866
   1105  C1'      -43.0640  -25.9020  -12.3430 C.3    55  DT55        0.2106
   1106  N1       -42.2880  -25.4720  -13.6520 N.ar   55  DT55       -0.2559
   1107  C2       -41.7520  -24.2010  -13.7390 C.ar   55  DT55        0.3545
   1108  O2       -42.0300  -23.3080  -12.9580 O.2    55  DT55       -0.2443
   1109  N3       -40.8740  -24.0100  -14.7790 N.ar   55  DT55       -0.1533
   1110  C4       -40.4870  -24.9410  -15.7200 C.ar   55  DT55        0.2804
   1111  O4       -39.6880  -24.6210  -16.5950 O.2    55  DT55       -0.2654
   1112  C5       -41.0880  -26.2360  -15.5630 C.ar   55  DT55        0.0534
   1113  C6       -41.9450  -26.4490  -14.5610 C.ar   55  DT55        0.0824
   1114  C7       -40.7310  -27.3180  -16.5380 C.3    55  DT55        0.0377
   1115  P        -47.5120  -25.0210  -13.6810 P.3    56  DG56        0.2141
   1116  OP1      -47.8010  -25.0910  -12.2300 O.3    56  DG56       -0.4373
   1117  OP2      -48.6020  -24.6680  -14.6260 O.2    56  DG56       -0.5172
   1118  O5'      -46.3170  -23.9890  -13.9100 O.3    56  DG56       -0.3114
   1119  C5'      -45.5190  -23.5120  -12.8220 C.3    56  DG56        0.1810
   1120  C4'      -46.3010  -22.5230  -11.9750 C.3    56  DG56        0.1725
   1121  O4'      -47.3670  -23.2330  -11.2810 O.3    56  DG56       -0.3511
   1122  C3'      -45.4950  -21.8580  -10.8660 C.3    56  DG56        0.1538
   1123  O3'      -44.9060  -20.6470  -11.3180 O.3    56  DG56       -0.3139
   1124  C2'      -46.5460  -21.5850   -9.8000 C.3    56  DG56        0.0646
   1125  C1'      -47.4200  -22.8300   -9.9240 C.3    56  DG56        0.1449
   1126  N9       -46.2090  -24.3630   -9.3550 N.2    56  DG56       -0.0121
   1127  C8       -46.2140  -25.4240  -10.2270 C.2    56  DG56        0.3352
   1128  N7       -45.8740  -26.5530   -9.6680 N.2    56  DG56       -0.2043
   1129  C5       -45.6310  -26.2220   -8.3480 C.3    56  DG56        0.3111
   1130  C6       -45.2260  -27.0280   -7.2530 C.2    56  DG56        0.3535
   1131  O6       -44.9950  -28.2440   -7.2420 O.2    56  DG56       -0.2506
   1132  N1       -45.0930  -26.2880   -6.0820 N.am   56  DG56        0.0118
   1133  C2       -45.3230  -24.9370   -5.9780 C.2    56  DG56        0.5150
   1134  N2       -45.1440  -24.3990   -4.7640 N.pl3  56  DG56        0.1551
   1135  N3       -45.6990  -24.1750   -6.9850 N.pl3  56  DG56        0.0626
   1136  C4       -45.8330  -24.8720   -8.1330 C.2    56  DG56        0.3827
   1137  P        -43.6040  -20.0080  -10.6000 P.3    57  DG57        0.2141
   1138  OP1      -43.2970  -18.5590  -10.6460 O.3    57  DG57       -0.4373
   1139  OP2      -42.7670  -20.9870  -11.3270 O.2    57  DG57       -0.5172
   1140  O5'      -43.5730  -20.5160   -9.0840 O.3    57  DG57       -0.3115
   1141  C5'      -44.0610  -19.6660   -8.0580 C.3    57  DG57        0.1785
   1142  C4'      -43.9170  -20.3010   -6.7010 C.3    57  DG57        0.1473
   1143  O4'      -44.4950  -21.6340   -6.7380 O.3    57  DG57       -0.3353
   1144  C3'      -42.5000  -20.5730   -6.2120 C.3    57  DG57        0.0368
   1145  O3'      -41.7660  -19.4370   -5.7730 O.3    57  DG57       -0.1670
   1146  C2'      -42.7780  -21.6080   -5.1300 C.3    57  DG57        0.0566
   1147  C1'      -43.7600  -22.4960   -5.8900 C.3    57  DG57        0.2069
   1148  N9       -42.9710  -23.4960   -6.6240 N.ar   57  DG57       -0.2714
   1149  C8       -43.1770  -23.6560   -7.9730 C.ar   57  DG57        0.1816
   1150  N7       -42.6470  -24.7490   -8.4500 N.ar   57  DG57       -0.2173
   1151  C5       -42.0570  -25.3510   -7.3540 C.ar   57  DG57        0.1748
   1152  C6       -41.3280  -26.5630   -7.2470 C.ar   57  DG57        0.3023
   1153  O6       -41.0530  -27.3730   -8.1410 O.2    57  DG57       -0.2633
   1154  N1       -40.9020  -26.8010   -5.9430 N.ar   57  DG57       -0.1709
   1155  C2       -41.1490  -25.9730   -4.8740 C.ar   57  DG57        0.2606
   1156  N2       -40.6580  -26.3720   -3.6920 N.pl3  57  DG57       -0.0859
   1157  N3       -41.8240  -24.8440   -4.9580 N.ar   57  DG57       -0.1918
   1158  C4       -42.2460  -24.5920   -6.2150 C.ar   57  DG57        0.1722
   1159  P        -40.8960  -19.3050   -6.5160 P.3    58  DT58        0.1980
   1160  OP1      -41.5160  -18.7260   -5.3130 O.3    58  DT58       -0.0310
   1161  OP2      -40.5010  -18.4130   -7.6270 O.3    58  DT58        0.0000
   1162  O5'      -39.5620  -20.0740   -6.1280 O.3    58  DT58       -0.2176
   1163  C5'      -39.2560  -20.3880   -4.7890 C.3    58  DT58        0.2140
   1164  C4'      -39.2030  -21.8850   -4.6140 C.3    58  DT58        0.1776
   1165  O4'      -39.6150  -22.5150   -5.8630 O.3    58  DT58       -0.3326
   1166  C3'      -37.8230  -22.4720   -4.3970 C.3    58  DT58        0.1559
   1167  O3'      -37.3480  -22.3530   -3.0770 O.3    58  DT58       -0.3138
   1168  C2'      -38.0350  -23.9190   -4.8120 C.3    58  DT58        0.0866
   1169  C1'      -38.9050  -23.7350   -6.0490 C.3    58  DT58        0.2106
   1170  N1       -37.9180  -23.5190   -7.2700 N.ar   58  DT58       -0.2559
   1171  C2       -37.4630  -24.6470   -7.9270 C.ar   58  DT58        0.3545
   1172  O2       -37.5080  -25.7630   -7.4400 O.2    58  DT58       -0.2443
   1173  N3       -36.9500  -24.4220   -9.1820 N.ar   58  DT58       -0.1533
   1174  C4       -36.8480  -23.2090   -9.8310 C.ar   58  DT58        0.2804
   1175  O4       -36.3640  -23.1650  -10.9590 O.2    58  DT58       -0.2654
   1176  C5       -37.3400  -22.0860   -9.0830 C.ar   58  DT58        0.0534
   1177  C6       -37.8450  -22.2770   -7.8610 C.ar   58  DT58        0.0824
   1178  C7       -37.2720  -20.7220   -9.7030 C.3    58  DT58        0.0377
   1179  P        -35.6570  -22.5170   -2.7270 P.3    59  DG59        0.2141
   1180  OP1      -35.8550  -22.2540   -1.2760 O.3    59  DG59       -0.4373
   1181  OP2      -34.9090  -21.5380   -3.5520 O.2    59  DG59       -0.5172
   1182  O5'      -34.9770  -23.9480   -2.9480 O.3    59  DG59       -0.3114
   1183  C5'      -35.3980  -25.1140   -2.1910 C.3    59  DG59        0.1811
   1184  C4'      -34.9060  -26.3880   -2.8530 C.3    59  DG59        0.1746
   1185  O4'      -35.3930  -26.4160   -4.2190 O.3    59  DG59       -0.3327
   1186  C3'      -33.3960  -26.5760   -2.9740 C.3    59  DG59        0.1558
   1187  O3'      -32.8420  -27.1820   -1.7990 O.3    59  DG59       -0.3138
   1188  C2'      -33.2630  -27.4920   -4.1890 C.3    59  DG59        0.0865
   1189  C1'      -34.4410  -27.0460   -5.0570 C.3    59  DG59        0.2094
   1190  N9       -34.0860  -26.0830   -6.0720 N.ar   59  DG59       -0.2713
   1191  C8       -34.2320  -24.7180   -6.0220 C.ar   59  DG59        0.1816
   1192  N7       -33.6850  -24.1040   -7.0360 N.ar   59  DG59       -0.2173
   1193  C5       -33.1470  -25.1210   -7.8030 C.ar   59  DG59        0.1748
   1194  C6       -32.4280  -25.0740   -9.0250 C.ar   59  DG59        0.3023
   1195  O6       -32.1160  -24.0800   -9.6930 O.2    59  DG59       -0.2633
   1196  N1       -32.0620  -26.3440   -9.4630 N.ar   59  DG59       -0.1723
   1197  C2       -32.3540  -27.5150   -8.8050 C.ar   59  DG59        0.2428
   1198  N2       -31.9180  -28.6420   -9.3840 N.pl3  59  DG59       -0.1530
   1199  N3       -33.0200  -27.5740   -7.6690 N.ar   59  DG59       -0.1932
   1200  C4       -33.3850  -26.3530   -7.2240 C.ar   59  DG59        0.1722
   1201  P        -31.1540  -27.4760   -1.7000 P.3    60  DT60        0.2141
   1202  OP1      -30.5830  -28.1950   -0.5380 O.3    60  DT60       -0.4373
   1203  OP2      -30.6520  -26.1350   -2.0730 O.2    60  DT60       -0.5172
   1204  O5'      -30.9580  -28.3470   -3.0260 O.3    60  DT60       -0.3114
   1205  C5'      -31.3530  -29.7090   -3.0800 C.3    60  DT60        0.1811
   1206  C4'      -30.7770  -30.3590   -4.3070 C.3    60  DT60        0.1746
   1207  O4'      -31.4560  -29.8610   -5.4880 O.3    60  DT60       -0.3327
   1208  C3'      -29.3190  -30.0240   -4.5630 C.3    60  DT60        0.1558
   1209  O3'      -28.4290  -30.7920   -3.7750 O.3    60  DT60       -0.3138
   1210  C2'      -29.1790  -30.2380   -6.0630 C.3    60  DT60        0.0866
   1211  C1'      -30.5410  -29.7460   -6.5570 C.3    60  DT60        0.2106
   1212  N1       -30.4650  -28.3760   -7.0260 N.ar   60  DT60       -0.2559
   1213  C2       -29.8540  -28.1580   -8.2470 C.ar   60  DT60        0.3545
   1214  O2       -29.4320  -29.0600   -8.9480 O.2    60  DT60       -0.2443
   1215  N3       -29.7530  -26.8400   -8.6190 N.ar   60  DT60       -0.1533
   1216  C4       -30.1920  -25.7410   -7.9100 C.ar   60  DT60        0.2804
   1217  O4       -30.0310  -24.6160   -8.3760 O.2    60  DT60       -0.2654
   1218  C5       -30.8140  -26.0490   -6.6530 C.ar   60  DT60        0.0534
   1219  C6       -30.9250  -27.3230   -6.2660 C.ar   60  DT60        0.0824
   1220  C7       -31.3240  -24.9210   -5.8070 C.3    60  DT60        0.0377
   1221  P        -27.2540  -30.0410   -2.9700 P.3    61  DT61        0.2141
   1222  OP1      -26.9280  -30.8710   -1.7720 O.3    61  DT61       -0.4373
   1223  OP2      -27.1830  -28.5670   -2.8750 O.2    61  DT61       -0.5172
   1224  O5'      -26.4080  -30.4610   -4.2450 O.3    61  DT61       -0.3114
   1225  C5'      -26.6390  -31.7250   -4.8580 C.3    61  DT61        0.1811
   1226  C4'      -26.3160  -31.6780   -6.3250 C.3    61  DT61        0.1746
   1227  O4'      -27.2550  -30.8320   -7.0430 O.3    61  DT61       -0.3327
   1228  C3'      -24.9860  -31.0650   -6.6960 C.3    61  DT61        0.1558
   1229  O3'      -23.8700  -31.8600   -6.3710 O.3    61  DT61       -0.3138
   1230  C2'      -25.1760  -30.8120   -8.1780 C.3    61  DT61        0.0866
   1231  C1'      -26.6220  -30.3270   -8.2090 C.3    61  DT61        0.2106
   1232  N1       -26.6170  -28.8550   -8.1420 N.ar   61  DT61       -0.2559
   1233  C2       -26.3200  -28.1310   -9.2820 C.ar   61  DT61        0.3545
   1234  O2       -25.9760  -28.6520  -10.3280 O.2    61  DT61       -0.2443
   1235  N3       -26.4380  -26.7690   -9.1520 N.ar   61  DT61       -0.1533
   1236  C4       -26.8150  -26.0720   -8.0230 C.ar   61  DT61        0.2804
   1237  O4       -26.8770  -24.8460   -8.0610 O.2    61  DT61       -0.2654
   1238  C5       -27.1060  -26.8930   -6.8820 C.ar   61  DT61        0.0534
   1239  C6       -26.9990  -28.2210   -6.9800 C.ar   61  DT61        0.0824
   1240  C7       -27.5250  -26.2280   -5.6040 C.3    61  DT61        0.0377
   1241  P        -22.8290  -31.2130   -5.6980 P.3    62  DG62        0.2141
   1242  OP1      -22.0100  -32.3780   -5.2910 O.2    62  DG62       -0.5172
   1243  OP2      -23.2180  -30.2060   -4.6840 O.3    62  DG62       -0.4373
   1244  O5'      -22.0940  -30.4710   -6.9180 O.3    62  DG62       -0.3114
   1245  C5'      -21.1400  -31.1640   -7.7160 C.3    62  DG62        0.1811
   1246  C4'      -21.2170  -30.7360   -9.1700 C.3    62  DG62        0.1746
   1247  O4'      -22.5390  -30.2160   -9.4700 O.3    62  DG62       -0.3327
   1248  C3'      -20.2950  -29.5900   -9.5620 C.3    62  DG62        0.1558
   1249  O3'      -18.9540  -30.0270   -9.7630 O.3    62  DG62       -0.3138
   1250  C2'      -20.9780  -29.1270  -10.8430 C.3    62  DG62        0.0865
   1251  C1'      -22.4160  -29.1010  -10.3410 C.3    62  DG62        0.2094
   1252  N9       -22.6560  -27.7790   -9.8070 N.ar   62  DG62       -0.2713
   1253  C8       -23.2050  -27.6390   -8.5560 C.ar   62  DG62        0.1816
   1254  N7       -23.5930  -26.4200   -8.2970 N.ar   62  DG62       -0.2173
   1255  C5       -23.2860  -25.7110   -9.4440 C.ar   62  DG62        0.1748
   1256  C6       -23.4710  -24.3410   -9.7600 C.ar   62  DG62        0.3023
   1257  O6       -23.9650  -23.4520   -9.0550 O.2    62  DG62       -0.2633
   1258  N1       -23.0150  -24.0350  -11.0390 N.ar   62  DG62       -0.1709
   1259  C2       -22.4500  -24.9390  -11.9070 C.ar   62  DG62        0.2606
   1260  N2       -22.0730  -24.4570  -13.0990 N.pl3  62  DG62       -0.0859
   1261  N3       -22.2710  -26.2150  -11.6280 N.ar   62  DG62       -0.1918
   1262  C4       -22.7060  -26.5340  -10.3900 C.ar   62  DG62        0.1722
   1263  P        -17.8260  -29.1800   -9.1430 P.3    63  DG63        0.2141
   1264  OP1      -16.7260  -30.1730   -9.2800 O.2    63  DG63       -0.5172
   1265  OP2      -18.3790  -28.8770   -7.7930 O.3    63  DG63       -0.4373
   1266  O5'      -17.4110  -27.7770   -9.7760 O.3    63  DG63       -0.3114
   1267  C5'      -16.7630  -27.6990  -11.0400 C.3    63  DG63        0.1811
   1268  C4'      -16.9250  -26.3200  -11.6160 C.3    63  DG63        0.1746
   1269  O4'      -18.3280  -25.9490  -11.5540 O.3    63  DG63       -0.3327
   1270  C3'      -16.2020  -25.1740  -10.9240 C.3    63  DG63        0.1558
   1271  O3'      -14.8530  -25.0850  -11.3780 O.3    63  DG63       -0.3138
   1272  C2'      -17.0290  -23.9620  -11.3520 C.3    63  DG63        0.0865
   1273  C1'      -18.4460  -24.5470  -11.3920 C.3    63  DG63        0.2093
   1274  N9       -19.1990  -24.3210  -10.2130 N.ar   63  DG63       -0.2728
   1275  C8       -19.4230  -25.2580   -9.2330 C.ar   63  DG63        0.1814
   1276  N7       -20.2120  -24.8330   -8.2850 N.ar   63  DG63       -0.2177
   1277  C5       -20.5310  -23.5400   -8.6570 C.ar   63  DG63        0.1711
   1278  C6       -21.3510  -22.5720   -8.0220 C.2    63  DG63        0.2986
   1279  O6       -21.9820  -22.6780   -6.9630 O.2    63  DG63       -0.2655
   1280  N1       -21.4040  -21.3820   -8.7420 N.am   63  DG63       -0.1040
   1281  C2       -20.7460  -21.1520   -9.9270 C.1    63  DG63        0.1480
   1282  N2       -20.9190  -19.9410  -10.4730 N.2    63  DG63       -0.0125
   1283  N3       -19.9810  -22.0410  -10.5280 N.pl3  63  DG63       -0.1257
   1284  C4       -19.9140  -23.2040   -9.8470 C.ar   63  DG63        0.1688
   1285  P        -13.6450  -24.7280  -10.2850 P.3    64  DC64        0.2141
   1286  OP1      -12.3850  -25.1560  -10.9360 O.2    64  DC64       -0.5172
   1287  OP2      -13.7790  -24.6540   -8.8100 O.3    64  DC64       -0.4373
   1288  O5'      -13.9650  -23.2390  -10.7740 O.3    64  DC64       -0.3114
   1289  C5'      -13.8530  -22.9040  -12.1490 C.3    64  DC64        0.1811
   1290  C4'      -14.5070  -21.5790  -12.4520 C.3    64  DC64        0.1746
   1291  O4'      -15.9430  -21.6710  -12.2480 O.3    64  DC64       -0.3327
   1292  C3'      -14.1040  -20.4190  -11.5580 C.3    64  DC64        0.1558
   1293  O3'      -12.8480  -19.8580  -11.8830 O.3    64  DC64       -0.3138
   1294  C2'      -15.2680  -19.4590  -11.7440 C.3    64  DC64        0.0866
   1295  C1'      -16.4300  -20.4490  -11.7400 C.3    64  DC64        0.2106
   1296  N1       -16.8940  -20.5990  -10.3260 N.ar   64  DC64       -0.2556
   1297  C2       -17.6680  -19.5990   -9.7260 C.ar   64  DC64        0.3531
   1298  O2       -17.8860  -18.5510  -10.3580 O.2    64  DC64       -0.2443
   1299  N3       -18.1550  -19.8010   -8.4790 N.ar   64  DC64       -0.1739
   1300  C4       -17.8950  -20.9410   -7.8370 C.ar   64  DC64        0.1759
   1301  N4       -18.3960  -21.0960   -6.6100 N.pl3  64  DC64       -0.1070
   1302  C5       -17.1130  -21.9670   -8.4270 C.ar   64  DC64        0.0566
   1303  C6       -16.6340  -21.7630   -9.6590 C.ar   64  DC64        0.0849
   1304  P        -11.9730  -19.4340  -10.6950 P.3    65  DT65        0.2141
   1305  OP1      -10.6030  -19.3330  -11.2700 O.2    65  DT65       -0.5172
   1306  OP2      -12.1730  -20.1710   -9.4170 O.3    65  DT65       -0.4373
   1307  O5'      -12.6030  -17.9760  -10.5000 O.3    65  DT65       -0.3114
   1308  C5'      -13.0410  -17.2270  -11.6280 C.3    65  DT65        0.1811
   1309  C4'      -14.0610  -16.1790  -11.2320 C.3    65  DT65        0.1746
   1310  O4'      -15.2580  -16.7940  -10.6890 O.3    65  DT65       -0.3327
   1311  C3'      -13.6560  -15.1580  -10.1870 C.3    65  DT65        0.1558
   1312  O3'      -12.8920  -14.1150  -10.7730 O.3    65  DT65       -0.3138
   1313  C2'      -15.0000  -14.6610   -9.6600 C.3    65  DT65        0.0866
   1314  C1'      -15.8580  -15.9230   -9.7430 C.3    65  DT65        0.2106
   1315  N1       -15.8640  -16.5760   -8.4240 N.ar   65  DT65       -0.2559
   1316  C2       -16.6730  -16.0670   -7.4260 C.ar   65  DT65        0.3545
   1317  O2       -17.2890  -15.0220   -7.5390 O.2    65  DT65       -0.2443
   1318  N3       -16.7340  -16.8280   -6.2840 N.ar   65  DT65       -0.1533
   1319  C4       -16.0830  -18.0200   -6.0450 C.ar   65  DT65        0.2804
   1320  O4       -16.2390  -18.5890   -4.9670 O.2    65  DT65       -0.2654
   1321  C5       -15.2620  -18.4820   -7.1280 C.ar   65  DT65        0.0534
   1322  C6       -15.1840  -17.7620   -8.2500 C.ar   65  DT65        0.0824
   1323  C7       -14.5110  -19.7700   -6.9640 C.3    65  DT65        0.0377
   1324  P        -12.2440  -13.2490   -9.9510 P.3    66  DC66        0.2141
   1325  OP1      -11.6650  -12.2080  -10.8490 O.2    66  DC66       -0.5172
   1326  OP2      -11.3300  -14.1440   -9.1760 O.3    66  DC66       -0.4373
   1327  O5'      -13.2260  -12.5260   -8.9120 O.3    66  DC66       -0.3114
   1328  C5'      -13.2350  -11.1030   -8.7840 C.3    66  DC66        0.1811
   1329  C4'      -14.2060  -10.6520   -7.7080 C.3    66  DC66        0.1746
   1330  O4'      -15.1600  -11.7030   -7.4040 O.3    66  DC66       -0.3327
   1331  C3'      -13.6090  -10.3480   -6.3480 C.3    66  DC66        0.1558
   1332  O3'      -12.9870   -9.1040   -6.2800 O.3    66  DC66       -0.3138
   1333  C2'      -14.8040  -10.4390   -5.4270 C.3    66  DC66        0.0866
   1334  C1'      -15.5370  -11.6300   -6.0280 C.3    66  DC66        0.2106
   1335  N1       -14.9180  -12.8690   -5.2920 N.ar   66  DC66       -0.2556
   1336  C2       -15.4160  -13.2280   -4.0340 C.ar   66  DC66        0.3531
   1337  O2       -16.1730  -12.4390   -3.4430 O.2    66  DC66       -0.2443
   1338  N3       -15.0600  -14.4200   -3.5000 N.ar   66  DC66       -0.1739
   1339  C4       -14.2440  -15.2350   -4.1700 C.ar   66  DC66        0.1759
   1340  N4       -13.9200  -16.4000   -3.6030 N.pl3  66  DC66       -0.1070
   1341  C5       -13.7280  -14.8900   -5.4450 C.ar   66  DC66        0.0566
   1342  C6       -14.0830  -13.7110   -5.9700 C.ar   66  DC66        0.0849
   1343  P        -11.6870   -9.2490   -5.9970 P.3    67  DC67        0.2141
   1344  OP1      -10.9460   -8.2060   -6.7310 O.2    67  DC67       -0.5172
   1345  OP2      -11.2190  -10.6430   -6.0380 O.3    67  DC67       -0.4373
   1346  O5'      -11.7830   -8.9010   -4.4410 O.3    67  DC67       -0.3114
   1347  C5'      -12.2870   -7.6550   -3.9660 C.3    67  DC67        0.1811
   1348  C4'      -13.0360   -7.8580   -2.6620 C.3    67  DC67        0.1746
   1349  O4'      -13.6860   -9.1580   -2.6980 O.3    67  DC67       -0.3327
   1350  C3'      -12.2620   -7.9270   -1.3540 C.3    67  DC67        0.1558
   1351  O3'      -11.8900   -6.6540   -0.8450 O.3    67  DC67       -0.3138
   1352  C2'      -13.2940   -8.5690   -0.4420 C.3    67  DC67        0.0866
   1353  C1'      -13.8760   -9.6300   -1.3720 C.3    67  DC67        0.2106
   1354  N1       -13.2110  -10.8400   -1.1590 N.ar   67  DC67       -0.2556
   1355  C2       -13.5030  -11.6220   -0.0360 C.ar   67  DC67        0.3531
   1356  O2       -14.2970  -11.1780    0.8110 O.2    67  DC67       -0.2443
   1357  N3       -12.9130  -12.8340    0.0960 N.ar   67  DC67       -0.1739
   1358  C4       -12.0660  -13.2690   -0.8380 C.ar   67  DC67        0.1759
   1359  N4       -11.5090  -14.4700   -0.6650 N.pl3  67  DC67       -0.1070
   1360  C5       -11.7570  -12.4920   -1.9840 C.ar   67  DC67        0.0566
   1361  C6       -12.3420  -11.2960   -2.1100 C.ar   67  DC67        0.0849
   1362  P        -11.2700   -6.6290    0.3710 P.3    68  DC68        0.2141
   1363  OP1      -11.1090   -5.3370    1.0760 O.3    68  DC68       -0.4373
   1364  OP2      -10.1410   -7.5840    0.2640 O.2    68  DC68       -0.5172
   1365  O5'      -12.4470   -7.4760    1.0500 O.3    68  DC68       -0.3114
   1366  C5'      -13.4720   -6.8350    1.7920 C.3    68  DC68        0.1811
   1367  C4'      -13.6800   -7.5130    3.1240 C.3    68  DC68        0.1746
   1368  O4'      -13.9930   -8.9140    2.9070 O.3    68  DC68       -0.3327
   1369  C3'      -12.4790   -7.5420    4.0640 C.3    68  DC68        0.1558
   1370  O3'      -12.3030   -6.3380    4.7990 O.3    68  DC68       -0.3138
   1371  C2'      -12.7790   -8.7500    4.9440 C.3    68  DC68        0.0866
   1372  C1'      -13.4670   -9.6940    3.9580 C.3    68  DC68        0.2106
   1373  N1       -12.5040  -10.6570    3.5100 N.ar   68  DC68       -0.2556
   1374  C2       -12.2990  -11.8110    4.2740 C.ar   68  DC68        0.3531
   1375  O2       -13.0150  -12.0030    5.2720 O.2    68  DC68       -0.2443
   1376  N3       -11.3290  -12.6820    3.9060 N.ar   68  DC68       -0.1739
   1377  C4       -10.5840  -12.4330    2.8290 C.ar   68  DC68        0.1759
   1378  N4        -9.6390  -13.3200    2.5040 N.pl3  68  DC68       -0.1070
   1379  C5       -10.7760  -11.2690    2.0410 C.ar   68  DC68        0.0566
   1380  C6       -11.7350  -10.4120    2.4080 C.ar   68  DC68        0.0849
   1381  P        -10.9920   -5.9210    5.3160 P.3    69  DG69        0.2141
   1382  OP1      -10.8440   -4.4500    5.3710 O.3    69  DG69       -0.4373
   1383  OP2       -9.8560   -6.7450    4.8590 O.2    69  DG69       -0.5172
   1384  O5'      -11.4550   -6.4220    6.7570 O.3    69  DG69       -0.3114
   1385  C5'      -10.4900   -6.7060    7.7390 C.3    69  DG69        0.1811
   1386  C4'      -10.7870   -8.0190    8.4370 C.3    69  DG69        0.1746
   1387  O4'      -11.3480   -8.9990    7.5260 O.3    69  DG69       -0.3327
   1388  C3'       -9.5370   -8.6850    8.9770 C.3    69  DG69        0.1558
   1389  O3'       -9.2010   -8.1150   10.2260 O.3    69  DG69       -0.3138
   1390  C2'       -9.9780  -10.1400    9.0720 C.3    69  DG69        0.0865
   1391  C1'      -10.7310  -10.2570    7.7520 C.3    69  DG69        0.2094
   1392  N9        -9.6660  -10.6500    6.8540 N.ar   69  DG69       -0.2713
   1393  C8        -9.4330   -9.8910    5.7330 C.ar   69  DG69        0.1816
   1394  N7        -8.6580  -10.4790    4.8640 N.ar   69  DG69       -0.2173
   1395  C5        -8.3600  -11.7000    5.4410 C.ar   69  DG69        0.1748
   1396  C6        -7.5590  -12.7720    4.9710 C.ar   69  DG69        0.3023
   1397  O6        -6.9310  -12.8510    3.9080 O.2    69  DG69       -0.2633
   1398  N1        -7.5230  -13.8300    5.8750 N.ar   69  DG69       -0.1709
   1399  C2        -8.1790  -13.8520    7.0830 C.ar   69  DG69        0.2606
   1400  N2        -8.0250  -14.9620    7.8190 N.pl3  69  DG69       -0.0859
   1401  N3        -8.9260  -12.8640    7.5330 N.ar   69  DG69       -0.1918
   1402  C4        -8.9750  -11.8250    6.6720 C.ar   69  DG69        0.1722
   1403  P         -7.8120   -7.6290   10.3460 P.3    70  DT70        0.2141
   1404  OP1       -7.0770   -6.3930   10.7120 O.3    70  DT70       -0.4373
   1405  OP2       -7.2210   -8.5690    9.3670 O.2    70  DT70       -0.5172
   1406  O5'       -7.9900   -8.5260   11.6320 O.3    70  DT70       -0.3114
   1407  C5'       -6.8530   -9.0880   12.2200 C.3    70  DT70        0.1811
   1408  C4'       -6.8880  -10.5780   12.0960 C.3    70  DT70        0.1746
   1409  O4'       -7.3970  -11.0080   10.8050 O.3    70  DT70       -0.3327
   1410  C3'       -5.5070  -11.1790   12.1680 C.3    70  DT70        0.1558
   1411  O3'       -4.9930  -11.1760   13.4860 O.3    70  DT70       -0.3138
   1412  C2'       -5.6860  -12.5310   11.4860 C.3    70  DT70        0.0866
   1413  C1'       -6.7060  -12.1850   10.3930 C.3    70  DT70        0.2106
   1414  N1        -6.1000  -11.9560    9.1080 N.ar   70  DT70       -0.2559
   1415  C2        -5.5220  -12.9990    8.4090 C.ar   70  DT70        0.3545
   1416  O2        -5.4180  -14.1250    8.8610 O.2    70  DT70       -0.2443
   1417  N3        -5.0660  -12.6750    7.1540 N.ar   70  DT70       -0.1533
   1418  C4        -5.1280  -11.4410    6.5410 C.ar   70  DT70        0.2804
   1419  O4        -4.6760  -11.3040    5.4070 O.2    70  DT70       -0.2654
   1420  C5        -5.7410  -10.4100    7.3310 C.ar   70  DT70        0.0534
   1421  C6        -6.1930  -10.6980    8.5550 C.ar   70  DT70        0.0824
   1422  C7        -5.8550   -9.0310    6.7520 C.3    70  DT70        0.0377
   1423  P         -3.2130  -10.8110   13.7330 P.3    71  DA71        0.2141
   1424  OP1       -2.8040  -10.8950   15.1580 O.3    71  DA71       -0.4373
   1425  OP2       -2.8940   -9.5970   12.9460 O.2    71  DA71       -0.5172
   1426  O5'       -2.5990  -12.0750   12.9720 O.3    71  DA71       -0.3114
   1427  C5'       -2.6740  -13.4030   13.5440 C.3    71  DA71        0.1811
   1428  C4'       -2.2820  -14.4450   12.5220 C.3    71  DA71        0.1767
   1429  O4'       -3.1140  -14.2870   11.3420 O.3    71  DA71       -0.3322
   1430  C3'       -0.8660  -14.3550   11.9720 C.3    71  DA71        0.2208
   1431  O3'        0.0760  -14.9900   12.8240 O.3    71  DA71       -0.0346
   1432  C2'       -0.9950  -15.0890   10.6490 C.3    71  DA71        0.1496
   1433  C1'       -2.3560  -14.5830   10.1750 C.3    71  DA71        0.2173
   1434  N9        -2.2220  -13.3510    9.4000 N.ar   71  DA71       -0.2710
   1435  C8        -2.7280  -12.1370    9.7880 C.ar   71  DA71        0.1815
   1436  N7        -2.6950  -11.2250    8.8460 N.ar   71  DA71       -0.2193
   1437  C5        -2.1290  -11.8830    7.7660 C.ar   71  DA71        0.1518
   1438  C6        -1.8210  -11.4650    6.4590 C.ar   71  DA71        0.1919
   1439  N6        -2.0530  -10.2320    6.0030 N.pl3  71  DA71       -0.1054
   1440  N1        -1.2600  -12.3700    5.6280 N.ar   71  DA71       -0.2040
   1441  C2        -1.0300  -13.6060    6.0860 C.ar   71  DA71        0.2016
   1442  N3        -1.2750  -14.1160    7.2900 N.ar   71  DA71       -0.2048
   1443  C4        -1.8310  -13.1920    8.0920 C.ar   71  DA71        0.1691
   1444  P          0.3680  -13.6760   11.2450 P.3    72  DT72        0.3001
   1445  OP1       -0.1580  -14.7220   12.1620 O.3    72  DT72       -0.1862
   1446  OP2        1.0710  -12.4890   11.8070 O.2    72  DT72       -0.2798
   1447  O5'        1.3380  -14.3490   10.1730 O.3    72  DT72       -0.3046
   1448  C5'        2.4440  -15.1260   10.6040 C.3    72  DT72        0.1816
   1449  C4'        2.9560  -16.0010    9.4840 C.3    72  DT72        0.1753
   1450  O4'        3.7920  -15.2130    8.5890 O.3    72  DT72       -0.3510
   1451  C3'        3.8790  -17.0950    9.9940 C.3    72  DT72        0.1839
   1452  O3'        3.1400  -18.2270   10.4290 O.3    72  DT72       -0.2204
   1453  C2'        4.7950  -17.3550    8.8060 C.3    72  DT72        0.0676
   1454  C1'        4.9660  -15.9390    8.2530 C.3    72  DT72        0.1450
   1455  N1         2.3410  -13.1270    7.8170 N.2    72  DT72       -0.1608
   1456  C2         2.6200  -12.2740    6.7670 C.1    72  DT72        0.2395
   1457  O2         3.2350  -12.6210    5.7740 O.2    72  DT72       -0.2041
   1458  N3         2.1520  -10.9910    6.9210 N.am   72  DT72       -0.0881
   1459  C4         1.4490  -10.4880    7.9950 C.2    72  DT72        0.2768
   1460  O4         1.0950   -9.3110    7.9890 O.2    72  DT72       -0.2676
   1461  C5         1.2000  -11.4350    9.0450 C.2    72  DT72        0.0541
   1462  C6         1.6430  -12.6890    8.9210 C.2    72  DT72        0.1126
   1463  C7         0.4420  -10.9830   10.2580 C.3    72  DT72        0.0376
@<TRIPOS>BOND
     1  1031  1030    2
     2  1010  1009    2
     3  1032  1030    1
     4  1030  1017    1
     5  1030  1033    1
     6  1009  1012    1
     7  1009   996    1
     8  1009  1011    1
     9  1013  1012    1
    10  1013  1014    1
    11  1017  1016    1
    12   996   995    1
    13  1033  1034    1
    14  1053  1052    2
    15  1014  1016    1
    16  1014  1015    1
    17  1034  1035    1
    18   989   988    2
    19  1016  1018    1
    20  1054  1052    1
    21  1052  1038    1
    22  1052  1055    1
    23   992   993    1
    24   992   991    1
    25   995   993    1
    26   995   997    1
    27   993   994    1
    28  1038  1037    1
    29  1111  1110    2
    30  1114  1112    1
    31  1015  1019    1
    32  1075  1073    2
    33  1035  1037    1
    34  1035  1036    1
    35   997   998    1
    36   988   991    1
    37   988   976    1
    38   988   990    1
    39  1018  1019    1
    40  1037  1039    1
    41  1096  1095    2
    42  1097  1095    1
    43  1110  1112   ar
    44  1110  1109   ar
    45   976   975    1
    46  1112  1113   ar
    47  1074  1073    1
    48  1055  1056    1
    49   994   998    1
    50  1019  1020    1
    51  1095  1098    1
    52  1095  1081    1
    53  1036  1040    1
    54  1073  1076    1
    55  1073  1060    1
    56  1021  1020   ar
    57  1021  1022   ar
    58   998   999    1
    59  1042  1043   ar
    60  1042  1041   ar
    61  1109  1107   ar
    62  1020  1029   ar
    63  1117  1115    2
    64  1113  1106   ar
    65  1039  1040    1
    66  1056  1057    1
    67  1043  1044   ar
    68  1089  1088    2
    69  1076  1077    1
    70  1022  1023   ar
    71   975   977    1
    72   975   973    1
    73  1060  1059    1
    74  1098  1099    1
    75  1040  1041    1
    76  1086  1085   ar
    77  1086  1087   ar
    78  1041  1051   ar
    79   977   978    1
    80   973   972    1
    81   973   974    1
    82  1081  1080    1
    83  1118  1115    1
    84  1118  1119    1
    85   999  1000   ar
    86   999  1008   ar
    87  1059  1057    1
    88  1059  1061    1
    89  1107  1106   ar
    90  1107  1108    2
    91  1115  1103    1
    92  1115  1116    1
    93  1088  1087   ar
    94  1088  1090   ar
    95  1106  1105    1
    96  1099  1100    1
    97  1065  1064   ar
    98  1065  1066   ar
    99   972   971    1
   100  1029  1023   ar
   101  1029  1028   ar
   102  1085  1084   ar
   103  1064  1063   ar
   104  1087  1094   ar
   105  1080  1078    1
   106  1080  1082    1
   107  1000  1001   ar
   108  1057  1058    1
   109  1077  1078    1
   110  1023  1024   ar
   111  1044  1051   ar
   112  1044  1045    1
   113  1102  1103    1
   114  1102  1100    1
   115  1102  1104    1
   116  1260  1259    1
   117   969   968    2
   118  1007  1008   ar
   119  1007  1006   ar
   120  1008  1002   ar
   121  1051  1050    1
   122  1119  1120    1
   123  1090  1091   ar
   124  1028  1027   ar
   125   974   978    1
   126   978   979    1
   127  1061  1062    1
   128  1100  1101    1
   129  1078  1079    1
   130  1068  1067    1
   131   971   968    1
   132  1084  1094   ar
   133  1084  1083    1
   134  1094  1093   ar
   135  1046  1045    2
   136  1082  1083    1
   137  1290  1291    1
   138  1290  1289    1
   139  1290  1292    1
   140  1058  1062    1
   141  1066  1067   ar
   142  1066  1072   ar
   143  1001  1002   ar
   144  1045  1047   am
   145  1104  1105    1
   146  1101  1105    1
   147  1063  1062    1
   148  1063  1072   ar
   149  1291  1295    1
   150  1002  1003   ar
   151  1289  1288    1
   152  1006  1005   ar
   153  1024  1025    1
   154  1024  1026   ar
   155  1120  1121    1
   156  1120  1122    1
   157   968   955    1
   158   968   970    1
   159  1067  1069   ar
   160  1091  1093   ar
   161  1091  1092    1
   162  1259  1261   ar
   163  1259  1258   ar
   164  1050  1048    1
   165   981   980    2
   166  1293  1292    1
   167  1293  1304    1
   168  1083  1079    1
   169  1294  1295    1
   170  1294  1292    1
   171  1295  1296    1
   172  1027  1026   ar
   173  1072  1071   ar
   174  1261  1262   ar
   175  1308  1309    1
   176  1308  1307    1
   177  1268  1269    1
   178  1268  1267    1
   179  1268  1270    1
   180  1269  1273    1
   181   979   980   ar
   182   979   986   ar
   183   955   954    1
   184  1273  1272    1
   185  1273  1274    1
   186  1271  1270    1
   187  1271  1285    1
   188  1272  1270    1
   189  1139  1137    2
   190  1123  1122    1
   191  1123  1137    1
   192  1047  1048    1
   193  1121  1125    1
   194  1305  1304    2
   195  1309  1310    1
   196  1309  1311    1
   197   980   982   ar
   198  1005  1003   ar
   199  1003  1004    1
   200  1048  1049    1
   201  1048  1198    1
   202  1267  1266    1
   203  1258  1256   ar
   204  1175  1174    2
   205  1286  1285    2
   206  1122  1124    1
   207  1325  1324    2
   208  1250  1251    1
   209  1250  1248    1
   210   956   954    1
   211   956   957    1
   212  1288  1285    1
   213  1312  1311    1
   214  1312  1324    1
   215  1069  1070   ar
   216   986   985   ar
   217  1304  1307    1
   218  1304  1306    1
   219  1310  1314    1
   220  1138  1137    1
   221  1137  1140    1
   222  1283  1281    1
   223  1283  1284    1
   224  1282  1281    2
   225  1282   964    1
   226   954   952    1
   227  1071  1070   ar
   228  1262  1252   ar
   229  1262  1255   ar
   230  1298  1297    2
   231  1251  1252    1
   232  1251  1247    1
   233  1234  1233    2
   234  1296  1297   ar
   235  1296  1303   ar
   236   258   257    2
   237  1285  1287    1
   238  1127  1128    2
   239  1127  1126    1
   240   965   966    2
   241   965   964    1
   242  1274  1284   ar
   243  1274  1275   ar
   244   966   967    1
   245  1311  1313    1
   246   982   983   ar
   247  1049  1198    1
   248  1324  1326    1
   249  1324  1327    1
   250  1281  1280    2
   251  1125  1124    1
   252  1284  1277   ar
   253  1174  1173   ar
   254  1174  1176   ar
   255  1252  1253   ar
   256  1266  1263    1
   257  1249  1248    1
   258  1249  1263    1
   259  1256  1255   ar
   260  1256  1257    2
   261  1314  1313    1
   262  1314  1315    1
   263  1297  1299   ar
   264  1178  1176    1
   265  1195  1194    2
   266  1128  1129    1
   267  1303  1302   ar
   268   985   983   ar
   269   985   987    1
   270  1248  1246    1
   271   957   958    1
   272   957   953    1
   273  1247  1246    1
   274  1196  1194   ar
   275  1196  1197   ar
   276  1255  1254   ar
   277   964   962    1
   278  1198  1197    1
   279  1126  1136    2
   280   952   953    1
   281   952   951    1
   282   245   257    1
   283   245   244    1
   284  1233  1235   ar
   285  1233  1232   ar
   286  1264  1263    2
   287  1275  1276   ar
   288   983   984    2
   289   967   958    1
   290   967   961    1
   291  1173  1171   ar
   292  1246  1245    1
   293  1235  1236   ar
   294  1263  1265    1
   295  1140  1141    1
   296  1176  1177   ar
   297   257   259    1
   298   257   260    1
   299  1194  1193   ar
   300  1214  1213    2
   301  1327  1328    1
   302   958   959    1
   303  1197  1199   ar
   304  1328  1329    1
   305  1280  1278    1
   306   241   242    1
   307   241   240    1
   308  1277  1276   ar
   309  1277  1278    1
   310  1215  1213   ar
   311  1215  1216   ar
   312   261   260    1
   313   261   262    1
   314  1253  1254   ar
   315   242   244    1
   316   242   243    1
   317  1299  1300   ar
   318   238   237    2
   319  1150  1149   ar
   320  1150  1151   ar
   321   962   961    2
   322   962   963    1
   323  1302  1300   ar
   324  1315  1322   ar
   325  1315  1316   ar
   326  1217  1216    2
   327  1129  1136    1
   328  1129  1130    1
   329   516   515    2
   330   961   960    1
   331   951   950    1
   332  1322  1321   ar
   333  1213  1212   ar
   334  1231  1230    1
   335  1231  1232    1
   336  1231  1227    1
   337  1230  1228    1
   338   244   246    1
   339  1232  1239   ar
   340  1153  1152    2
   341  1136  1135    1
   342  1237  1236    2
   343  1141  1142    1
   344  1236  1238   ar
   345  1278  1279    2
   346  1149  1148   ar
   347  1171  1172    2
   348  1171  1170   ar
   349   950   947    1
   350  1216  1218   ar
   351  1177  1170   ar
   352   280   279    2
   353  1300  1301    1
   354   959   960    2
   355  1193  1200   ar
   356  1193  1192   ar
   357   500   499    1
   358   500   501    1
   359   500   502    1
   360   499   498    1
   361   503   515    1
   362   503   502    1
   363  1245  1244    1
   364  1329  1330    1
   365  1329  1331    1
   366  1199  1200   ar
   367   246   247    1
   368   262   264    1
   369   262   263    1
   370  1317  1316    2
   371   240   237    1
   372   518   515    1
   373   518   519    1
   374   243   247    1
   375  1316  1318   ar
   376   226   237    1
   377   226   225    1
   378  1330  1334    1
   379  1151  1152   ar
   380  1151  1158   ar
   381   237   239    1
   382   515   517    1
   383  1170  1169    1
   384  1130  1131    2
   385  1130  1132    1
   386  1152  1154   ar
   387  1200  1190   ar
   388   265   264    1
   389   265   279    1
   390  1321  1323    1
   391  1321  1319   ar
   392   501   505    1
   393  1227  1226    1
   394  1192  1191   ar
   395  1212  1211    1
   396  1212  1219   ar
   397   519   520    1
   398  1135  1133    1
   399  1239  1238   ar
   400   502   504    1
   401  1244  1241    1
   402  1238  1240    1
   403   227   225    1
   404   227   228    1
   405   496   495    2
   406   247   248    1
   407   504   505    1
   408  1143  1142    1
   409  1143  1147    1
   410  1344  1343    2
   411  1142  1144    1
   412  1228  1229    1
   413  1228  1226    1
   414  1218  1219   ar
   415  1218  1220    1
   416  1148  1158   ar
   417  1148  1147    1
   418   264   266    1
   419   263   267    1
   420  1211  1210    1
   421  1211  1207    1
   422   948   947    2
   423  1159  1145    1
   424   225   223    1
   425   279   282    1
   426   279   281    1
   427   947   949    1
   428   947   934    1
   429   223   224    1
   430   223   222    1
   431   505   506    1
   432   498   495    1
   433   520   521    1
   434   520   522    1
   435  1229  1241    1
   436  1331  1332    1
   437  1331  1333    1
   438  1226  1225    1
   439  1318  1319   ar
   440  1332  1343    1
   441  1158  1157   ar
   442  1144  1146    1
   443   538   537    2
   444  1162  1163    1
   445   228   224    1
   446   228   229    1
   447  1132  1133    2
   448   944   945   ar
   449   944   943   ar
   450  1190  1191   ar
   451  1190  1189    1
   452  1210  1208    1
   453  1169  1165    1
   454  1169  1168    1
   455  1319  1320    2
   456  1345  1343    1
   457  1334  1333    1
   458  1334  1335    1
   459  1343  1346    1
   460  1133  1134    1
   461  1342  1341   ar
   462  1342  1335   ar
   463   484   495    1
   464   484   483    1
   465  1154  1155   ar
   466   495   497    1
   467  1147  1146    1
   468   231   230    2
   469   282   283    1
   470   934   933    1
   471  1165  1164    1
   472   485   486    1
   473   485   483    1
   474   523   522    1
   475   523   537    1
   476   521   525    1
   477  1145  1160    1
   478   945   946   ar
   479   943   941   ar
   480   935   933    1
   481   935   936    1
   482   222   221    1
   483  1241  1242    2
   484  1241  1243    1
   485   784   783    2
   486  1207  1206    1
   487   248   255   ar
   488   248   249   ar
   489   266   267    1
   490   481   483    1
   491   481   482    1
   492   481   480    1
   493  1341  1339   ar
   494   486   482    1
   495   486   487    1
   496   267   268    1
   497   522   524    1
   498  1335  1336   ar
   499   489   488    2
   500   537   539    1
   501   537   540    1
   502   933   931    1
   503  1189  1185    1
   504  1189  1188    1
   505   255   254   ar
   506   283   284    1
   507   946   940   ar
   508   946   937   ar
   509   506   513   ar
   510   506   507   ar
   511  1157  1155   ar
   512   250   249    2
   513   941   942    1
   514   941   940   ar
   515  1155  1156    1
   516   229   230   ar
   517   229   236   ar
   518  1225  1224    1
   519   230   232   ar
   520  1168  1166    1
   521  1163  1164    1
   522   765   764    2
   523  1164  1166    1
   524   525   524    1
   525   525   526    1
   526   249   251   ar
   527   508   507    2
   528   269   268   ar
   529   269   270   ar
   530  1208  1206    1
   531  1208  1209    1
   532   300   298    2
   533   940   939   ar
   534   480   479    1
   535   936   937    1
   536   936   932    1
   537   937   938   ar
   538  1346  1347    1
   539   513   512   ar
   540  1166  1167    1
   541   268   278   ar
   542  1206  1205    1
   543   221   218    1
   544   299   298    1
   545  1224  1221    1
   546   783   772    1
   547   783   785    1
   548   783   786    1
   549   767   768    1
   550   767   764    1
   551  1185  1184    1
   552  1188  1186    1
   553   488   487   ar
   554   488   490   ar
   555  1339  1340    1
   556  1339  1338   ar
   557   507   509   ar
   558   541   540    1
   559   541   542    1
   560   772   771    1
   561   208   209    1
   562   208   206    1
   563   487   494   ar
   564  1336  1338   ar
   565  1336  1337    2
   566  1347  1348    1
   567   212   211    2
   568   207   218    1
   569   207   206    1
   570   768   769    1
   571   931   932    1
   572   931   930    1
   573  1209  1221    1
   574   254   256    1
   575   254   252   ar
   576   764   751    1
   577   764   766    1
   578   939   938   ar
   579   298   287    1
   580   298   301    1
   581   236   235   ar
   582   209   205    1
   583   209   210    1
   584   923   922   ar
   585   923   924   ar
   586   287   286    1
   587   232   233   ar
   588   284   286    1
   589   284   285    1
   590   922   920   ar
   591   219   218    2
   592  1181  1179    2
   593   270   271   ar
   594   527   526   ar
   595   527   528   ar
   596   204   206    1
   597   204   205    1
   598   204   203    1
   599   526   536   ar
   600   751   750    1
   601   218   220    1
   602   286   288    1
   603   479   476    1
   604   251   252   ar
   605   469   468    2
   606   786   787    1
   607   787   788    1
   608   512   514    1
   609   512   510   ar
   610   558   557    2
   611  1205  1204    1
   612  1167  1179    1
   613   769   771    1
   614   769   770    1
   615   490   491   ar
   616  1204  1201    1
   617   278   271   ar
   618   278   277   ar
   619  1186  1184    1
   620  1186  1187    1
   621  1221  1223    2
   622  1221  1222    1
   623  1182  1179    1
   624  1182  1183    1
   625   771   773    1
   626   930   929    1
   627   494   493   ar
   628   477   476    2
   629  1184  1183    1
   630   542   544    1
   631   542   543    1
   632   509   510   ar
   633   252   253    2
   634   211   210   ar
   635   211   213   ar
   636   924   925   ar
   637  1179  1180    1
   638   465   466    1
   639   465   463    1
   640  1349  1348    1
   641  1349  1353    1
   642   317   315    1
   643  1348  1350    1
   644   285   289    1
   645   744   743    2
   646   297   296   ar
   647   297   290   ar
   648   235   233   ar
   649   210   217   ar
   650   233   234    1
   651   296   294   ar
   652   271   272   ar
   653   920   921    1
   654   920   919   ar
   655   545   557    1
   656   545   544    1
   657    40    39    2
   658   277   275   ar
   659   804   803    2
   660   301   302    1
   661   203   202    1
   662   557   559    1
   663   557   560    1
   664   528   529   ar
   665   476   464    1
   666   476   478    1
   667   510   511    2
   668   805   803    1
   669   466   467    1
   670   466   462    1
   671   747   748    1
   672   747   746    1
   673  1361  1360   ar
   674  1361  1354   ar
   675  1203  1201    2
   676   536   535   ar
   677   536   529   ar
   678   544   546    1
   679   750   748    1
   680   750   752    1
   681   468   467   ar
   682   468   470   ar
   683  1360  1358   ar
   684   556   554    1
   685   543   547    1
   686   748   749    1
   687   491   493   ar
   688   491   492    1
   689   464   463    1
   690   288   289    1
   691   803   791    1
   692   803   806    1
   693   773   774    1
   694  1187  1201    1
   695   788   790    1
   696   788   789    1
   697   213   214   ar
   698   770   774    1
   699  1201  1202    1
   700   925   919   ar
   701   925   916   ar
   702   289   290    1
   703   535   533   ar
   704   929   926    1
   705   463   461    1
   706   791   790    1
   707   290   291   ar
   708   302   303    1
   709   919   918   ar
   710   746   743    1
   711   529   530   ar
   712  1353  1354    1
   713  1353  1352    1
   714  1350  1351    1
   715  1350  1352    1
   716   467   474   ar
   717   743   732    1
   718   743   745    1
   719   928   926    2
   720   462   461    1
   721   217   216   ar
   722   196   197   ar
   723   196   195   ar
   724   752   753    1
   725   914   915    1
   726   914   912    1
   727   315   316   ar
   728   315   313   ar
   729   294   295    1
   730   294   293   ar
   731   555   554   ar
   732   555   548   ar
   733   461   460    1
   734   560   561    1
   735   470   471   ar
   736  1354  1355   ar
   737    27    39    1
   738    27    26    1
   739    39    41    1
   740    39    42    1
   741   790   792    1
   742   272   274   ar
   743   272   273    2
   744   275   274   ar
   745   275   276    1
   746   202   199    1
   747   334   333    1
   748   320   318    2
   749    59    58    2
   750   554   552   ar
   751   789   793    1
   752   732   731    1
   753   774   775    1
   754   197   198   ar
   755  1351  1362    1
   756  1358  1359    1
   757  1358  1357   ar
   758   802   800    1
   759    20    19    2
   760   450   449    2
   761   314   313    2
   762   926   927    1
   763   926   913    1
   764   316   309   ar
   765   547   546    1
   766   547   548    1
   767   749   753    1
   768   195   193   ar
   769   915   916    1
   770   915   911    1
   771    23    24    1
   772    23    22    1
   773    43    42    1
   774    43    44    1
   775   916   917   ar
   776   214   216   ar
   777   214   215    1
   778   902   901    1
   779   899   898    2
   780   313   312   ar
   781   900   898   ar
   782   900   901   ar
   783   533   534    1
   784   533   532   ar
   785   548   549   ar
   786   200   199    2
   787    24    26    1
   788    24    25    1
   789   806   807    1
   790   291   293   ar
   791   291   292    2
   792   913   912    1
   793   918   917   ar
   794   912   910    1
   795   187   188    1
   796   187   185    1
   797   782   775   ar
   798   782   781   ar
   799   801   800   ar
   800   801   794   ar
   801   753   754    1
   802   335   333   ar
   803   335   336   ar
   804  1355  1357   ar
   805  1355  1356    2
   806   303   304    1
   807   303   305    1
   808   530   532   ar
   809   530   531    2
   810   333   332   ar
   811   474   473   ar
   812    26    28    1
   813    47    58    1
   814    47    46    1
   815   561   562    1
   816   775   776   ar
   817   460   459    1
   818   471   472    2
   819   471   473   ar
   820   800   798   ar
   821    58    60    1
   822    58    61    1
   823   199   186    1
   824   199   201    1
   825   304   308    1
   826  1364  1362    2
   827   898   897   ar
   828   318   319    1
   829   318   306    1
   830   318   321    1
   831   901   903   ar
   832   733   731    1
   833   733   734    1
   834   449   451   ar
   835   449   448   ar
   836   792   793    1
   837   451   452   ar
   838  1362  1365    1
   839  1362  1363    1
   840   731   729    1
   841   807   808    1
   842   552   553    2
   843   552   551   ar
   844   793   794    1
   845   576   574    1
   846    44    46    1
   847    44    45    1
   848   186   185    1
   849   198   189   ar
   850   198   192   ar
   851   305   306    1
   852   305   307    1
   853     6    19    1
   854     6     5    1
   855    19    22    1
   856    19    21    1
   857   188   189    1
   858   188   184    1
   859   309   308    1
   860   309   310   ar
   861   781   779   ar
   862   193   192   ar
   863   193   194    1
   864    28    29    1
   865   794   795   ar
   866   473   475    1
   867   911   910    1
   868   822   820    1
   869   185   183    1
   870    25    29    1
   871   729   728    1
   872   729   730    1
   873    46    48    1
   874   336   329   ar
   875   312   310   ar
   876   549   551   ar
   877   549   550    2
   878   563   562    1
   879   563   567    1
   880  1365  1366    1
   881   754   755   ar
   882   754   763   ar
   883   446   447    1
   884   446   444    1
   885   910   909    1
   886   459   456    1
   887   562   564    1
   888   332   330   ar
   889   189   190   ar
   890   321   322    1
   891   308   307    1
   892   192   191   ar
   893   776   777    2
   894   776   778   ar
   895   877   876    2
   896   825   823    2
   897   755   756   ar
   898   453   452    1
   899   575   574   ar
   900   575   568   ar
   901   574   572   ar
   902   452   454   ar
   903   903   904   ar
   904   183   184    1
   905   183   182    1
   906    61    62    1
   907   448   447    1
   908   448   455   ar
   909   310   311    2
   910    45    49    1
   911   897   904   ar
   912   897   896   ar
   913    62    63    1
   914    29    30    1
   915   798   799    2
   916   798   797   ar
   917   734   730    1
   918   734   735    1
   919   728   727    1
   920   447   443    1
   921     7     5    1
   922     7     8    1
   923     5     3    1
   924     3     2    1
   925     3     4    1
   926  1366  1367    1
   927   808   810    1
   928   808   809    1
   929   737   736    2
   930   779   778   ar
   931   779   780    1
   932   339   337    2
   933   431   430    2
   934  1379  1380   ar
   935  1379  1377   ar
   936   763   762   ar
   937   763   757   ar
   938   904   894   ar
   939   824   823    1
   940   725   724    2
   941   762   761   ar
   942   795   797   ar
   943   795   796    2
   944   329   330   ar
   945   329   328    1
   946   909   908    1
   947   445   444    1
   948   445   456    1
   949   820   821   ar
   950   820   818   ar
   951     2     1    1
   952   330   331    2
   953    48    49    1
   954   444   442    1
   955   823   811    1
   956   823   826    1
   957   567   568    1
   958   567   566    1
   959   821   814   ar
   960   876   878   ar
   961   876   875   ar
   962   878   879   ar
   963   810   811    1
   964   810   812    1
   965  1380  1373   ar
   966   190   191   ar
   967   809   813    1
   968   896   895   ar
   969  1378  1377    1
   970   568   569   ar
   971   322   323    1
   972   341   342    1
   973   341   340    1
   974   432   430   ar
   975   432   433   ar
   976   756   757   ar
   977   564   565    1
   978   564   566    1
   979   572   573    2
   980   572   571   ar
   981   456   457    2
   982   456   458    1
   983   727   724    1
   984     8     4    1
   985     8     9    1
   986    49    50    1
   987   455   454   ar
   988    79    77    2
   989   414   413    2
   990  1377  1376   ar
   991   337   340    1
   992   337   326    1
   993   337   338    1
   994   430   429   ar
   995   735   736   ar
   996   735   742   ar
   997  1368  1367    1
   998  1368  1372    1
   999   736   738   ar
  1000    30    37   ar
  1001    30    31   ar
  1002   757   758   ar
  1003   182   181    1
  1004    63    65    1
  1005    63    64    1
  1006   325   323    1
  1007   325   327    1
  1008   325   326    1
  1009   565   577    1
  1010    78    77    1
  1011   443   442    1
  1012   359   357    2
  1013   434   433    1
  1014  1367  1369    1
  1015   858   857    1
  1016   839   838    1
  1017    66    77    1
  1018    66    65    1
  1019   172   171    2
  1020   342   343    1
  1021   342   344    1
  1022   761   760   ar
  1023   724   726    1
  1024   724   713    1
  1025   394   393    2
  1026   324   328    1
  1027   324   323    1
  1028   908   905    1
  1029   442   441    1
  1030   880   879    1
  1031   328   327    1
  1032   907   905    2
  1033    57    50   ar
  1034    57    56   ar
  1035   818   819    2
  1036   818   817   ar
  1037   894   895   ar
  1038   894   893    1
  1039    37    36   ar
  1040    77    80    1
  1041   433   435   ar
  1042   879   881   ar
  1043    32    31    2
  1044  1373  1372    1
  1045  1373  1374   ar
  1046   579   577    2
  1047   875   874   ar
  1048   875   882   ar
  1049   571   569   ar
  1050   814   813    1
  1051   814   815   ar
  1052   181   178    1
  1053   569   570    2
  1054    65    67    1
  1055   840   838   ar
  1056   840   841   ar
  1057   813   812    1
  1058   173   171   ar
  1059   173   174   ar
  1060   844   842    2
  1061    50    51   ar
  1062   826   827    1
  1063    17    18   ar
  1064    17    16   ar
  1065   343   347    1
  1066   412   413   ar
  1067   412   410   ar
  1068    31    33   ar
  1069   413   415   ar
  1070   874   873   ar
  1071    64    68    1
  1072   577   578    1
  1073   577   580    1
  1074  1376  1374   ar
  1075  1397  1396    2
  1076     9    18   ar
  1077     9    10   ar
  1078  1372  1371    1
  1079   742   741   ar
  1080   171   170   ar
  1081   838   837   ar
  1082   738   739   ar
  1083  1369  1370    1
  1084  1369  1371    1
  1085   357   358    1
  1086   357   345    1
  1087   357   360    1
  1088   758   760   ar
  1089   758   759    1
  1090   175   174    1
  1091   859   857   ar
  1092   859   860   ar
  1093   857   856   ar
  1094   713   712    1
  1095   429   428    1
  1096   429   436   ar
  1097   892   893    1
  1098   892   890    1
  1099   905   906    1
  1100   905   891    1
  1101  1374  1375    2
  1102    56    54   ar
  1103   344   345    1
  1104   344   346    1
  1105    18    12   ar
  1106   893   889    1
  1107   393   392   ar
  1108   393   395   ar
  1109    76    75   ar
  1110    76    69   ar
  1111   174   176   ar
  1112   841   834   ar
  1113   882   881   ar
  1114   882   872   ar
  1115   817   815   ar
  1116   428   427    1
  1117   428   424    1
  1118    16    15   ar
  1119   714   712    1
  1120   714   715    1
  1121   427   425    1
  1122    36    38    1
  1123    36    34   ar
  1124   397   395    1
  1125   154   153    1
  1126   815   816    2
  1127   411   410    2
  1128   718   717    2
  1129  1370  1381    1
  1130   441   440    1
  1131    75    73   ar
  1132   168   169    1
  1133   168   166    1
  1134  1383  1381    2
  1135   435   436   ar
  1136  1394  1395   ar
  1137  1394  1393   ar
  1138   843   842    1
  1139   410   409   ar
  1140   827   828    1
  1141    10    11   ar
  1142   842   845    1
  1143   842   831    1
  1144   890   891    1
  1145   890   888    1
  1146  1396  1395   ar
  1147  1396  1398   ar
  1148    80    81    1
  1149    51    52    2
  1150    51    53   ar
  1151   741   739   ar
  1152    67    68    1
  1153   739   740    1
  1154   873   872   ar
  1155    33    34   ar
  1156   392   390   ar
  1157    68    69    1
  1158   712   710    1
  1159   178   179    2
  1160   178   180    1
  1161   178   167    1
  1162   580   581    1
  1163   415   417    1
  1164   415   416   ar
  1165   347   346    1
  1166   347   348    1
  1167   440   437    1
  1168   860   853   ar
  1169   856   854   ar
  1170   170   169    1
  1171   170   177   ar
  1172   837   835   ar
  1173   395   396   ar
  1174  1381  1382    1
  1175  1381  1384    1
  1176   373   372    1
  1177   360   361    1
  1178  1419  1418    2
  1179    69    70   ar
  1180  1395  1402   ar
  1181   169   165    1
  1182   590   589   ar
  1183   590   591   ar
  1184   155   153   ar
  1185   155   156   ar
  1186   845   846    1
  1187   863   861    2
  1188   872   871    1
  1189   589   588   ar
  1190   370   369   ar
  1191   370   371   ar
  1192    34    35    2
  1193  1440  1441   ar
  1194  1440  1438   ar
  1195    54    53   ar
  1196    54    55    1
  1197   581   582    1
  1198   153   152   ar
  1199   885   883    2
  1200    12    11   ar
  1201    12    13   ar
  1202   889   888    1
  1203  1393  1392   ar
  1204  1457  1456    2
  1205   715   716    1
  1206   715   711    1
  1207   834   835   ar
  1208   834   833    1
  1209   176   177   ar
  1210    15    13   ar
  1211   830   831    1
  1212   830   828    1
  1213   830   832    1
  1214  1398  1399   ar
  1215   717   716   ar
  1216   717   719   ar
  1217   424   423    1
  1218    81    82    1
  1219   167   166    1
  1220  1439  1438    1
  1221   166   164    1
  1222  1441  1442   ar
  1223   425   426    1
  1224   425   423    1
  1225   828   829    1
  1226   583   582    1
  1227   583   587    1
  1228   409   416   ar
  1229   409   408    1
  1230   886   883    1
  1231   886   887    1
  1232   710   711    1
  1233   710   709    1
  1234    73    74    1
  1235    73    72   ar
  1236   888   887    1
  1237   348   355   ar
  1238   348   349   ar
  1239   835   836    2
  1240   369   368   ar
  1241   593   592    2
  1242   355   354   ar
  1243   118   116    1
  1244   829   833    1
  1245   853   854   ar
  1246   853   852    1
  1247   101    99    2
  1248   854   855    2
  1249   591   592   ar
  1250   591   598   ar
  1251   156   157   ar
  1252    13    14    1
  1253   716   723   ar
  1254  1438  1437   ar
  1255   372   371   ar
  1256   372   374   ar
  1257   719   720   ar
  1258   390   391    2
  1259   390   389   ar
  1260   426   437    1
  1261   371   377   ar
  1262  1418  1417   ar
  1263  1418  1420   ar
  1264   361   362    1
  1265   588   587    1
  1266   588   598   ar
  1267   396   389   ar
  1268  1402  1392   ar
  1269  1402  1401   ar
  1270   582   584    1
  1271   423   422    1
  1272  1422  1420    1
  1273  1384  1385    1
  1274    70    72   ar
  1275    70    71    2
  1276  1456  1458   am
  1277  1456  1455    2
  1278   846   847    1
  1279   437   439    2
  1280   437   438    1
  1281   833   832    1
  1282   592   594   ar
  1283    90    89   ar
  1284    90    91   ar
  1285   883   869    1
  1286   883   884    1
  1287   165   164    1
  1288   152   151   ar
  1289   152   158   ar
  1290  1392  1391    1
  1291    89    88   ar
  1292  1458  1459   am
  1293   702   701   ar
  1294   702   703   ar
  1295   380   378    2
  1296   871   870    1
  1297   871   867    1
  1298   870   868    1
  1299   861   864    1
  1300   861   862    1
  1301   861   850    1
  1302   115   114    2
  1303   864   865    1
  1304   587   586    1
  1305  1399  1401   ar
  1306  1399  1400    1
  1307   135   134    1
  1308   598   597   ar
  1309  1417  1415   ar
  1310   350   349    2
  1311   164   163    1
  1312   868   869    1
  1313   868   866    1
  1314   349   351   ar
  1315   408   407    1
  1316   408   404    1
  1317   709   708    1
  1318   389   388    1
  1319  1442  1443   ar
  1320  1420  1421   ar
  1321    82    84    1
  1322    82    83    1
  1323   151   150   ar
  1324   701   699   ar
  1325   354   356    1
  1326   354   352   ar
  1327   849   847    1
  1328   849   850    1
  1329   849   851    1
  1330   848   847    1
  1331   848   852    1
  1332   407   405    1
  1333  1387  1391    1
  1334  1387  1386    1
  1335   100    99    1
  1336   368   377   ar
  1337   368   367    1
  1338   157   158   ar
  1339    99    85    1
  1340    99   102    1
  1341   374   375   ar
  1342    84    85    1
  1343    84    86    1
  1344   703   704   ar
  1345   723   722   ar
  1346    83    87    1
  1347   852   851    1
  1348   720   721    1
  1349   720   722   ar
  1350   584   586    1
  1351   584   585    1
  1352   116   114   ar
  1353   116   117   ar
  1354   867   866    1
  1355  1385  1386    1
  1356   158   149   ar
  1357  1391  1390    1
  1358  1437  1443   ar
  1359  1437  1436   ar
  1360   377   376   ar
  1361  1455  1462    1
  1362   594   595   ar
  1363   114   113   ar
  1364  1460  1459    2
  1365   362   364    1
  1366   362   363    1
  1367  1459  1461    1
  1368   364   365    1
  1369   364   366    1
  1370   615   614    1
  1371   601   599    2
  1372   363   367    1
  1373    93    92    2
  1374  1443  1434   ar
  1375   421   422    1
  1376   421   418    1
  1377    91    92   ar
  1378    91    98   ar
  1379   708   705    1
  1380    88    87    1
  1381    88    98   ar
  1382   597   595   ar
  1383   866   865    1
  1384   134   136   ar
  1385   134   133   ar
  1386  1454  1450    1
  1387  1454  1453    1
  1388   404   403    1
  1389   351   352   ar
  1390   162   163    1
  1391   162   159    1
  1392   378   381    1
  1393   378   365    1
  1394   378   379    1
  1395  1415  1416    2
  1396  1415  1414   ar
  1397  1386  1388    1
  1398   595   596    1
  1399   352   353    2
  1400   150   149   ar
  1401   367   366    1
  1402  1421  1414   ar
  1403   381   382    1
  1404    87    86    1
  1405  1450  1449    1
  1406    92    94   ar
  1407   699   700    1
  1408   699   698   ar
  1409   388   384    1
  1410   388   387    1
  1411   585   599    1
  1412   681   680   ar
  1413   681   682   ar
  1414   375   376   ar
  1415   680   678   ar
  1416   117   110   ar
  1417   102   103    1
  1418   612   613   ar
  1419   612   611   ar
  1420  1453  1451    1
  1421   136   137   ar
  1422   149   148    1
  1423   133   131   ar
  1424  1436  1435   ar
  1425   121   119    2
  1426   636   635    1
  1427  1462  1461    2
  1428   599   600    1
  1429   599   602    1
  1430   704   698   ar
  1431   704   695   ar
  1432    98    97   ar
  1433  1388  1390    1
  1434  1388  1389    1
  1435   405   403    1
  1436   405   406    1
  1437   420   418    2
  1438  1461  1463    1
  1439  1414  1413    1
  1440   400   398    2
  1441   614   613   ar
  1442   614   616   ar
  1443   384   383    1
  1444   113   111   ar
  1445   657   656    2
  1446   693   694    1
  1447   693   691    1
  1448   161   159    2
  1449   387   385    1
  1450   387   402    1
  1451  1405  1403    2
  1452  1434  1435   ar
  1453  1434  1433    1
  1454   418   406    1
  1455   418   419    1
  1456   385   401    1
  1457   385   383    1
  1458   613   619   ar
  1459   403   402    1
  1460  1449  1451    1
  1461  1449  1448    1
  1462   401   386    1
  1463   698   697   ar
  1464   611   610   ar
  1465   140   138    1
  1466   658   656   ar
  1467   658   659   ar
  1468   705   706    2
  1469   705   707    1
  1470   705   692    1
  1471   159   160    1
  1472   159   146    1
  1473   682   683   ar
  1474   660   659    1
  1475   694   695    1
  1476   694   690    1
  1477   382   383    1
  1478   678   679    1
  1479   678   677   ar
  1480   399   398    2
  1481   147   148    1
  1482   147   145    1
  1483   398   386    1
  1484   635   637   ar
  1485   635   634   ar
  1486   695   696   ar
  1487   137   130   ar
  1488  1451  1452    1
  1489   637   638   ar
  1490   131   130   ar
  1491   131   132    2
  1492   616   617   ar
  1493    94    95   ar
  1494   110   111   ar
  1495   110   109    1
  1496   103   104    1
  1497   602   603    1
  1498   656   655   ar
  1499   148   144    1
  1500  1447  1448    1
  1501  1447  1444    1
  1502  1433  1432    1
  1503  1433  1429    1
  1504  1389  1403    1
  1505   145   146    1
  1506   145   143    1
  1507    97    95   ar
  1508   111   112    2
  1509   119   120    1
  1510   119   122    1
  1511   119   107    1
  1512   692   691    1
  1513  1403  1404    1
  1514  1403  1406    1
  1515  1413  1409    1
  1516  1413  1412    1
  1517   659   661   ar
  1518   106   107    1
  1519   106   104    1
  1520   106   108    1
  1521   691   689    1
  1522   130   129    1
  1523  1432  1444    1
  1524   619   610   ar
  1525   619   618   ar
  1526   610   609    1
  1527    95    96    1
  1528  1409  1408    1
  1529   122   123    1
  1530   138   139    2
  1531   683   677   ar
  1532   683   674   ar
  1533   697   696   ar
  1534   104   105    1
  1535   677   676   ar
  1536   105   109    1
  1537   144   143    1
  1538   634   633   ar
  1539   634   640   ar
  1540   638   639   ar
  1541   690   689    1
  1542   617   618   ar
  1543   141   142    1
  1544   141   127    1
  1545   603   604    1
  1546   109   108    1
  1547  1444  1446    2
  1548   605   609    1
  1549   605   604    1
  1550   633   632   ar
  1551  1429  1428    1
  1552   143   142    1
  1553   689   688    1
  1554   655   662   ar
  1555   655   654   ar
  1556  1412  1410    1
  1557   126   127    1
  1558   126   128    1
  1559   126   124    1
  1560  1406  1407    1
  1561   661   662   ar
  1562   609   608    1
  1563  1430  1445    1
  1564   129   128    1
  1565   129   125    1
  1566   674   673    1
  1567   674   675   ar
  1568  1408  1410    1
  1569  1408  1407    1
  1570   640   639   ar
  1571   640   631   ar
  1572   604   606    1
  1573   123   124    1
  1574  1445  1431    1
  1575   662   652   ar
  1576  1410  1411    1
  1577   654   653   ar
  1578   676   675   ar
  1579   125   124    1
  1580   673   672    1
  1581   673   669    1
  1582   632   631   ar
  1583  1428  1427    1
  1584   672   670    1
  1585   606   608    1
  1586   606   607    1
  1587   688   687    1
  1588  1425  1423    2
  1589  1426  1427    1
  1590  1426  1423    1
  1591   631   630    1
  1592   622   620    2
  1593   653   652   ar
  1594   652   651    1
  1595  1411  1423    1
  1596   687   684    1
  1597   669   668    1
  1598  1423  1424    1
  1599   607   620    1
  1600   670   668    1
  1601   670   671    1
  1602   630   626    1
  1603   630   629    1
  1604   620   623    1
  1605   620   621    1
  1606   668   667    1
  1607   651   650    1
  1608   651   647    1
  1609   626   625    1
  1610   684   671    1
  1611   684   686    2
  1612   684   685    1
  1613   623   624    1
  1614   629   627    1
  1615   650   648    1
  1616   647   646    1
  1617   666   667    1
  1618   666   663    1
  1619   627   625    1
  1620   627   628    1
  1621   625   624    1
  1622   648   646    1
  1623   648   649    1
  1624   643   641    2
  1625   665   663    2
  1626   646   645    1
  1627   644   641    1
  1628   644   645    1
  1629   663   649    1
  1630   663   664    1
  1631   628   641    1
  1632   641   642    1
