FB1.pdb
  RxDock  10062023133D
librxdock.so/0.1.0
 59 58  0  0  0  0  0  0  0  0999 V2000
    3.4145   -7.1774   10.4213 C   0  0  0  0  0  0
    3.9570   -6.1863    9.3944 C   0  0  0  0  0  0
    4.7083   -6.8985    8.2574 C   0  0  0  0  0  0
    4.4995   -6.2391    6.8712 C   0  0  0  0  0  0
    5.1058   -4.7999    6.7252 C   0  0  0  0  0  0
    6.6400   -4.9312    6.5857 C   0  0  0  0  0  0
    4.4946   -3.9750    5.5152 C   0  0  0  0  0  0
    2.8972   -3.8918    5.4272 C   0  0  0  0  0  0
    1.9700   -4.9125    4.6357 C   0  0  0  0  0  0
    2.0419   -4.7928    2.9919 C   0  0  0  0  0  0
    1.3873   -3.4777    2.5722 C   0  0  0  0  0  0
    3.4950   -4.8982    2.3422 C   0  0  0  0  0  0
    3.8342   -4.5075    0.8089 C   0  0  0  0  0  0
    5.2934   -4.5354    0.2379 C   0  0  0  0  0  0
    5.8287   -3.2454   -0.5356 C   0  0  0  0  0  0
    6.1653   -1.8680    0.1602 C   0  0  0  0  0  0
    7.2186   -0.9254   -0.4798 C   0  0  0  0  0  0
    6.7439    0.5428   -0.8090 C   0  0  0  0  0  0
    6.5146    1.4682    0.3925 C   0  0  0  0  0  0
    5.1225    2.1434    0.5480 C   0  0  0  0  0  0
    4.9281    3.3401    1.5255 C   0  0  0  0  0  0
    5.2335    3.0730    2.9927 C   0  0  0  0  0  0
    5.6504    4.5335    1.0453 N   0  0  0  0  0  0
    4.8252    2.6800   -0.7663 O   0  0  0  0  0  0
    7.7231    1.1422   -1.6643 O   0  0  0  0  0  0
    3.1025   -5.4568    0.0152 O   0  0  0  0  0  0
    2.4112   -3.9510    6.7957 O   0  0  0  0  0  0
    2.2081   -2.7671    7.4300 C   0  0  0  0  0  0
    3.0411   -1.9019    7.6225 O   0  0  0  0  0  0
    0.7477   -2.6537    7.7702 C   0  0  0  0  0  0
    0.4540   -1.4907    8.7312 C   0  0  0  0  0  0
   -1.0315   -1.1086    8.7562 C   0  0  0  0  0  0
   -1.9096   -2.3372    8.8106 C   0  0  0  0  0  0
   -2.2681   -2.8689    9.8558 O   0  0  0  0  0  0
   -2.2643   -2.7944    7.6007 O   0  0  0  0  0  0
    0.8966   -1.9695   10.1207 C   0  0  0  0  0  0
    1.2631   -3.1128   10.3467 O   0  0  0  0  0  0
    0.8015   -1.0407   11.0821 O   0  0  0  0  0  0
    5.1262   -2.6375    5.4057 O   0  0  0  0  0  0
    4.4503   -1.6438    4.7175 C   0  0  0  0  0  0
    3.3710   -1.7937    4.1597 O   0  0  0  0  0  0
    5.2072   -0.3091    4.7264 C   0  0  0  0  0  0
    5.7900    0.1299    6.1056 C   0  0  0  0  0  0
    4.8300    0.7674    7.1266 C   0  0  0  0  0  0
    3.7409    1.5756    6.4825 C   0  0  0  0  0  0
    3.9033    2.5863    5.8126 O   0  0  0  0  0  0
    2.5217    1.0592    6.6999 O   0  0  0  0  0  0
    6.5752   -0.9621    6.8427 C   0  0  0  0  0  0
    7.7224   -1.2516    6.5655 O   0  0  0  0  0  0
    5.9448   -1.5156    7.8998 O   0  0  0  0  0  0
    5.1696    5.3697    1.3739 H   0  0  0  0  0  0
    5.5778    4.5712    0.0261 H   0  0  0  0  0  0
    4.0646    2.1488   -1.0834 H   0  0  0  0  0  0
    7.8303    0.5738   -2.4492 H   0  0  0  0  0  0
    3.4167   -6.3471    0.2458 H   0  0  0  0  0  0
   -2.7861   -3.6198    7.6038 H   0  0  0  0  0  0
    1.1400   -1.3291   11.9658 H   0  0  0  0  0  0
    1.8917    1.5931    6.1713 H   0  0  0  0  0  0
    4.9709   -1.6093    7.8057 H   0  0  0  0  0  0
  1  2  1  0  0  0
  2  3  1  0  0  0
  3  4  1  0  0  0
  4  5  1  0  0  0
  5  6  1  0  0  0
  5  7  1  0  0  0
  7  8  1  0  0  0
  7 39  1  0  0  0
  8  9  1  0  0  0
  8 27  1  0  0  0
  9 10  1  0  0  0
 10 11  1  0  0  0
 10 12  1  0  0  0
 12 13  1  0  0  0
 13 14  1  0  0  0
 13 26  1  0  0  0
 14 15  1  0  0  0
 15 16  1  0  0  0
 16 17  1  0  0  0
 17 18  1  0  0  0
 18 19  1  0  0  0
 18 25  1  0  0  0
 19 20  1  0  0  0
 20 21  1  0  0  0
 20 24  1  0  0  0
 21 22  1  0  0  0
 21 23  1  0  0  0
 23 51  1  0  0  0
 23 52  1  0  0  0
 24 53  1  0  0  0
 25 54  1  0  0  0
 26 55  1  0  0  0
 27 28  1  0  0  0
 28 29  2  0  0  0
 28 30  1  0  0  0
 30 31  1  0  0  0
 31 32  1  0  0  0
 31 36  1  0  0  0
 32 33  1  0  0  0
 33 34  2  0  0  0
 33 35  1  0  0  0
 35 56  1  0  0  0
 36 37  2  0  0  0
 36 38  1  0  0  0
 38 57  1  0  0  0
 39 40  1  0  0  0
 40 41  2  0  0  0
 40 42  1  0  0  0
 42 43  1  0  0  0
 43 44  1  0  0  0
 43 48  1  0  0  0
 44 45  1  0  0  0
 45 46  2  0  0  0
 45 47  1  0  0  0
 47 58  1  0  0  0
 48 49  2  0  0  0
 48 50  1  0  0  0
 50 59  1  0  0  0
M  END
>  <AUTHOR>
    GENERATED BY OPEN BABEL 2.4.1

>  <CHROM.1>
143.24933538,66.21087040,75.07873106,51.09293671,-90.77311652,-159.46912094
-71.99263063,92.79864455,-69.51269315,-166.81912142,175.82778921,-129.24192876
-60.12641658,70.37054673,153.01782894,123.99124149,71.37483066,-124.09358071
56.11168288,-165.15830768,-60.00955141,112.82357517,151.40297273,-58.29887002
168.56228665,163.02851514,43.94694422,-6.84311370,89.22341660,176.36539863
-176.30510848,-1.72000592,-45.40971101,-79.31212765,-32.90447910,79.28791390
-63.66673300,-174.30417347,35.02610145,3.71418638,-1.88725259,5.04821764
-2.75948306,1.08125517,0.00748053

>  <COMPND>
    UNNAMED

>  <MASTER>
        0    0    0    0    0    0    0    0  109    0  109    0

>  <Name>
FB1.pdb

>  <RI>
0

>  <Rbt.Current_Directory>
/cluster/tossine/FB1_39T3/p3/0_clust01

>  <Rbt.Executable>
rbdock/0.1.0

>  <Rbt.Library>
librxdock.so/0.1.0

>  <Rbt.Parameter_File>
/cluster/rxdock/data/scripts/dock.prm

>  <Rbt.Receptor>
rx_1.prm

>  <SCORE>
6.2762

>  <SCORE.INTER>
-12.2404

>  <SCORE.INTER.CONST>
1

>  <SCORE.INTER.POLAR>
-5.07238

>  <SCORE.INTER.REPUL>
0.0620912

>  <SCORE.INTER.ROT>
32

>  <SCORE.INTER.VDW>
-32.7048

>  <SCORE.INTER.norm>
-0.244809

>  <SCORE.INTRA>
18.5166

>  <SCORE.INTRA.DIHEDRAL>
39.9562

>  <SCORE.INTRA.DIHEDRAL.0>
47.3121

>  <SCORE.INTRA.POLAR>
0.29329

>  <SCORE.INTRA.POLAR.0>
-1.47808

>  <SCORE.INTRA.REPUL>
0.0162284

>  <SCORE.INTRA.REPUL.0>
0

>  <SCORE.INTRA.VDW>
-2.53981

>  <SCORE.INTRA.VDW.0>
-2.78316

>  <SCORE.INTRA.norm>
0.370333

>  <SCORE.RESTR>
0

>  <SCORE.RESTR.CAVITY>
0

>  <SCORE.RESTR.norm>
0

>  <SCORE.SYSTEM>
0

>  <SCORE.SYSTEM.CONST>
0

>  <SCORE.SYSTEM.DIHEDRAL>
0

>  <SCORE.SYSTEM.norm>
0

>  <SCORE.heavy>
50

>  <SCORE.norm>
0.125524

$$$$
