FB1.pdb
  RxDock  10072000303D
librxdock.so/0.1.0
 59 58  0  0  0  0  0  0  0  0999 V2000
    4.0765   -9.1322   12.4559 C   0  0  0  0  0  0
    3.7580   -8.6681   11.0366 C   0  0  0  0  0  0
    3.7198   -7.1343   10.9341 C   0  0  0  0  0  0
    3.6686   -6.6139    9.4760 C   0  0  0  0  0  0
    3.6146   -5.0528    9.3322 C   0  0  0  0  0  0
    4.9829   -4.4778    9.7654 C   0  0  0  0  0  0
    3.2302   -4.5643    7.8723 C   0  0  0  0  0  0
    4.2692   -4.8960    6.6990 C   0  0  0  0  0  0
    3.8737   -5.3629    5.2314 C   0  0  0  0  0  0
    5.1436   -5.7752    4.2625 C   0  0  0  0  0  0
    5.8580   -6.9745    4.8834 C   0  0  0  0  0  0
    4.7918   -6.0920    2.7392 C   0  0  0  0  0  0
    3.2986   -6.0234    2.1193 C   0  0  0  0  0  0
    2.3622   -4.7827    2.3191 C   0  0  0  0  0  0
    2.9369   -3.3355    1.9663 C   0  0  0  0  0  0
    3.8193   -3.0151    0.6962 C   0  0  0  0  0  0
    5.3569   -3.2121    0.7640 C   0  0  0  0  0  0
    6.1998   -2.5976   -0.4198 C   0  0  0  0  0  0
    5.7699   -1.2097   -0.9109 C   0  0  0  0  0  0
    6.3932    0.0402   -0.2271 C   0  0  0  0  0  0
    5.9814    1.4743   -0.6734 C   0  0  0  0  0  0
    6.4392    2.6192    0.2193 C   0  0  0  0  0  0
    6.3608    1.7168   -2.0782 N   0  0  0  0  0  0
    5.9792   -0.0548    1.1598 O   0  0  0  0  0  0
    7.5665   -2.5280    0.0009 O   0  0  0  0  0  0
    3.4835   -6.1289    0.6976 O   0  0  0  0  0  0
    5.0499   -3.6873    6.4939 O   0  0  0  0  0  0
    4.3686   -2.5641    6.1483 C   0  0  0  0  0  0
    3.1967   -2.5034    5.8281 O   0  0  0  0  0  0
    5.2801   -1.3812    6.3250 C   0  0  0  0  0  0
    4.6427   -0.2655    7.1684 C   0  0  0  0  0  0
    5.6769    0.7369    7.6968 C   0  0  0  0  0  0
    5.2586    1.2963    9.0368 C   0  0  0  0  0  0
    6.0343    1.4734    9.9698 O   0  0  0  0  0  0
    3.9509    1.5848    9.1107 O   0  0  0  0  0  0
    3.6466    0.4464    6.2427 C   0  0  0  0  0  0
    3.4978    0.1479    5.0674 O   0  0  0  0  0  0
    2.9847    1.4601    6.8174 O   0  0  0  0  0  0
    1.8476   -4.9687    7.5190 O   0  0  0  0  0  0
    0.9509   -3.9853    7.1358 C   0  0  0  0  0  0
    0.6003   -3.7738    5.9822 O   0  0  0  0  0  0
    0.4309   -3.1723    8.3287 C   0  0  0  0  0  0
    1.2537   -3.3035    9.6480 C   0  0  0  0  0  0
    1.5306   -2.0238   10.4580 C   0  0  0  0  0  0
    2.3912   -1.0382    9.7217 C   0  0  0  0  0  0
    3.6127   -0.9855    9.7649 O   0  0  0  0  0  0
    1.6730   -0.1950    8.9644 O   0  0  0  0  0  0
    0.7212   -4.3547   10.6297 C   0  0  0  0  0  0
    0.3842   -4.0861   11.7659 O   0  0  0  0  0  0
    0.5469   -5.5907   10.1168 O   0  0  0  0  0  0
    5.9431    2.5922   -2.3907 H   0  0  0  0  0  0
    5.9300    0.9962   -2.6620 H   0  0  0  0  0  0
    6.5840    0.5496    1.6397 H   0  0  0  0  0  0
    7.9175   -3.4364    0.0461 H   0  0  0  0  0  0
    4.2099   -5.5352    0.4439 H   0  0  0  0  0  0
    3.7111    2.2664    9.7676 H   0  0  0  0  0  0
    2.3648    1.9398    6.2137 H   0  0  0  0  0  0
    2.3120    0.4144    8.5384 H   0  0  0  0  0  0
    0.8591   -5.7094    9.1923 H   0  0  0  0  0  0
  1  2  1  0  0  0
  2  3  1  0  0  0
  3  4  1  0  0  0
  4  5  1  0  0  0
  5  6  1  0  0  0
  5  7  1  0  0  0
  7  8  1  0  0  0
  7 39  1  0  0  0
  8  9  1  0  0  0
  8 27  1  0  0  0
  9 10  1  0  0  0
 10 11  1  0  0  0
 10 12  1  0  0  0
 12 13  1  0  0  0
 13 14  1  0  0  0
 13 26  1  0  0  0
 14 15  1  0  0  0
 15 16  1  0  0  0
 16 17  1  0  0  0
 17 18  1  0  0  0
 18 19  1  0  0  0
 18 25  1  0  0  0
 19 20  1  0  0  0
 20 21  1  0  0  0
 20 24  1  0  0  0
 21 22  1  0  0  0
 21 23  1  0  0  0
 23 51  1  0  0  0
 23 52  1  0  0  0
 24 53  1  0  0  0
 25 54  1  0  0  0
 26 55  1  0  0  0
 27 28  1  0  0  0
 28 29  2  0  0  0
 28 30  1  0  0  0
 30 31  1  0  0  0
 31 32  1  0  0  0
 31 36  1  0  0  0
 32 33  1  0  0  0
 33 34  2  0  0  0
 33 35  1  0  0  0
 35 56  1  0  0  0
 36 37  2  0  0  0
 36 38  1  0  0  0
 38 57  1  0  0  0
 39 40  1  0  0  0
 40 41  2  0  0  0
 40 42  1  0  0  0
 42 43  1  0  0  0
 43 44  1  0  0  0
 43 48  1  0  0  0
 44 45  1  0  0  0
 45 46  2  0  0  0
 45 47  1  0  0  0
 47 58  1  0  0  0
 48 49  2  0  0  0
 48 50  1  0  0  0
 50 59  1  0  0  0
M  END
>  <AUTHOR>
    GENERATED BY OPEN BABEL 2.4.1

>  <CHROM.1>
169.05173472,179.43389026,69.57028345,-65.26373009,139.97951422,123.96702716
-174.46108322,-59.26395909,62.57963218,0.28505063,50.14857715,51.42730698
-45.55777559,41.78284875,-86.39074903,-167.71057497,41.05477777,89.07037715
70.50781784,-179.28244890,168.86799315,162.75319396,170.45139563,-10.02091254
-128.65447098,163.07043481,-148.16200406,-2.53941727,138.66009847,-155.17869029
178.01795380,103.88959255,16.13716462,137.31224365,-64.39810500,-121.58578688
-90.46581189,179.06313955,5.54143717,3.85311642,-2.81256383,5.90890301,3.04929380
1.28389734,0.44639342

>  <COMPND>
    UNNAMED

>  <MASTER>
        0    0    0    0    0    0    0    0  109    0  109    0

>  <Name>
FB1.pdb

>  <RI>
0

>  <Rbt.Current_Directory>
/cluster/tossine/FB1_39T3/p3/0_clust01

>  <Rbt.Executable>
rbdock/0.1.0

>  <Rbt.Library>
librxdock.so/0.1.0

>  <Rbt.Parameter_File>
/cluster/rxdock/data/scripts/dock.prm

>  <Rbt.Receptor>
rx_3.prm

>  <SCORE>
9.05538

>  <SCORE.INTER>
-0.817662

>  <SCORE.INTER.CONST>
1

>  <SCORE.INTER.POLAR>
-2.68463

>  <SCORE.INTER.REPUL>
0.1351

>  <SCORE.INTER.ROT>
32

>  <SCORE.INTER.VDW>
-29.7654

>  <SCORE.INTER.norm>
-0.0163532

>  <SCORE.INTRA>
9.86787

>  <SCORE.INTRA.DIHEDRAL>
29.7514

>  <SCORE.INTRA.DIHEDRAL.0>
47.3121

>  <SCORE.INTRA.POLAR>
-1.26887

>  <SCORE.INTRA.POLAR.0>
-1.47808

>  <SCORE.INTRA.REPUL>
0.597678

>  <SCORE.INTRA.REPUL.0>
0

>  <SCORE.INTRA.VDW>
-3.68207

>  <SCORE.INTRA.VDW.0>
-2.78316

>  <SCORE.INTRA.norm>
0.197357

>  <SCORE.RESTR>
0.0051656

>  <SCORE.RESTR.CAVITY>
0.0051656

>  <SCORE.RESTR.norm>
0.000103312

>  <SCORE.SYSTEM>
0

>  <SCORE.SYSTEM.CONST>
0

>  <SCORE.SYSTEM.DIHEDRAL>
0

>  <SCORE.SYSTEM.norm>
0

>  <SCORE.heavy>
50

>  <SCORE.norm>
0.181108

$$$$
