FB1.pdb
  RxDock  10072000323D
librxdock.so/0.1.0
 59 58  0  0  0  0  0  0  0  0999 V2000
    9.0213   -3.8819    6.2443 C   0  0  0  0  0  0
    8.0806   -4.5726    7.2289 C   0  0  0  0  0  0
    6.7669   -3.7929    7.4037 C   0  0  0  0  0  0
    5.8984   -4.3024    8.5809 C   0  0  0  0  0  0
    4.3780   -3.9269    8.4922 C   0  0  0  0  0  0
    4.2669   -2.4006    8.2718 C   0  0  0  0  0  0
    3.5942   -4.7217    7.3644 C   0  0  0  0  0  0
    4.3319   -4.8955    5.9531 C   0  0  0  0  0  0
    3.7479   -5.6925    4.7074 C   0  0  0  0  0  0
    4.8212   -5.9623    3.4840 C   0  0  0  0  0  0
    5.6173   -7.2257    3.8070 C   0  0  0  0  0  0
    4.2020   -6.0802    2.0186 C   0  0  0  0  0  0
    3.3192   -4.9234    1.3105 C   0  0  0  0  0  0
    3.8276   -3.4479    1.1672 C   0  0  0  0  0  0
    5.2313   -3.1969    0.4489 C   0  0  0  0  0  0
    5.4552   -3.2658   -1.1130 C   0  0  0  0  0  0
    6.8392   -2.8887   -1.7044 C   0  0  0  0  0  0
    6.9478   -2.8521   -3.2779 C   0  0  0  0  0  0
    6.5467   -1.5362   -3.9563 C   0  0  0  0  0  0
    5.1452   -0.9411   -3.6402 C   0  0  0  0  0  0
    4.8542    0.5696   -3.8820 C   0  0  0  0  0  0
    5.5177    1.2014   -5.0977 C   0  0  0  0  0  0
    3.4025    0.8324   -3.8774 N   0  0  0  0  0  0
    4.2385   -1.6447   -4.5271 O   0  0  0  0  0  0
    8.3013   -3.1534   -3.6344 O   0  0  0  0  0  0
    3.1190   -5.3838   -0.0365 O   0  0  0  0  0  0
    4.5607   -3.5527    5.4461 O   0  0  0  0  0  0
    3.4740   -2.8653    5.0080 C   0  0  0  0  0  0
    2.3593   -2.8962    5.4938 O   0  0  0  0  0  0
    3.9002   -1.9729    3.8752 C   0  0  0  0  0  0
    4.0315   -0.5016    4.3001 C   0  0  0  0  0  0
    4.0848   -0.3313    5.8237 C   0  0  0  0  0  0
    4.3299    1.1107    6.2029 C   0  0  0  0  0  0
    5.1173    1.4579    7.0765 O   0  0  0  0  0  0
    3.6022    1.9821    5.4888 O   0  0  0  0  0  0
    5.3358    0.0049    3.6690 C   0  0  0  0  0  0
    6.3358    0.2638    4.3214 O   0  0  0  0  0  0
    5.2739    0.1884    2.3430 O   0  0  0  0  0  0
    3.0747   -6.0114    7.8809 O   0  0  0  0  0  0
    1.8990   -6.5103    7.3453 C   0  0  0  0  0  0
    1.5135   -6.3067    6.2015 O   0  0  0  0  0  0
    1.1140   -7.3617    8.3519 C   0  0  0  0  0  0
    0.0240   -6.6059    9.1736 C   0  0  0  0  0  0
   -0.7249   -7.3851   10.2701 C   0  0  0  0  0  0
   -1.8729   -8.1922    9.7361 C   0  0  0  0  0  0
   -1.8117   -9.3517    9.3508 O   0  0  0  0  0  0
   -3.0262   -7.5064    9.7358 O   0  0  0  0  0  0
    0.4962   -5.2868    9.7975 C   0  0  0  0  0  0
    0.8980   -5.2040   10.9413 O   0  0  0  0  0  0
    0.5394   -4.2314    8.9575 O   0  0  0  0  0  0
    3.0684    0.8458   -2.9148 H   0  0  0  0  0  0
    2.9255    0.0386   -4.3108 H   0  0  0  0  0  0
    4.1419   -2.5342   -4.1260 H   0  0  0  0  0  0
    8.4492   -4.1060   -3.4893 H   0  0  0  0  0  0
    3.9907   -5.4708   -0.4573 H   0  0  0  0  0  0
    2.7852    1.6191    5.0960 H   0  0  0  0  0  0
    4.6636   -0.4312    1.8714 H   0  0  0  0  0  0
   -3.6956   -8.0820    9.3095 H   0  0  0  0  0  0
    0.2475   -4.4153    8.0371 H   0  0  0  0  0  0
  1  2  1  0  0  0
  2  3  1  0  0  0
  3  4  1  0  0  0
  4  5  1  0  0  0
  5  6  1  0  0  0
  5  7  1  0  0  0
  7  8  1  0  0  0
  7 39  1  0  0  0
  8  9  1  0  0  0
  8 27  1  0  0  0
  9 10  1  0  0  0
 10 11  1  0  0  0
 10 12  1  0  0  0
 12 13  1  0  0  0
 13 14  1  0  0  0
 13 26  1  0  0  0
 14 15  1  0  0  0
 15 16  1  0  0  0
 16 17  1  0  0  0
 17 18  1  0  0  0
 18 19  1  0  0  0
 18 25  1  0  0  0
 19 20  1  0  0  0
 20 21  1  0  0  0
 20 24  1  0  0  0
 21 22  1  0  0  0
 21 23  1  0  0  0
 23 51  1  0  0  0
 23 52  1  0  0  0
 24 53  1  0  0  0
 25 54  1  0  0  0
 26 55  1  0  0  0
 27 28  1  0  0  0
 28 29  2  0  0  0
 28 30  1  0  0  0
 30 31  1  0  0  0
 31 32  1  0  0  0
 31 36  1  0  0  0
 32 33  1  0  0  0
 33 34  2  0  0  0
 33 35  1  0  0  0
 35 56  1  0  0  0
 36 37  2  0  0  0
 36 38  1  0  0  0
 38 57  1  0  0  0
 39 40  1  0  0  0
 40 41  2  0  0  0
 40 42  1  0  0  0
 42 43  1  0  0  0
 43 44  1  0  0  0
 43 48  1  0  0  0
 44 45  1  0  0  0
 45 46  2  0  0  0
 45 47  1  0  0  0
 47 58  1  0  0  0
 48 49  2  0  0  0
 48 50  1  0  0  0
 50 59  1  0  0  0
M  END
>  <AUTHOR>
    GENERATED BY OPEN BABEL 2.4.1

>  <CHROM.1>
-169.12128078,-158.74055870,-52.40901934,-42.42992827,177.97733035,148.97197968
-168.85360709,-71.86971804,84.84782669,57.93334886,53.86367235,55.15085194
-61.15500065,76.36785963,174.99344647,-174.49366553,86.12266797,-53.82557188
73.48983664,159.18433391,36.18958302,75.20367604,77.60831379,36.75036546
-103.56040259,15.92882472,175.24043180,-109.60953861,-136.29983995,23.39226520
-31.61115087,29.36783462,93.41917938,-175.65292533,-83.13675786,-95.40051373
90.23883800,175.63936227,1.09276739,3.82654371,-3.48331265,4.13083920,-2.24369622
-0.97614039,-1.75298916

>  <COMPND>
    UNNAMED

>  <MASTER>
        0    0    0    0    0    0    0    0  109    0  109    0

>  <Name>
FB1.pdb

>  <RI>
0

>  <Rbt.Current_Directory>
/cluster/tossine/FB1_39T3/p3/0_clust01

>  <Rbt.Executable>
rbdock/0.1.0

>  <Rbt.Library>
librxdock.so/0.1.0

>  <Rbt.Parameter_File>
/cluster/rxdock/data/scripts/dock.prm

>  <Rbt.Receptor>
rx_3.prm

>  <SCORE>
11.6596

>  <SCORE.INTER>
-0.202977

>  <SCORE.INTER.CONST>
1

>  <SCORE.INTER.POLAR>
-4.58242

>  <SCORE.INTER.REPUL>
1.22419

>  <SCORE.INTER.ROT>
32

>  <SCORE.INTER.VDW>
-28.1437

>  <SCORE.INTER.norm>
-0.00405954

>  <SCORE.INTRA>
11.7854

>  <SCORE.INTRA.DIHEDRAL>
15.0799

>  <SCORE.INTRA.DIHEDRAL.0>
47.3121

>  <SCORE.INTRA.POLAR>
1.30862

>  <SCORE.INTRA.POLAR.0>
-1.47808

>  <SCORE.INTRA.REPUL>
0

>  <SCORE.INTRA.REPUL.0>
0

>  <SCORE.INTRA.VDW>
-0.203858

>  <SCORE.INTRA.VDW.0>
-2.78316

>  <SCORE.INTRA.norm>
0.235708

>  <SCORE.RESTR>
0.0771681

>  <SCORE.RESTR.CAVITY>
0.0771681

>  <SCORE.RESTR.norm>
0.00154336

>  <SCORE.SYSTEM>
0

>  <SCORE.SYSTEM.CONST>
0

>  <SCORE.SYSTEM.DIHEDRAL>
0

>  <SCORE.SYSTEM.norm>
0

>  <SCORE.heavy>
50

>  <SCORE.norm>
0.233192

$$$$
