FB1.pdb
  RxDock  10072001073D
librxdock.so/0.1.0
 59 58  0  0  0  0  0  0  0  0999 V2000
    2.0853   -0.7497    5.5302 C   0  0  0  0  0  0
    1.6593   -1.3320    6.8758 C   0  0  0  0  0  0
    0.1830   -1.7619    6.8685 C   0  0  0  0  0  0
   -0.0126   -3.2983    6.8383 C   0  0  0  0  0  0
    0.6842   -4.0771    8.0080 C   0  0  0  0  0  0
   -0.4122   -4.5959    8.9668 C   0  0  0  0  0  0
    1.6135   -5.2643    7.5132 C   0  0  0  0  0  0
    2.8488   -4.8745    6.5707 C   0  0  0  0  0  0
    2.7619   -3.9373    5.2892 C   0  0  0  0  0  0
    3.7900   -4.3339    4.0616 C   0  0  0  0  0  0
    3.4664   -5.7530    3.5971 C   0  0  0  0  0  0
    3.7994   -3.3494    2.8065 C   0  0  0  0  0  0
    4.5443   -3.6708    1.4063 C   0  0  0  0  0  0
    5.5428   -2.6660    0.7358 C   0  0  0  0  0  0
    5.1405   -1.1219    0.6805 C   0  0  0  0  0  0
    6.1655    0.0553    0.4396 C   0  0  0  0  0  0
    5.7796    1.2237   -0.5055 C   0  0  0  0  0  0
    6.7687    2.4522   -0.5491 C   0  0  0  0  0  0
    6.7451    3.2984   -1.8281 C   0  0  0  0  0  0
    7.2118    4.7792   -1.7412 C   0  0  0  0  0  0
    8.6402    5.1300   -1.2292 C   0  0  0  0  0  0
    9.7983    4.4107   -1.9065 C   0  0  0  0  0  0
    8.8543    6.5897   -1.2283 N   0  0  0  0  0  0
    7.1758    5.2570   -3.1102 O   0  0  0  0  0  0
    6.4676    3.3013    0.5636 O   0  0  0  0  0  0
    5.3187   -4.8544    1.6629 O   0  0  0  0  0  0
    3.8240   -4.2218    7.4283 O   0  0  0  0  0  0
    5.1297   -4.3258    7.0681 C   0  0  0  0  0  0
    5.6075   -5.1659    6.3297 O   0  0  0  0  0  0
    5.8796   -3.1621    7.6553 C   0  0  0  0  0  0
    6.6261   -2.3429    6.5904 C   0  0  0  0  0  0
    6.3402   -0.8394    6.6969 C   0  0  0  0  0  0
    5.5003   -0.5292    7.9141 C   0  0  0  0  0  0
    5.8646   -0.7504    9.0639 O   0  0  0  0  0  0
    4.3113    0.0163    7.6180 O   0  0  0  0  0  0
    8.1195   -2.6113    6.8219 C   0  0  0  0  0  0
    8.5557   -3.6979    7.1702 O   0  0  0  0  0  0
    8.9061   -1.5387    6.6581 O   0  0  0  0  0  0
    2.0310   -6.1255    8.6463 O   0  0  0  0  0  0
    1.3132   -7.2839    8.8930 C   0  0  0  0  0  0
    0.2334   -7.5557    8.3846 O   0  0  0  0  0  0
    2.0244   -8.2106    9.8879 C   0  0  0  0  0  0
    1.3617   -8.3295   11.2955 C   0  0  0  0  0  0
    2.1485   -9.0476   12.4071 C   0  0  0  0  0  0
    2.6948  -10.3773   11.9738 C   0  0  0  0  0  0
    2.4598  -10.9328   10.9095 O   0  0  0  0  0  0
    3.5140  -10.9183   12.8885 O   0  0  0  0  0  0
    0.8621   -7.0021   11.8793 C   0  0  0  0  0  0
    1.1932   -5.9199   11.4366 O   0  0  0  0  0  0
   -0.0611   -7.1104   12.8577 O   0  0  0  0  0  0
    8.4658    6.9837   -0.3725 H   0  0  0  0  0  0
    8.3008    7.0015   -1.9829 H   0  0  0  0  0  0
    6.2546    5.0943   -3.4041 H   0  0  0  0  0  0
    6.6738    2.8141    1.3826 H   0  0  0  0  0  0
    5.7847   -5.0923    0.8439 H   0  0  0  0  0  0
    3.7428    0.2182    8.3858 H   0  0  0  0  0  0
    9.8510   -1.6801    6.9147 H   0  0  0  0  0  0
    3.8034  -11.7838   12.5302 H   0  0  0  0  0  0
   -0.2549   -8.0280   13.1521 H   0  0  0  0  0  0
  1  2  1  0  0  0
  2  3  1  0  0  0
  3  4  1  0  0  0
  4  5  1  0  0  0
  5  6  1  0  0  0
  5  7  1  0  0  0
  7  8  1  0  0  0
  7 39  1  0  0  0
  8  9  1  0  0  0
  8 27  1  0  0  0
  9 10  1  0  0  0
 10 11  1  0  0  0
 10 12  1  0  0  0
 12 13  1  0  0  0
 13 14  1  0  0  0
 13 26  1  0  0  0
 14 15  1  0  0  0
 15 16  1  0  0  0
 16 17  1  0  0  0
 17 18  1  0  0  0
 18 19  1  0  0  0
 18 25  1  0  0  0
 19 20  1  0  0  0
 20 21  1  0  0  0
 20 24  1  0  0  0
 21 22  1  0  0  0
 21 23  1  0  0  0
 23 51  1  0  0  0
 23 52  1  0  0  0
 24 53  1  0  0  0
 25 54  1  0  0  0
 26 55  1  0  0  0
 27 28  1  0  0  0
 28 29  2  0  0  0
 28 30  1  0  0  0
 30 31  1  0  0  0
 31 32  1  0  0  0
 31 36  1  0  0  0
 32 33  1  0  0  0
 33 34  2  0  0  0
 33 35  1  0  0  0
 35 56  1  0  0  0
 36 37  2  0  0  0
 36 38  1  0  0  0
 38 57  1  0  0  0
 39 40  1  0  0  0
 40 41  2  0  0  0
 40 42  1  0  0  0
 42 43  1  0  0  0
 43 44  1  0  0  0
 43 48  1  0  0  0
 44 45  1  0  0  0
 45 46  2  0  0  0
 45 47  1  0  0  0
 47 58  1  0  0  0
 48 49  2  0  0  0
 48 50  1  0  0  0
 50 59  1  0  0  0
M  END
>  <AUTHOR>
    GENERATED BY OPEN BABEL 2.4.1

>  <CHROM.1>
106.97476417,56.46185259,108.82865923,60.88259276,-48.58345008,96.65081356
-146.25906355,151.47524084,60.30560317,-169.75814686,-128.53008232,-44.24424100
179.69828159,161.38919257,138.02485525,172.16475447,155.40688430,155.45280439
65.42239872,57.73319944,52.20060528,56.22358654,83.27708576,-20.39717037
-123.87170382,129.75025256,5.66409971,36.41362131,61.84785437,179.35079006
172.79007860,-12.02618598,109.59158327,-169.82740581,-49.20743262,-14.82341029
-6.81916851,178.83824234,5.48645772,4.24661843,-2.92088965,5.69466450,1.17710664
-0.50968827,-1.00506422

>  <COMPND>
    UNNAMED

>  <MASTER>
        0    0    0    0    0    0    0    0  109    0  109    0

>  <Name>
FB1.pdb

>  <RI>
0

>  <Rbt.Current_Directory>
/cluster/tossine/FB1_39T3/p3/0_clust01

>  <Rbt.Executable>
rbdock/0.1.0

>  <Rbt.Library>
librxdock.so/0.1.0

>  <Rbt.Parameter_File>
/cluster/rxdock/data/scripts/dock.prm

>  <Rbt.Receptor>
rx_4.prm

>  <SCORE>
16.8702

>  <SCORE.INTER>
-2.99657

>  <SCORE.INTER.CONST>
1

>  <SCORE.INTER.POLAR>
-2.38609

>  <SCORE.INTER.REPUL>
0.140326

>  <SCORE.INTER.ROT>
32

>  <SCORE.INTER.VDW>
-32.9855

>  <SCORE.INTER.norm>
-0.0599314

>  <SCORE.INTRA>
19.3451

>  <SCORE.INTRA.DIHEDRAL>
24.8469

>  <SCORE.INTRA.DIHEDRAL.0>
47.3121

>  <SCORE.INTRA.POLAR>
1.4386

>  <SCORE.INTRA.POLAR.0>
-1.47808

>  <SCORE.INTRA.REPUL>
0

>  <SCORE.INTRA.REPUL.0>
0

>  <SCORE.INTRA.VDW>
2.03044

>  <SCORE.INTRA.VDW.0>
-2.78316

>  <SCORE.INTRA.norm>
0.386902

>  <SCORE.RESTR>
0.521633

>  <SCORE.RESTR.CAVITY>
0.521633

>  <SCORE.RESTR.norm>
0.0104327

>  <SCORE.SYSTEM>
0

>  <SCORE.SYSTEM.CONST>
0

>  <SCORE.SYSTEM.DIHEDRAL>
0

>  <SCORE.SYSTEM.norm>
0

>  <SCORE.heavy>
50

>  <SCORE.norm>
0.337403

$$$$
