FB1.pdb
  RxDock  10062022323D
librxdock.so/0.1.0
 59 58  0  0  0  0  0  0  0  0999 V2000
    3.0802    0.8833    8.4649 C   0  0  0  0  0  0
    4.5010    0.8506    9.0232 C   0  0  0  0  0  0
    5.1119   -0.5582    8.9434 C   0  0  0  0  0  0
    5.7059   -0.8959    7.5532 C   0  0  0  0  0  0
    4.6601   -0.9662    6.3862 C   0  0  0  0  0  0
    4.7338    0.3559    5.5880 C   0  0  0  0  0  0
    4.8600   -2.2176    5.4313 C   0  0  0  0  0  0
    4.7155   -3.6680    6.0959 C   0  0  0  0  0  0
    5.3765   -4.1141    7.4715 C   0  0  0  0  0  0
    5.2385   -5.7194    7.8257 C   0  0  0  0  0  0
    6.2810   -6.4866    7.0140 C   0  0  0  0  0  0
    5.3648   -6.1128    9.3665 C   0  0  0  0  0  0
    5.4197   -7.6350    9.9130 C   0  0  0  0  0  0
    5.6268   -7.9766   11.4284 C   0  0  0  0  0  0
    4.4354   -7.6650   12.4446 C   0  0  0  0  0  0
    3.3534   -8.7231   12.8967 C   0  0  0  0  0  0
    3.7901   -9.9519   13.7372 C   0  0  0  0  0  0
    2.9806  -11.2867   13.5088 C   0  0  0  0  0  0
    3.1649  -11.9686   12.1474 C   0  0  0  0  0  0
    2.1847  -13.1107   11.7561 C   0  0  0  0  0  0
    2.1741  -14.4509   12.5493 C   0  0  0  0  0  0
    1.5192  -15.6404   11.8610 C   0  0  0  0  0  0
    3.5297  -14.7943   13.0191 N   0  0  0  0  0  0
    0.8638  -12.5459   11.9555 O   0  0  0  0  0  0
    3.3554  -12.2117   14.5353 O   0  0  0  0  0  0
    4.1405   -8.1960    9.5733 O   0  0  0  0  0  0
    3.2920   -3.8843    6.2938 O   0  0  0  0  0  0
    2.8167   -5.1317    6.0416 C   0  0  0  0  0  0
    3.4402   -6.0536    5.5511 O   0  0  0  0  0  0
    1.4098   -5.2198    6.5654 C   0  0  0  0  0  0
    1.3459   -5.1547    8.0997 C   0  0  0  0  0  0
    1.0611   -3.7390    8.6175 C   0  0  0  0  0  0
    1.8864   -3.4315    9.8454 C   0  0  0  0  0  0
    1.6424   -3.8858   10.9579 O   0  0  0  0  0  0
    2.9192   -2.6107    9.6032 O   0  0  0  0  0  0
    0.2134   -6.1038    8.5154 C   0  0  0  0  0  0
   -0.9081   -5.7166    8.8064 O   0  0  0  0  0  0
    0.5694   -7.3941    8.5815 O   0  0  0  0  0  0
    4.0425   -2.0879    4.2005 O   0  0  0  0  0  0
    4.1649   -3.0608    3.2225 C   0  0  0  0  0  0
    4.7012   -4.1489    3.3860 O   0  0  0  0  0  0
    3.5465   -2.6270    1.8869 C   0  0  0  0  0  0
    3.8053   -3.5805    0.6792 C   0  0  0  0  0  0
    5.2576   -3.7674    0.2035 C   0  0  0  0  0  0
    5.4646   -3.3544   -1.2252 C   0  0  0  0  0  0
    4.6833   -2.6958   -1.8979 O   0  0  0  0  0  0
    6.6413   -3.7734   -1.7152 O   0  0  0  0  0  0
    3.1941   -4.9792    0.8288 C   0  0  0  0  0  0
    3.6130   -5.8018    1.6191 O   0  0  0  0  0  0
    2.0835   -5.2075    0.0969 O   0  0  0  0  0  0
    3.8218  -14.1158   13.7212 H   0  0  0  0  0  0
    4.1852  -14.6703   12.2442 H   0  0  0  0  0  0
    0.2590  -13.1634   11.4927 H   0  0  0  0  0  0
    2.9641  -11.9089   15.3754 H   0  0  0  0  0  0
    3.4531   -7.6570    9.9993 H   0  0  0  0  0  0
    3.0284   -2.3424    8.6707 H   0  0  0  0  0  0
   -0.1636   -8.0093    8.8326 H   0  0  0  0  0  0
    6.7172   -3.4031   -2.6199 H   0  0  0  0  0  0
    1.6630   -6.0852    0.2349 H   0  0  0  0  0  0
  1  2  1  0  0  0
  2  3  1  0  0  0
  3  4  1  0  0  0
  4  5  1  0  0  0
  5  6  1  0  0  0
  5  7  1  0  0  0
  7  8  1  0  0  0
  7 39  1  0  0  0
  8  9  1  0  0  0
  8 27  1  0  0  0
  9 10  1  0  0  0
 10 11  1  0  0  0
 10 12  1  0  0  0
 12 13  1  0  0  0
 13 14  1  0  0  0
 13 26  1  0  0  0
 14 15  1  0  0  0
 15 16  1  0  0  0
 16 17  1  0  0  0
 17 18  1  0  0  0
 18 19  1  0  0  0
 18 25  1  0  0  0
 19 20  1  0  0  0
 20 21  1  0  0  0
 20 24  1  0  0  0
 21 22  1  0  0  0
 21 23  1  0  0  0
 23 51  1  0  0  0
 23 52  1  0  0  0
 24 53  1  0  0  0
 25 54  1  0  0  0
 26 55  1  0  0  0
 27 28  1  0  0  0
 28 29  2  0  0  0
 28 30  1  0  0  0
 30 31  1  0  0  0
 31 32  1  0  0  0
 31 36  1  0  0  0
 32 33  1  0  0  0
 33 34  2  0  0  0
 33 35  1  0  0  0
 35 56  1  0  0  0
 36 37  2  0  0  0
 36 38  1  0  0  0
 38 57  1  0  0  0
 39 40  1  0  0  0
 40 41  2  0  0  0
 40 42  1  0  0  0
 42 43  1  0  0  0
 43 44  1  0  0  0
 43 48  1  0  0  0
 44 45  1  0  0  0
 45 46  2  0  0  0
 45 47  1  0  0  0
 47 58  1  0  0  0
 48 49  2  0  0  0
 48 50  1  0  0  0
 50 59  1  0  0  0
M  END
>  <AUTHOR>
    GENERATED BY OPEN BABEL 2.4.1

>  <CHROM.1>
82.28881469,-64.85188017,100.89950396,61.60602134,-45.86408004,176.14223830
-172.10653632,140.38251423,78.59976582,-173.11330357,176.40632063,70.48666628
-58.71832622,95.15454707,65.60866618,-147.50915737,68.57147513,-167.67605101
72.09597692,-65.76649041,-161.78559137,165.49460706,67.29040468,-7.16121753
-67.78249171,96.04339705,-139.88364901,-99.95966031,-75.21312952,-2.08872526
-178.90151499,14.35649336,172.17596338,-63.93595969,-120.11082002,-70.21099253
13.95189936,-175.81428254,-176.49177620,3.51987072,-5.81115867,7.38910958
-0.14306716,1.44638808,0.86319003

>  <COMPND>
    UNNAMED

>  <MASTER>
        0    0    0    0    0    0    0    0  109    0  109    0

>  <Name>
FB1.pdb

>  <RI>
0

>  <Rbt.Current_Directory>
/cluster/tossine/FB1_39T3/p3/0_clust01

>  <Rbt.Executable>
rbdock/0.1.0

>  <Rbt.Library>
librxdock.so/0.1.0

>  <Rbt.Parameter_File>
/cluster/rxdock/data/scripts/dock.prm

>  <Rbt.Receptor>
rx_0.prm

>  <SCORE>
1.83051

>  <SCORE.INTER>
2.05643

>  <SCORE.INTER.CONST>
1

>  <SCORE.INTER.POLAR>
-2.70295

>  <SCORE.INTER.REPUL>
0.852923

>  <SCORE.INTER.ROT>
32

>  <SCORE.INTER.VDW>
-30.4182

>  <SCORE.INTER.norm>
0.0411285

>  <SCORE.INTRA>
-0.225913

>  <SCORE.INTRA.DIHEDRAL>
6.19338

>  <SCORE.INTRA.DIHEDRAL.0>
47.3121

>  <SCORE.INTRA.POLAR>
0.618399

>  <SCORE.INTRA.POLAR.0>
-1.47808

>  <SCORE.INTRA.REPUL>
0

>  <SCORE.INTRA.REPUL.0>
0

>  <SCORE.INTRA.VDW>
-5.42516

>  <SCORE.INTRA.VDW.0>
-2.78316

>  <SCORE.INTRA.norm>
-0.00451826

>  <SCORE.RESTR>
0

>  <SCORE.RESTR.CAVITY>
0

>  <SCORE.RESTR.norm>
0

>  <SCORE.SYSTEM>
0

>  <SCORE.SYSTEM.CONST>
0

>  <SCORE.SYSTEM.DIHEDRAL>
0

>  <SCORE.SYSTEM.norm>
0

>  <SCORE.heavy>
50

>  <SCORE.norm>
0.0366103

$$$$
