FB1.pdb
  RxDock  10062023103D
librxdock.so/0.1.0
 59 58  0  0  0  0  0  0  0  0999 V2000
    6.8209   -8.1952    9.7570 C   0  0  0  0  0  0
    5.9292   -7.1413    9.1047 C   0  0  0  0  0  0
    6.7538   -6.0892    8.3447 C   0  0  0  0  0  0
    5.8867   -5.0182    7.6371 C   0  0  0  0  0  0
    4.9747   -4.1698    8.5905 C   0  0  0  0  0  0
    5.8620   -3.1297    9.3126 C   0  0  0  0  0  0
    3.7641   -3.4638    7.8461 C   0  0  0  0  0  0
    2.8512   -4.3872    6.9080 C   0  0  0  0  0  0
    3.3053   -5.0109    5.5176 C   0  0  0  0  0  0
    2.2222   -4.8364    4.2857 C   0  0  0  0  0  0
    1.7013   -3.4002    4.2976 C   0  0  0  0  0  0
    2.7527   -5.2008    2.8261 C   0  0  0  0  0  0
    3.7884   -4.2874    1.9825 C   0  0  0  0  0  0
    4.7310   -4.8843    0.8818 C   0  0  0  0  0  0
    5.3529   -3.8911   -0.2026 C   0  0  0  0  0  0
    4.5087   -3.1356   -1.3031 C   0  0  0  0  0  0
    5.2392   -2.2965   -2.3847 C   0  0  0  0  0  0
    6.3734   -3.0301   -3.1999 C   0  0  0  0  0  0
    6.6946   -2.4553   -4.5852 C   0  0  0  0  0  0
    5.7579   -2.8223   -5.7710 C   0  0  0  0  0  0
    5.8642   -2.0643   -7.1273 C   0  0  0  0  0  0
    4.8093   -2.3961   -8.1734 C   0  0  0  0  0  0
    5.9514   -0.6077   -6.9099 N   0  0  0  0  0  0
    6.0844   -4.2003   -6.0845 O   0  0  0  0  0  0
    7.5679   -3.0099   -2.4110 O   0  0  0  0  0  0
    2.9630   -3.3338    1.2927 O   0  0  0  0  0  0
    2.4749   -5.5376    7.7126 O   0  0  0  0  0  0
    1.3400   -6.1941    7.3574 C   0  0  0  0  0  0
    1.0461   -6.5693    6.2384 O   0  0  0  0  0  0
    0.5432   -6.4746    8.6016 C   0  0  0  0  0  0
    1.0233   -7.7352    9.3384 C   0  0  0  0  0  0
    2.5432   -7.7529    9.5458 C   0  0  0  0  0  0
    2.9384   -8.7661   10.5948 C   0  0  0  0  0  0
    3.6434   -8.5007   11.5625 O   0  0  0  0  0  0
    2.4415   -9.9911   10.3685 O   0  0  0  0  0  0
    0.3079   -7.7282   10.6964 C   0  0  0  0  0  0
   -0.4616   -8.6089   11.0495 O   0  0  0  0  0  0
    0.5585   -6.6473   11.4480 O   0  0  0  0  0  0
    2.9518   -2.6581    8.7899 O   0  0  0  0  0  0
    2.3241   -3.3075    9.8399 C   0  0  0  0  0  0
    2.3834   -4.5122   10.0487 O   0  0  0  0  0  0
    1.5317   -2.3434   10.7326 C   0  0  0  0  0  0
    1.0906   -1.0060   10.0609 C   0  0  0  0  0  0
   -0.0254   -1.0622    9.0017 C   0  0  0  0  0  0
    0.4372   -1.6318    7.6918 C   0  0  0  0  0  0
    1.2821   -1.1380    6.9576 O   0  0  0  0  0  0
   -0.1703   -2.7901    7.3927 O   0  0  0  0  0  0
    0.7248    0.1117   11.0454 C   0  0  0  0  0  0
    0.2735   -0.1052   12.1526 O   0  0  0  0  0  0
    1.0369    1.3620   10.6445 O   0  0  0  0  0  0
    6.0991   -0.1445   -7.8055 H   0  0  0  0  0  0
    6.7951   -0.4083   -6.3678 H   0  0  0  0  0  0
    6.9837   -4.1586   -6.4728 H   0  0  0  0  0  0
    7.8559   -2.0830   -2.3188 H   0  0  0  0  0  0
    2.5970   -2.7205    1.9518 H   0  0  0  0  0  0
    1.8972  -10.0776    9.5625 H   0  0  0  0  0  0
    1.1656   -5.9882   11.0287 H   0  0  0  0  0  0
   -0.8250   -2.9561    8.1034 H   0  0  0  0  0  0
    0.7911    2.0775   11.2720 H   0  0  0  0  0  0
  1  2  1  0  0  0
  2  3  1  0  0  0
  3  4  1  0  0  0
  4  5  1  0  0  0
  5  6  1  0  0  0
  5  7  1  0  0  0
  7  8  1  0  0  0
  7 39  1  0  0  0
  8  9  1  0  0  0
  8 27  1  0  0  0
  9 10  1  0  0  0
 10 11  1  0  0  0
 10 12  1  0  0  0
 12 13  1  0  0  0
 13 14  1  0  0  0
 13 26  1  0  0  0
 14 15  1  0  0  0
 15 16  1  0  0  0
 16 17  1  0  0  0
 17 18  1  0  0  0
 18 19  1  0  0  0
 18 25  1  0  0  0
 19 20  1  0  0  0
 20 21  1  0  0  0
 20 24  1  0  0  0
 21 22  1  0  0  0
 21 23  1  0  0  0
 23 51  1  0  0  0
 23 52  1  0  0  0
 24 53  1  0  0  0
 25 54  1  0  0  0
 26 55  1  0  0  0
 27 28  1  0  0  0
 28 29  2  0  0  0
 28 30  1  0  0  0
 30 31  1  0  0  0
 31 32  1  0  0  0
 31 36  1  0  0  0
 32 33  1  0  0  0
 33 34  2  0  0  0
 33 35  1  0  0  0
 35 56  1  0  0  0
 36 37  2  0  0  0
 36 38  1  0  0  0
 38 57  1  0  0  0
 39 40  1  0  0  0
 40 41  2  0  0  0
 40 42  1  0  0  0
 42 43  1  0  0  0
 43 44  1  0  0  0
 43 48  1  0  0  0
 44 45  1  0  0  0
 45 46  2  0  0  0
 45 47  1  0  0  0
 47 58  1  0  0  0
 48 49  2  0  0  0
 48 50  1  0  0  0
 50 59  1  0  0  0
M  END
>  <AUTHOR>
    GENERATED BY OPEN BABEL 2.4.1

>  <CHROM.1>
178.58902361,60.43786400,76.43346530,50.75268328,-70.54333722,-61.58529168
-133.14545318,155.90292067,44.97413390,-72.90951203,154.15236855,160.42468454
69.75838344,-67.27456332,-174.43937905,53.12957353,156.03214723,-79.83717782
-65.49666594,168.21450599,-173.78019743,-69.73659721,175.24930425,49.00279880
-82.68562968,49.09082619,163.54839161,118.39087486,-127.60868954,0.31409220
0.53271626,-0.35992816,23.26641586,71.46670732,-74.27411154,-29.24485498
-63.78446825,3.28290254,179.24944744,3.21482933,-4.23269028,5.36809489,-2.18613710
1.13356266,-0.84347050

>  <COMPND>
    UNNAMED

>  <MASTER>
        0    0    0    0    0    0    0    0  109    0  109    0

>  <Name>
FB1.pdb

>  <RI>
0

>  <Rbt.Current_Directory>
/cluster/tossine/FB1_39T3/p3/0_clust01

>  <Rbt.Executable>
rbdock/0.1.0

>  <Rbt.Library>
librxdock.so/0.1.0

>  <Rbt.Parameter_File>
/cluster/rxdock/data/scripts/dock.prm

>  <Rbt.Receptor>
rx_1.prm

>  <SCORE>
-4.12511

>  <SCORE.INTER>
-5.83538

>  <SCORE.INTER.CONST>
1

>  <SCORE.INTER.POLAR>
-2.7003

>  <SCORE.INTER.REPUL>
0.0127403

>  <SCORE.INTER.ROT>
32

>  <SCORE.INTER.VDW>
-34.1181

>  <SCORE.INTER.norm>
-0.116708

>  <SCORE.INTRA>
1.28917

>  <SCORE.INTRA.DIHEDRAL>
0.573942

>  <SCORE.INTRA.DIHEDRAL.0>
47.3121

>  <SCORE.INTRA.POLAR>
0.478077

>  <SCORE.INTRA.POLAR.0>
-1.47808

>  <SCORE.INTRA.REPUL>
0

>  <SCORE.INTRA.REPUL.0>
0

>  <SCORE.INTRA.VDW>
-0.623266

>  <SCORE.INTRA.VDW.0>
-2.78316

>  <SCORE.INTRA.norm>
0.0257833

>  <SCORE.RESTR>
0.421107

>  <SCORE.RESTR.CAVITY>
0.421107

>  <SCORE.RESTR.norm>
0.00842215

>  <SCORE.SYSTEM>
0

>  <SCORE.SYSTEM.CONST>
0

>  <SCORE.SYSTEM.DIHEDRAL>
0

>  <SCORE.SYSTEM.norm>
0

>  <SCORE.heavy>
50

>  <SCORE.norm>
-0.0825022

$$$$
