FB1.pdb
  RxDock  10062023173D
librxdock.so/0.1.0
 59 58  0  0  0  0  0  0  0  0999 V2000
    6.5258    3.6152   11.7299 C   0  0  0  0  0  0
    6.4112    3.2925   10.2420 C   0  0  0  0  0  0
    5.5919    2.0144    9.9980 C   0  0  0  0  0  0
    5.5703    1.5684    8.5146 C   0  0  0  0  0  0
    4.6355    0.3476    8.2044 C   0  0  0  0  0  0
    3.1922    0.7259    8.6097 C   0  0  0  0  0  0
    4.6943   -0.1264    6.6912 C   0  0  0  0  0  0
    3.9197   -1.4797    6.3241 C   0  0  0  0  0  0
    4.3154   -2.4692    5.1441 C   0  0  0  0  0  0
    3.4748   -3.8883    5.1096 C   0  0  0  0  0  0
    3.7200   -4.5647    3.7618 C   0  0  0  0  0  0
    3.7839   -4.9174    6.2887 C   0  0  0  0  0  0
    5.0915   -5.8692    6.3431 C   0  0  0  0  0  0
    6.0440   -5.9180    7.5866 C   0  0  0  0  0  0
    5.4102   -5.6965    9.0352 C   0  0  0  0  0  0
    4.7485   -6.8405    9.9001 C   0  0  0  0  0  0
    3.4102   -7.4734    9.4355 C   0  0  0  0  0  0
    2.9506   -8.7825   10.1865 C   0  0  0  0  0  0
    3.3306   -8.8843   11.6690 C   0  0  0  0  0  0
    4.8325   -9.0533   12.0353 C   0  0  0  0  0  0
    5.2548   -9.4477   13.4815 C   0  0  0  0  0  0
    4.7115  -10.7680   14.0097 C   0  0  0  0  0  0
    6.7202   -9.3801   13.6379 N   0  0  0  0  0  0
    5.2944  -10.1444   11.1985 O   0  0  0  0  0  0
    1.5266   -8.8792   10.0744 O   0  0  0  0  0  0
    4.5811   -7.2063    6.2087 O   0  0  0  0  0  0
    3.9611   -2.3082    7.5175 O   0  0  0  0  0  0
    2.7986   -2.4604    8.2035 C   0  0  0  0  0  0
    1.7276   -1.9553    7.9252 O   0  0  0  0  0  0
    3.0281   -3.4452    9.3165 C   0  0  0  0  0  0
    1.7263   -3.8431   10.0305 C   0  0  0  0  0  0
    1.9496   -4.9092   11.1108 C   0  0  0  0  0  0
    0.6504   -5.5805   11.4910 C   0  0  0  0  0  0
    0.0460   -5.3477   12.5323 O   0  0  0  0  0  0
    0.2155   -6.4597   10.5762 O   0  0  0  0  0  0
    1.1838   -2.5560   10.6668 C   0  0  0  0  0  0
    1.9046   -1.6526   11.0628 O   0  0  0  0  0  0
   -0.1494   -2.5237   10.7990 O   0  0  0  0  0  0
    4.3429    0.9810    5.7692 O   0  0  0  0  0  0
    4.8773    0.9696    4.4916 C   0  0  0  0  0  0
    5.4976    0.0334    4.0045 O   0  0  0  0  0  0
    4.6065    2.2760    3.7338 C   0  0  0  0  0  0
    5.4924    2.5242    2.4736 C   0  0  0  0  0  0
    5.1193    1.7923    1.1715 C   0  0  0  0  0  0
    6.2844    1.0851    0.5415 C   0  0  0  0  0  0
    6.4851   -0.1214    0.5662 O   0  0  0  0  0  0
    7.1128    1.9273   -0.0948 O   0  0  0  0  0  0
    5.6976    4.0023    2.1194 C   0  0  0  0  0  0
    5.3501    4.9103    2.8485 O   0  0  0  0  0  0
    6.3908    4.2355    0.9853 O   0  0  0  0  0  0
    7.0660   -8.5359   13.1837 H   0  0  0  0  0  0
    7.1405  -10.1516   13.1148 H   0  0  0  0  0  0
    6.2544  -10.2100   11.3865 H   0  0  0  0  0  0
    1.3120   -9.1746    9.1704 H   0  0  0  0  0  0
    5.3125   -7.7805    5.9261 H   0  0  0  0  0  0
   -0.5272   -7.0254   10.8622 H   0  0  0  0  0  0
   -0.6212   -3.2876   10.3835 H   0  0  0  0  0  0
    6.7368    2.8264    0.0125 H   0  0  0  0  0  0
    6.6488    5.1722    0.8362 H   0  0  0  0  0  0
  1  2  1  0  0  0
  2  3  1  0  0  0
  3  4  1  0  0  0
  4  5  1  0  0  0
  5  6  1  0  0  0
  5  7  1  0  0  0
  7  8  1  0  0  0
  7 39  1  0  0  0
  8  9  1  0  0  0
  8 27  1  0  0  0
  9 10  1  0  0  0
 10 11  1  0  0  0
 10 12  1  0  0  0
 12 13  1  0  0  0
 13 14  1  0  0  0
 13 26  1  0  0  0
 14 15  1  0  0  0
 15 16  1  0  0  0
 16 17  1  0  0  0
 17 18  1  0  0  0
 18 19  1  0  0  0
 18 25  1  0  0  0
 19 20  1  0  0  0
 20 21  1  0  0  0
 20 24  1  0  0  0
 21 22  1  0  0  0
 21 23  1  0  0  0
 23 51  1  0  0  0
 23 52  1  0  0  0
 24 53  1  0  0  0
 25 54  1  0  0  0
 26 55  1  0  0  0
 27 28  1  0  0  0
 28 29  2  0  0  0
 28 30  1  0  0  0
 30 31  1  0  0  0
 31 32  1  0  0  0
 31 36  1  0  0  0
 32 33  1  0  0  0
 33 34  2  0  0  0
 33 35  1  0  0  0
 35 56  1  0  0  0
 36 37  2  0  0  0
 36 38  1  0  0  0
 38 57  1  0  0  0
 39 40  1  0  0  0
 40 41  2  0  0  0
 40 42  1  0  0  0
 42 43  1  0  0  0
 43 44  1  0  0  0
 43 48  1  0  0  0
 44 45  1  0  0  0
 45 46  2  0  0  0
 45 47  1  0  0  0
 47 58  1  0  0  0
 48 49  2  0  0  0
 48 50  1  0  0  0
 50 59  1  0  0  0
M  END
>  <AUTHOR>
    GENERATED BY OPEN BABEL 2.4.1

>  <CHROM.1>
-174.12687532,-174.49330029,59.19200673,172.36807024,-151.73186789,152.06971709
172.21861465,108.10187338,166.63491820,-78.06609792,127.31653276,32.58799476
160.50687711,84.92399903,-68.54842206,168.75933330,32.78904010,-68.51838142
75.77398800,-167.59960713,59.21108766,176.33213812,42.73885347,-1.03693906
-171.76080535,176.63455738,-162.55363117,-30.98608660,-104.52116841,169.30029468
-6.22409103,8.97948532,163.23536700,79.25641344,-129.87847728,9.09466282
104.25601396,-0.10899017,-170.37992135,4.11344236,-2.80294158,7.70479732
0.93389659,1.28676091,-0.06436783

>  <COMPND>
    UNNAMED

>  <MASTER>
        0    0    0    0    0    0    0    0  109    0  109    0

>  <Name>
FB1.pdb

>  <RI>
0

>  <Rbt.Current_Directory>
/cluster/tossine/FB1_39T3/p3/0_clust01

>  <Rbt.Executable>
rbdock/0.1.0

>  <Rbt.Library>
librxdock.so/0.1.0

>  <Rbt.Parameter_File>
/cluster/rxdock/data/scripts/dock.prm

>  <Rbt.Receptor>
rx_1.prm

>  <SCORE>
-3.38636

>  <SCORE.INTER>
-5.49449

>  <SCORE.INTER.CONST>
1

>  <SCORE.INTER.POLAR>
-3.20905

>  <SCORE.INTER.REPUL>
0.346194

>  <SCORE.INTER.ROT>
32

>  <SCORE.INTER.VDW>
-33.7147

>  <SCORE.INTER.norm>
-0.10989

>  <SCORE.INTRA>
2.1048

>  <SCORE.INTRA.DIHEDRAL>
3.46127

>  <SCORE.INTRA.DIHEDRAL.0>
47.3121

>  <SCORE.INTRA.POLAR>
0.478077

>  <SCORE.INTRA.POLAR.0>
-1.47808

>  <SCORE.INTRA.REPUL>
0

>  <SCORE.INTRA.REPUL.0>
0

>  <SCORE.INTRA.VDW>
-1.25129

>  <SCORE.INTRA.VDW.0>
-2.78316

>  <SCORE.INTRA.norm>
0.0420961

>  <SCORE.RESTR>
0.00331878

>  <SCORE.RESTR.CAVITY>
0.00331878

>  <SCORE.RESTR.norm>
6.63756e-05

>  <SCORE.SYSTEM>
0

>  <SCORE.SYSTEM.CONST>
0

>  <SCORE.SYSTEM.DIHEDRAL>
0

>  <SCORE.SYSTEM.norm>
0

>  <SCORE.heavy>
50

>  <SCORE.norm>
-0.0677273

$$$$
