FB1.pdb
  RxDock  10062023123D
librxdock.so/0.1.0
 59 58  0  0  0  0  0  0  0  0999 V2000
    3.6310   -7.3865   13.4437 C   0  0  0  0  0  0
    4.4782   -8.6567   13.4316 C   0  0  0  0  0  0
    5.5713   -8.6018   12.3517 C   0  0  0  0  0  0
    5.0126   -8.4552   10.9143 C   0  0  0  0  0  0
    5.9689   -7.7314    9.9034 C   0  0  0  0  0  0
    6.3143   -8.7219    8.7675 C   0  0  0  0  0  0
    5.3692   -6.3838    9.3183 C   0  0  0  0  0  0
    4.0153   -6.5002    8.4700 C   0  0  0  0  0  0
    3.9303   -6.8941    6.9318 C   0  0  0  0  0  0
    5.0202   -6.1343    5.9540 C   0  0  0  0  0  0
    5.4103   -7.0902    4.8278 C   0  0  0  0  0  0
    4.5563   -4.7393    5.3348 C   0  0  0  0  0  0
    3.2663   -4.5563    4.3751 C   0  0  0  0  0  0
    3.0288   -5.4472    3.1079 C   0  0  0  0  0  0
    2.2780   -4.7995    1.8565 C   0  0  0  0  0  0
    2.6615   -3.4093    1.2123 C   0  0  0  0  0  0
    3.7965   -3.3429    0.1565 C   0  0  0  0  0  0
    3.3607   -3.4526   -1.3558 C   0  0  0  0  0  0
    4.2855   -2.7828   -2.3797 C   0  0  0  0  0  0
    5.7357   -3.3241   -2.5284 C   0  0  0  0  0  0
    6.6535   -2.8220   -3.6822 C   0  0  0  0  0  0
    6.6051   -1.3312   -3.9864 C   0  0  0  0  0  0
    8.0433   -3.2747   -3.4830 N   0  0  0  0  0  0
    6.4074   -2.9155   -1.3095 O   0  0  0  0  0  0
    3.2495   -4.8418   -1.6838 O   0  0  0  0  0  0
    2.1345   -4.8047    5.2260 O   0  0  0  0  0  0
    3.1989   -7.4971    9.1423 O   0  0  0  0  0  0
    2.3041   -7.0453   10.0591 C   0  0  0  0  0  0
    2.4974   -6.1721   10.8834 O   0  0  0  0  0  0
    0.9895   -7.7359    9.8216 C   0  0  0  0  0  0
    0.5330   -8.5683   11.0304 C   0  0  0  0  0  0
    1.7008   -9.2662   11.7393 C   0  0  0  0  0  0
    2.0248  -10.5884   11.0834 C   0  0  0  0  0  0
    1.7647  -11.6764   11.5857 O   0  0  0  0  0  0
    2.6261  -10.4605    9.8914 O   0  0  0  0  0  0
   -0.1490   -7.5819   11.9884 C   0  0  0  0  0  0
   -1.2543   -7.7769   12.4709 O   0  0  0  0  0  0
    0.5481   -6.4602   12.2158 O   0  0  0  0  0  0
    5.2782   -5.3386   10.3667 O   0  0  0  0  0  0
    5.4544   -4.0160    9.9957 C   0  0  0  0  0  0
    6.0647   -3.1836   10.6537 O   0  0  0  0  0  0
    4.7938   -3.6945    8.6487 C   0  0  0  0  0  0
    3.4527   -2.9005    8.7243 C   0  0  0  0  0  0
    3.5244   -1.3800    8.9549 C   0  0  0  0  0  0
    2.2078   -0.7862    9.3653 C   0  0  0  0  0  0
    1.9728   -0.2428   10.4359 O   0  0  0  0  0  0
    1.2757   -0.8920    8.4059 O   0  0  0  0  0  0
    2.5053   -3.1350    7.5412 C   0  0  0  0  0  0
    2.5470   -2.4758    6.5212 O   0  0  0  0  0  0
    1.6832   -4.1987    7.6592 O   0  0  0  0  0  0
    8.5053   -2.6534   -2.8204 H   0  0  0  0  0  0
    8.5554   -3.1528   -4.3596 H   0  0  0  0  0  0
    7.2599   -3.3998   -1.3234 H   0  0  0  0  0  0
    2.6010   -5.2463   -1.0785 H   0  0  0  0  0  0
    1.9746   -5.7632    5.2415 H   0  0  0  0  0  0
    2.8390   -9.5446    9.6284 H   0  0  0  0  0  0
    0.0750   -5.7879   12.7662 H   0  0  0  0  0  0
    1.5817   -0.3415    7.6545 H   0  0  0  0  0  0
    1.2272   -4.4706    6.8320 H   0  0  0  0  0  0
  1  2  1  0  0  0
  2  3  1  0  0  0
  3  4  1  0  0  0
  4  5  1  0  0  0
  5  6  1  0  0  0
  5  7  1  0  0  0
  7  8  1  0  0  0
  7 39  1  0  0  0
  8  9  1  0  0  0
  8 27  1  0  0  0
  9 10  1  0  0  0
 10 11  1  0  0  0
 10 12  1  0  0  0
 12 13  1  0  0  0
 13 14  1  0  0  0
 13 26  1  0  0  0
 14 15  1  0  0  0
 15 16  1  0  0  0
 16 17  1  0  0  0
 17 18  1  0  0  0
 18 19  1  0  0  0
 18 25  1  0  0  0
 19 20  1  0  0  0
 20 21  1  0  0  0
 20 24  1  0  0  0
 21 22  1  0  0  0
 21 23  1  0  0  0
 23 51  1  0  0  0
 23 52  1  0  0  0
 24 53  1  0  0  0
 25 54  1  0  0  0
 26 55  1  0  0  0
 27 28  1  0  0  0
 28 29  2  0  0  0
 28 30  1  0  0  0
 30 31  1  0  0  0
 31 32  1  0  0  0
 31 36  1  0  0  0
 32 33  1  0  0  0
 33 34  2  0  0  0
 33 35  1  0  0  0
 35 56  1  0  0  0
 36 37  2  0  0  0
 36 38  1  0  0  0
 38 57  1  0  0  0
 39 40  1  0  0  0
 40 41  2  0  0  0
 40 42  1  0  0  0
 42 43  1  0  0  0
 43 44  1  0  0  0
 43 48  1  0  0  0
 44 45  1  0  0  0
 45 46  2  0  0  0
 45 47  1  0  0  0
 47 58  1  0  0  0
 48 49  2  0  0  0
 48 50  1  0  0  0
 50 59  1  0  0  0
M  END
>  <AUTHOR>
    GENERATED BY OPEN BABEL 2.4.1

>  <CHROM.1>
-60.53124716,152.03593441,118.29235135,-61.64151680,-82.57809869,147.26485339
-45.19844342,93.22969399,146.94206882,-60.11767192,-50.98658590,-148.14890684
-85.66965211,49.33116454,84.37106038,93.11836865,153.23165228,63.53423043
58.01073970,171.38536772,41.50846103,169.41084992,-81.22096928,-41.65336558
119.00849581,-37.44763510,-85.36741309,129.80141191,-107.36796118,4.40460094
174.69488366,-140.46853036,103.78461159,79.23259814,-164.90641725,-88.50252069
116.44505996,-65.23008265,-166.68902721,3.55272477,-5.41580019,6.86623565
2.26986336,-1.28869787,2.58373477

>  <COMPND>
    UNNAMED

>  <MASTER>
        0    0    0    0    0    0    0    0  109    0  109    0

>  <Name>
FB1.pdb

>  <RI>
0

>  <Rbt.Current_Directory>
/cluster/tossine/FB1_39T3/p3/0_clust01

>  <Rbt.Executable>
rbdock/0.1.0

>  <Rbt.Library>
librxdock.so/0.1.0

>  <Rbt.Parameter_File>
/cluster/rxdock/data/scripts/dock.prm

>  <Rbt.Receptor>
rx_1.prm

>  <SCORE>
31.3352

>  <SCORE.INTER>
7.13476

>  <SCORE.INTER.CONST>
1

>  <SCORE.INTER.POLAR>
-2.56922

>  <SCORE.INTER.REPUL>
0.876143

>  <SCORE.INTER.ROT>
32

>  <SCORE.INTER.VDW>
-25.9106

>  <SCORE.INTER.norm>
0.142695

>  <SCORE.INTRA>
24.2005

>  <SCORE.INTRA.DIHEDRAL>
52.2533

>  <SCORE.INTRA.DIHEDRAL.0>
47.3121

>  <SCORE.INTRA.POLAR>
-0.037161

>  <SCORE.INTRA.POLAR.0>
-1.47808

>  <SCORE.INTRA.REPUL>
0

>  <SCORE.INTRA.REPUL.0>
0

>  <SCORE.INTRA.VDW>
-1.79985

>  <SCORE.INTRA.VDW.0>
-2.78316

>  <SCORE.INTRA.norm>
0.484009

>  <SCORE.RESTR>
0

>  <SCORE.RESTR.CAVITY>
0

>  <SCORE.RESTR.norm>
0

>  <SCORE.SYSTEM>
0

>  <SCORE.SYSTEM.CONST>
0

>  <SCORE.SYSTEM.DIHEDRAL>
0

>  <SCORE.SYSTEM.norm>
0

>  <SCORE.heavy>
50

>  <SCORE.norm>
0.626704

$$$$
