FB1.pdb
  RxDock  10062022313D
librxdock.so/0.1.0
 59 58  0  0  0  0  0  0  0  0999 V2000
   -2.3659   -1.8568    7.7217 C   0  0  0  0  0  0
   -2.0478   -2.8764    8.8129 C   0  0  0  0  0  0
   -1.1748   -4.0252    8.2816 C   0  0  0  0  0  0
   -0.6303   -4.9533    9.3960 C   0  0  0  0  0  0
    0.6693   -4.4396   10.1084 C   0  0  0  0  0  0
    0.7382   -5.0805   11.5138 C   0  0  0  0  0  0
    1.9968   -4.7268    9.2881 C   0  0  0  0  0  0
    2.2183   -6.2255    8.7675 C   0  0  0  0  0  0
    3.3807   -6.6915    7.7877 C   0  0  0  0  0  0
    3.0253   -6.5851    6.1803 C   0  0  0  0  0  0
    2.6239   -5.1448    5.8666 C   0  0  0  0  0  0
    4.1720   -7.0521    5.1744 C   0  0  0  0  0  0
    4.5936   -6.2409    3.8391 C   0  0  0  0  0  0
    3.5530   -5.8320    2.7409 C   0  0  0  0  0  0
    3.7554   -4.4392    1.9870 C   0  0  0  0  0  0
    4.4945   -4.2784    0.6004 C   0  0  0  0  0  0
    3.9609   -3.2547   -0.4363 C   0  0  0  0  0  0
    5.0147   -2.6633   -1.4506 C   0  0  0  0  0  0
    6.2910   -2.0736   -0.8376 C   0  0  0  0  0  0
    6.2071   -0.6745   -0.1639 C   0  0  0  0  0  0
    5.7041    0.5615   -0.9668 C   0  0  0  0  0  0
    5.7463    1.9011   -0.2450 C   0  0  0  0  0  0
    6.3773    0.6468   -2.2767 N   0  0  0  0  0  0
    5.2468   -0.8407    0.9103 O   0  0  0  0  0  0
    5.3861   -3.7054   -2.3594 O   0  0  0  0  0  0
    5.1411   -5.0008    4.3175 O   0  0  0  0  0  0
    2.3975   -7.0455    9.9540 O   0  0  0  0  0  0
    3.4688   -6.7659   10.7411 C   0  0  0  0  0  0
    4.3821   -6.0094   10.4708 O   0  0  0  0  0  0
    3.2904   -7.4725   12.0565 C   0  0  0  0  0  0
    3.1028   -8.9890   11.8913 C   0  0  0  0  0  0
    4.3764   -9.6898   11.4012 C   0  0  0  0  0  0
    5.4878   -9.5747   12.4185 C   0  0  0  0  0  0
    5.4888   -8.7571   13.3324 O   0  0  0  0  0  0
    6.4795  -10.4575   12.2286 O   0  0  0  0  0  0
    2.7119   -9.5192   13.2778 C   0  0  0  0  0  0
    2.8979   -8.8909   14.3088 O   0  0  0  0  0  0
    2.1924  -10.7545   13.2712 O   0  0  0  0  0  0
    2.1831   -3.7306    8.2051 O   0  0  0  0  0  0
    2.3340   -2.3988    8.5536 C   0  0  0  0  0  0
    2.4516   -1.9881    9.7007 O   0  0  0  0  0  0
    2.3396   -1.4723    7.3305 C   0  0  0  0  0  0
    3.7202   -0.8456    6.9617 C   0  0  0  0  0  0
    4.3214    0.1963    7.9226 C   0  0  0  0  0  0
    5.1418   -0.4207    9.0183 C   0  0  0  0  0  0
    5.0370   -1.5687    9.4280 O   0  0  0  0  0  0
    6.0525    0.4286    9.5179 O   0  0  0  0  0  0
    4.8222   -1.8669    6.6539 C   0  0  0  0  0  0
    4.6710   -3.0643    6.7956 O   0  0  0  0  0  0
    5.9474   -1.3586    6.1092 O   0  0  0  0  0  0
    6.0495   -0.1134   -2.8709 H   0  0  0  0  0  0
    7.3748    0.4658   -2.1437 H   0  0  0  0  0  0
    5.6043   -1.5779    1.4489 H   0  0  0  0  0  0
    4.5751   -4.0453   -2.7803 H   0  0  0  0  0  0
    5.8207   -4.7090    3.6869 H   0  0  0  0  0  0
    7.2309  -10.3794   12.8473 H   0  0  0  0  0  0
    2.0446  -11.1324   12.3689 H   0  0  0  0  0  0
    6.5117   -0.0458   10.2427 H   0  0  0  0  0  0
    6.6557   -2.0138    5.9212 H   0  0  0  0  0  0
  1  2  1  0  0  0
  2  3  1  0  0  0
  3  4  1  0  0  0
  4  5  1  0  0  0
  5  6  1  0  0  0
  5  7  1  0  0  0
  7  8  1  0  0  0
  7 39  1  0  0  0
  8  9  1  0  0  0
  8 27  1  0  0  0
  9 10  1  0  0  0
 10 11  1  0  0  0
 10 12  1  0  0  0
 12 13  1  0  0  0
 13 14  1  0  0  0
 13 26  1  0  0  0
 14 15  1  0  0  0
 15 16  1  0  0  0
 16 17  1  0  0  0
 17 18  1  0  0  0
 18 19  1  0  0  0
 18 25  1  0  0  0
 19 20  1  0  0  0
 20 21  1  0  0  0
 20 24  1  0  0  0
 21 22  1  0  0  0
 21 23  1  0  0  0
 23 51  1  0  0  0
 23 52  1  0  0  0
 24 53  1  0  0  0
 25 54  1  0  0  0
 26 55  1  0  0  0
 27 28  1  0  0  0
 28 29  2  0  0  0
 28 30  1  0  0  0
 30 31  1  0  0  0
 31 32  1  0  0  0
 31 36  1  0  0  0
 32 33  1  0  0  0
 33 34  2  0  0  0
 33 35  1  0  0  0
 35 56  1  0  0  0
 36 37  2  0  0  0
 36 38  1  0  0  0
 38 57  1  0  0  0
 39 40  1  0  0  0
 40 41  2  0  0  0
 40 42  1  0  0  0
 42 43  1  0  0  0
 43 44  1  0  0  0
 43 48  1  0  0  0
 44 45  1  0  0  0
 45 46  2  0  0  0
 45 47  1  0  0  0
 47 58  1  0  0  0
 48 49  2  0  0  0
 48 50  1  0  0  0
 50 59  1  0  0  0
M  END
>  <AUTHOR>
    GENERATED BY OPEN BABEL 2.4.1

>  <CHROM.1>
170.31429422,-83.13601457,155.84104796,-50.47370546,172.31218088,62.02525380
-88.65017214,-62.21299949,56.30411682,-135.82600251,-53.83971289,144.58243302
149.09287106,95.05783081,142.43011995,153.20962866,-51.63874314,-76.27386289
56.02843538,-57.21056509,-176.09625427,56.12000589,69.83749332,-9.62680128
56.51743195,68.62646517,64.13850524,-17.85285136,-17.37302382,177.35009105
-5.69979969,7.22477298,-108.04246313,-68.50598246,87.34773607,-6.03758767
-23.19425223,177.88573755,179.40923793,3.62999844,-4.34534561,6.91381787
1.97785617,-1.14027006,2.44290768

>  <COMPND>
    UNNAMED

>  <MASTER>
        0    0    0    0    0    0    0    0  109    0  109    0

>  <Name>
FB1.pdb

>  <RI>
0

>  <Rbt.Current_Directory>
/cluster/tossine/FB1_39T3/p3/0_clust01

>  <Rbt.Executable>
rbdock/0.1.0

>  <Rbt.Library>
librxdock.so/0.1.0

>  <Rbt.Parameter_File>
/cluster/rxdock/data/scripts/dock.prm

>  <Rbt.Receptor>
rx_0.prm

>  <SCORE>
3.63857

>  <SCORE.INTER>
-1.90238

>  <SCORE.INTER.CONST>
1

>  <SCORE.INTER.POLAR>
-2.88877

>  <SCORE.INTER.REPUL>
0.0287771

>  <SCORE.INTER.ROT>
32

>  <SCORE.INTER.VDW>
-29.6244

>  <SCORE.INTER.norm>
-0.0380476

>  <SCORE.INTRA>
5.54095

>  <SCORE.INTRA.DIHEDRAL>
1.61642

>  <SCORE.INTRA.DIHEDRAL.0>
47.3121

>  <SCORE.INTRA.POLAR>
1.47808

>  <SCORE.INTRA.POLAR.0>
-1.47808

>  <SCORE.INTRA.REPUL>
0

>  <SCORE.INTRA.REPUL.0>
0

>  <SCORE.INTRA.VDW>
-0.292727

>  <SCORE.INTRA.VDW.0>
-2.78316

>  <SCORE.INTRA.norm>
0.110819

>  <SCORE.RESTR>
0

>  <SCORE.RESTR.CAVITY>
0

>  <SCORE.RESTR.norm>
0

>  <SCORE.SYSTEM>
0

>  <SCORE.SYSTEM.CONST>
0

>  <SCORE.SYSTEM.DIHEDRAL>
0

>  <SCORE.SYSTEM.norm>
0

>  <SCORE.heavy>
50

>  <SCORE.norm>
0.0727713

$$$$
