FB1.pdb
  RxDock  10072000263D
librxdock.so/0.1.0
 59 58  0  0  0  0  0  0  0  0999 V2000
    1.7554   -5.8032   11.3576 C   0  0  0  0  0  0
    3.1107   -6.4027   11.7254 C   0  0  0  0  0  0
    4.0249   -6.5399   10.4967 C   0  0  0  0  0  0
    4.3459   -5.1880    9.8118 C   0  0  0  0  0  0
    4.1091   -5.1592    8.2614 C   0  0  0  0  0  0
    3.3701   -6.4564    7.8590 C   0  0  0  0  0  0
    3.3162   -3.8773    7.7656 C   0  0  0  0  0  0
    3.3202   -3.5858    6.1904 C   0  0  0  0  0  0
    3.0537   -4.6702    5.0585 C   0  0  0  0  0  0
    4.4091   -5.3032    4.3632 C   0  0  0  0  0  0
    4.3272   -6.8269    4.4400 C   0  0  0  0  0  0
    4.7011   -4.8584    2.8593 C   0  0  0  0  0  0
    4.3854   -3.3842    2.2713 C   0  0  0  0  0  0
    5.1411   -2.7948    1.0313 C   0  0  0  0  0  0
    5.1855   -3.6598   -0.3100 C   0  0  0  0  0  0
    4.0541   -3.6495   -1.4119 C   0  0  0  0  0  0
    4.0809   -2.5691   -2.5252 C   0  0  0  0  0  0
    5.4385   -2.3990   -3.3108 C   0  0  0  0  0  0
    5.3226   -2.0961   -4.8099 C   0  0  0  0  0  0
    4.4108   -0.9179   -5.2558 C   0  0  0  0  0  0
    4.8059    0.5539   -4.9347 C   0  0  0  0  0  0
    6.2863    0.8948   -5.0328 C   0  0  0  0  0  0
    3.9936    1.5000   -5.7229 N   0  0  0  0  0  0
    4.3932   -0.9945   -6.7041 O   0  0  0  0  0  0
    6.1790   -1.3430   -2.6894 O   0  0  0  0  0  0
    3.0027   -3.4304    1.8809 O   0  0  0  0  0  0
    2.3052   -2.5707    5.9624 O   0  0  0  0  0  0
    2.7185   -1.2767    5.9515 C   0  0  0  0  0  0
    2.2217   -0.3683    5.3132 O   0  0  0  0  0  0
    3.8382   -1.1262    6.9439 C   0  0  0  0  0  0
    4.6576    0.1547    6.7196 C   0  0  0  0  0  0
    5.5697    0.4856    7.9079 C   0  0  0  0  0  0
    4.7888    1.1237    9.0333 C   0  0  0  0  0  0
    3.5950    1.3946    8.9621 O   0  0  0  0  0  0
    5.5278    1.3664   10.1259 O   0  0  0  0  0  0
    5.5026   -0.0995    5.4637 C   0  0  0  0  0  0
    6.6998   -0.3394    5.5027 O   0  0  0  0  0  0
    4.8278    0.0122    4.3112 O   0  0  0  0  0  0
    1.9459   -3.8429    8.3322 O   0  0  0  0  0  0
    1.3236   -2.6143    8.4778 C   0  0  0  0  0  0
    1.8521   -1.6180    8.9535 O   0  0  0  0  0  0
   -0.1246   -2.6297    7.9710 C   0  0  0  0  0  0
   -1.1955   -3.1184    8.9952 C   0  0  0  0  0  0
   -1.8177   -2.0772    9.9434 C   0  0  0  0  0  0
   -1.9431   -0.7170    9.3200 C   0  0  0  0  0  0
   -1.3665    0.2951    9.6937 O   0  0  0  0  0  0
   -2.7646   -0.7125    8.2591 O   0  0  0  0  0  0
   -2.3507   -3.9164    8.3780 C   0  0  0  0  0  0
   -2.4898   -5.1122    8.5435 O   0  0  0  0  0  0
   -3.2739   -3.1843    7.7199 O   0  0  0  0  0  0
    3.1483    1.7292   -5.2018 H   0  0  0  0  0  0
    3.6628    1.0237   -6.5651 H   0  0  0  0  0  0
    5.3333   -0.9033   -6.9674 H   0  0  0  0  0  0
    7.0926   -1.6535   -2.5496 H   0  0  0  0  0  0
    2.5151   -2.7893    2.4247 H   0  0  0  0  0  0
    5.0208    1.5181   10.9465 H   0  0  0  0  0  0
    5.3319   -0.2786    3.5111 H   0  0  0  0  0  0
   -2.4482   -0.0028    7.6613 H   0  0  0  0  0  0
   -3.0496   -2.2348    7.6008 H   0  0  0  0  0  0
  1  2  1  0  0  0
  2  3  1  0  0  0
  3  4  1  0  0  0
  4  5  1  0  0  0
  5  6  1  0  0  0
  5  7  1  0  0  0
  7  8  1  0  0  0
  7 39  1  0  0  0
  8  9  1  0  0  0
  8 27  1  0  0  0
  9 10  1  0  0  0
 10 11  1  0  0  0
 10 12  1  0  0  0
 12 13  1  0  0  0
 13 14  1  0  0  0
 13 26  1  0  0  0
 14 15  1  0  0  0
 15 16  1  0  0  0
 16 17  1  0  0  0
 17 18  1  0  0  0
 18 19  1  0  0  0
 18 25  1  0  0  0
 19 20  1  0  0  0
 20 21  1  0  0  0
 20 24  1  0  0  0
 21 22  1  0  0  0
 21 23  1  0  0  0
 23 51  1  0  0  0
 23 52  1  0  0  0
 24 53  1  0  0  0
 25 54  1  0  0  0
 26 55  1  0  0  0
 27 28  1  0  0  0
 28 29  2  0  0  0
 28 30  1  0  0  0
 30 31  1  0  0  0
 31 32  1  0  0  0
 31 36  1  0  0  0
 32 33  1  0  0  0
 33 34  2  0  0  0
 33 35  1  0  0  0
 35 56  1  0  0  0
 36 37  2  0  0  0
 36 38  1  0  0  0
 38 57  1  0  0  0
 39 40  1  0  0  0
 40 41  2  0  0  0
 40 42  1  0  0  0
 42 43  1  0  0  0
 43 44  1  0  0  0
 43 48  1  0  0  0
 44 45  1  0  0  0
 45 46  2  0  0  0
 45 47  1  0  0  0
 47 58  1  0  0  0
 48 49  2  0  0  0
 48 50  1  0  0  0
 50 59  1  0  0  0
M  END
>  <AUTHOR>
    GENERATED BY OPEN BABEL 2.4.1

>  <CHROM.1>
61.00937741,-129.61948015,9.71859037,166.25959101,46.10916611,153.90939127
-97.96625294,93.69248946,127.15716383,35.64207384,155.98648465,52.92598568
116.91706963,85.44497095,85.91211639,51.10434334,142.87858198,51.62033735
131.96528590,68.73603030,37.95150517,-59.26307795,89.40289445,149.74632328
162.57543477,166.22547346,-78.57405550,-104.67230609,-3.33993862,-162.19605446
-171.49049984,-46.01827116,85.48188011,87.63995922,32.87294057,109.13133682
-116.13442058,-150.75071639,7.84527740,2.99354569,-2.34883388,4.75076561
-3.08534566,1.27928987,0.07916093

>  <COMPND>
    UNNAMED

>  <MASTER>
        0    0    0    0    0    0    0    0  109    0  109    0

>  <Name>
FB1.pdb

>  <RI>
0

>  <Rbt.Current_Directory>
/cluster/tossine/FB1_39T3/p3/0_clust01

>  <Rbt.Executable>
rbdock/0.1.0

>  <Rbt.Library>
librxdock.so/0.1.0

>  <Rbt.Parameter_File>
/cluster/rxdock/data/scripts/dock.prm

>  <Rbt.Receptor>
rx_3.prm

>  <SCORE>
42.1868

>  <SCORE.INTER>
4.34023

>  <SCORE.INTER.CONST>
1

>  <SCORE.INTER.POLAR>
-2.27607

>  <SCORE.INTER.REPUL>
0.0486331

>  <SCORE.INTER.ROT>
32

>  <SCORE.INTER.VDW>
-25.5643

>  <SCORE.INTER.norm>
0.0868047

>  <SCORE.INTRA>
35.4758

>  <SCORE.INTRA.DIHEDRAL>
54.5266

>  <SCORE.INTRA.DIHEDRAL.0>
47.3121

>  <SCORE.INTRA.POLAR>
0.397485

>  <SCORE.INTRA.POLAR.0>
-1.47808

>  <SCORE.INTRA.REPUL>
0

>  <SCORE.INTRA.REPUL.0>
0

>  <SCORE.INTRA.VDW>
6.86103

>  <SCORE.INTRA.VDW.0>
-2.78316

>  <SCORE.INTRA.norm>
0.709516

>  <SCORE.RESTR>
2.37077

>  <SCORE.RESTR.CAVITY>
2.37077

>  <SCORE.RESTR.norm>
0.0474154

>  <SCORE.SYSTEM>
0

>  <SCORE.SYSTEM.CONST>
0

>  <SCORE.SYSTEM.DIHEDRAL>
0

>  <SCORE.SYSTEM.norm>
0

>  <SCORE.heavy>
50

>  <SCORE.norm>
0.843736

$$$$
