FB1.pdb
  RxDock  10062022273D
librxdock.so/0.1.0
 59 58  0  0  0  0  0  0  0  0999 V2000
    7.2577   -6.8527    6.0301 C   0  0  0  0  0  0
    7.8676   -5.5445    6.5278 C   0  0  0  0  0  0
    6.8625   -4.3832    6.4536 C   0  0  0  0  0  0
    5.9871   -4.2419    7.7238 C   0  0  0  0  0  0
    5.1656   -5.5221    8.1068 C   0  0  0  0  0  0
    5.8409   -6.1843    9.3300 C   0  0  0  0  0  0
    3.6330   -5.2284    8.3946 C   0  0  0  0  0  0
    3.2895   -4.4014    9.7229 C   0  0  0  0  0  0
    3.3108   -4.9915   11.1992 C   0  0  0  0  0  0
    2.2141   -6.1891   11.4897 C   0  0  0  0  0  0
    0.8325   -5.6954   11.0636 C   0  0  0  0  0  0
    2.5136   -7.5981   10.8043 C   0  0  0  0  0  0
    1.6444   -8.9377   11.0659 C   0  0  0  0  0  0
    2.0835  -10.3426   10.5279 C   0  0  0  0  0  0
    2.6930  -11.3936   11.5638 C   0  0  0  0  0  0
    2.9213  -12.9239   11.2465 C   0  0  0  0  0  0
    2.5387  -13.9900   12.3070 C   0  0  0  0  0  0
    2.3929  -15.4748   11.7939 C   0  0  0  0  0  0
    1.8851  -16.4999   12.8156 C   0  0  0  0  0  0
    0.5792  -16.1782   13.5962 C   0  0  0  0  0  0
   -0.7600  -15.9451   12.8362 C   0  0  0  0  0  0
   -2.0316  -16.0010   13.6713 C   0  0  0  0  0  0
   -0.7045  -14.7028   12.0425 N   0  0  0  0  0  0
    0.3449  -17.3493   14.4193 O   0  0  0  0  0  0
    1.5016  -15.4695   10.6735 O   0  0  0  0  0  0
    1.6048   -9.0791   12.4959 O   0  0  0  0  0  0
    4.2279   -3.2923    9.7651 O   0  0  0  0  0  0
    3.8752   -2.1603    9.1022 C   0  0  0  0  0  0
    2.8007   -1.9394    8.5769 O   0  0  0  0  0  0
    5.0048   -1.1736    9.2110 C   0  0  0  0  0  0
    4.8547    0.0053    8.2362 C   0  0  0  0  0  0
    6.0644    0.9483    8.2621 C   0  0  0  0  0  0
    6.0690    1.7948    9.5138 C   0  0  0  0  0  0
    5.1300    1.8469   10.3009 O   0  0  0  0  0  0
    7.2043    2.4878    9.6861 O   0  0  0  0  0  0
    4.7038   -0.6173    6.8413 C   0  0  0  0  0  0
    5.1038   -1.7378    6.5643 O   0  0  0  0  0  0
    4.1390    0.1905    5.9333 O   0  0  0  0  0  0
    2.9631   -4.6605    7.1993 O   0  0  0  0  0  0
    2.9935   -5.3858    6.0199 C   0  0  0  0  0  0
    3.8608   -6.1972    5.7236 O   0  0  0  0  0  0
    1.8052   -5.0623    5.1047 C   0  0  0  0  0  0
    2.1315   -4.1879    3.8543 C   0  0  0  0  0  0
    2.4202   -2.6915    4.0735 C   0  0  0  0  0  0
    1.4408   -2.0352    5.0032 C   0  0  0  0  0  0
    0.2224   -2.1157    4.9289 O   0  0  0  0  0  0
    2.0458   -1.3372    5.9765 O   0  0  0  0  0  0
    3.2526   -4.7400    2.9652 C   0  0  0  0  0  0
    4.1490   -4.0468    2.5260 O   0  0  0  0  0  0
    3.2435   -6.0773    2.7846 O   0  0  0  0  0  0
   -1.5944  -14.5724   11.5634 H   0  0  0  0  0  0
   -0.0178  -14.8233   11.2946 H   0  0  0  0  0  0
   -0.2327  -17.0297   15.1443 H   0  0  0  0  0  0
    1.4782  -16.3695   10.2992 H   0  0  0  0  0  0
    1.1446   -8.3054   12.8620 H   0  0  0  0  0  0
    7.9008    2.3178    9.0232 H   0  0  0  0  0  0
    3.9145   -0.2497    5.0762 H   0  0  0  0  0  0
    1.3343   -0.9367    6.5193 H   0  0  0  0  0  0
    3.9211   -6.4213    2.1612 H   0  0  0  0  0  0
  1  2  1  0  0  0
  2  3  1  0  0  0
  3  4  1  0  0  0
  4  5  1  0  0  0
  5  6  1  0  0  0
  5  7  1  0  0  0
  7  8  1  0  0  0
  7 39  1  0  0  0
  8  9  1  0  0  0
  8 27  1  0  0  0
  9 10  1  0  0  0
 10 11  1  0  0  0
 10 12  1  0  0  0
 12 13  1  0  0  0
 13 14  1  0  0  0
 13 26  1  0  0  0
 14 15  1  0  0  0
 15 16  1  0  0  0
 16 17  1  0  0  0
 17 18  1  0  0  0
 18 19  1  0  0  0
 18 25  1  0  0  0
 19 20  1  0  0  0
 20 21  1  0  0  0
 20 24  1  0  0  0
 21 22  1  0  0  0
 21 23  1  0  0  0
 23 51  1  0  0  0
 23 52  1  0  0  0
 24 53  1  0  0  0
 25 54  1  0  0  0
 26 55  1  0  0  0
 27 28  1  0  0  0
 28 29  2  0  0  0
 28 30  1  0  0  0
 30 31  1  0  0  0
 31 32  1  0  0  0
 31 36  1  0  0  0
 32 33  1  0  0  0
 33 34  2  0  0  0
 33 35  1  0  0  0
 35 56  1  0  0  0
 36 37  2  0  0  0
 36 38  1  0  0  0
 38 57  1  0  0  0
 39 40  1  0  0  0
 40 41  2  0  0  0
 40 42  1  0  0  0
 42 43  1  0  0  0
 43 44  1  0  0  0
 43 48  1  0  0  0
 44 45  1  0  0  0
 45 46  2  0  0  0
 45 47  1  0  0  0
 47 58  1  0  0  0
 48 49  2  0  0  0
 48 50  1  0  0  0
 50 59  1  0  0  0
M  END
>  <AUTHOR>
    GENERATED BY OPEN BABEL 2.4.1

>  <CHROM.1>
88.12445204,-56.90945050,105.52200948,-69.42262585,-76.19978460,57.19107764
-63.52400491,86.93658121,-52.26266166,174.21264071,-171.51170412,104.85400452
62.56950748,167.72859898,-136.79748230,162.78867410,-174.35740202,51.59657497
174.45926538,59.80928362,164.46354970,158.23902609,-179.54776127,7.05499309
166.72282955,-175.11761805,-74.21023988,-22.96358881,-9.47797023,-3.79897323
-171.11566556,-26.11887600,105.91528475,-73.25047795,-45.33598462,-134.76064402
-49.33722065,179.09330999,175.61097375,3.20867589,-6.27957090,8.71902728
0.63879256,-1.26609516,-1.30248538

>  <COMPND>
    UNNAMED

>  <MASTER>
        0    0    0    0    0    0    0    0  109    0  109    0

>  <Name>
FB1.pdb

>  <RI>
0

>  <Rbt.Current_Directory>
/cluster/tossine/FB1_39T3/p3/0_clust01

>  <Rbt.Executable>
rbdock/0.1.0

>  <Rbt.Library>
librxdock.so/0.1.0

>  <Rbt.Parameter_File>
/cluster/rxdock/data/scripts/dock.prm

>  <Rbt.Receptor>
rx_0.prm

>  <SCORE>
2.23491

>  <SCORE.INTER>
1.05298

>  <SCORE.INTER.CONST>
1

>  <SCORE.INTER.POLAR>
-1.4741

>  <SCORE.INTER.REPUL>
0.15556

>  <SCORE.INTER.ROT>
32

>  <SCORE.INTER.VDW>
-32.1129

>  <SCORE.INTER.norm>
0.0210597

>  <SCORE.INTRA>
1.18193

>  <SCORE.INTRA.DIHEDRAL>
1.86271

>  <SCORE.INTRA.DIHEDRAL.0>
47.3121

>  <SCORE.INTRA.POLAR>
0.478077

>  <SCORE.INTRA.POLAR.0>
-1.47808

>  <SCORE.INTRA.REPUL>
0

>  <SCORE.INTRA.REPUL.0>
0

>  <SCORE.INTRA.VDW>
-1.37489

>  <SCORE.INTRA.VDW.0>
-2.78316

>  <SCORE.INTRA.norm>
0.0236385

>  <SCORE.RESTR>
0

>  <SCORE.RESTR.CAVITY>
0

>  <SCORE.RESTR.norm>
0

>  <SCORE.SYSTEM>
0

>  <SCORE.SYSTEM.CONST>
0

>  <SCORE.SYSTEM.DIHEDRAL>
0

>  <SCORE.SYSTEM.norm>
0

>  <SCORE.heavy>
50

>  <SCORE.norm>
0.0446982

$$$$
