FB1.pdb
  RxDock  10062023153D
librxdock.so/0.1.0
 59 58  0  0  0  0  0  0  0  0999 V2000
    4.4168   -5.3954    1.2229 C   0  0  0  0  0  0
    4.6904   -6.3259    2.4022 C   0  0  0  0  0  0
    4.2821   -5.6857    3.7393 C   0  0  0  0  0  0
    2.7746   -5.3392    3.8232 C   0  0  0  0  0  0
    2.3471   -4.0508    3.0371 C   0  0  0  0  0  0
    0.8118   -4.0794    2.8563 C   0  0  0  0  0  0
    2.8117   -2.7019    3.7317 C   0  0  0  0  0  0
    2.8306   -2.6796    5.3334 C   0  0  0  0  0  0
    3.7580   -3.5891    6.2504 C   0  0  0  0  0  0
    2.9552   -4.5297    7.3423 C   0  0  0  0  0  0
    2.8683   -3.7704    8.6652 C   0  0  0  0  0  0
    1.5002   -5.0214    6.9111 C   0  0  0  0  0  0
    0.6871   -6.2087    7.6513 C   0  0  0  0  0  0
    1.2897   -7.6414    7.8520 C   0  0  0  0  0  0
    1.4589   -8.1900    9.3418 C   0  0  0  0  0  0
    0.2548   -8.5449   10.3003 C   0  0  0  0  0  0
    0.5206   -9.3637   11.5911 C   0  0  0  0  0  0
    1.2744  -10.7381   11.4120 C   0  0  0  0  0  0
    2.7729  -10.6550   11.0957 C   0  0  0  0  0  0
    3.4638  -11.8983   10.4671 C   0  0  0  0  0  0
    5.0154  -11.9679   10.3526 C   0  0  0  0  0  0
    5.7221  -10.6860    9.9346 C   0  0  0  0  0  0
    5.6091  -12.5195   11.5853 N   0  0  0  0  0  0
    3.1019  -12.9998   11.3386 O   0  0  0  0  0  0
    1.1049  -11.4949   12.6155 O   0  0  0  0  0  0
    0.4408   -5.7159    8.9791 O   0  0  0  0  0  0
    3.1689   -1.3190    5.7168 O   0  0  0  0  0  0
    2.6951   -0.8789    6.9114 C   0  0  0  0  0  0
    1.7366   -1.3243    7.5134 O   0  0  0  0  0  0
    3.6172    0.1930    7.4235 C   0  0  0  0  0  0
    2.8597    1.4305    7.9308 C   0  0  0  0  0  0
    3.5599    2.1034    9.1183 C   0  0  0  0  0  0
    2.6161    3.0227    9.8582 C   0  0  0  0  0  0
    1.5341    3.3870    9.4105 O   0  0  0  0  0  0
    3.0742    3.4045   11.0595 O   0  0  0  0  0  0
    2.7919    2.4000    6.7428 C   0  0  0  0  0  0
    3.5554    2.3428    5.7908 O   0  0  0  0  0  0
    1.8541    3.3504    6.8574 O   0  0  0  0  0  0
    4.0888   -2.2152    3.1555 O   0  0  0  0  0  0
    4.1743   -2.0567    1.7823 C   0  0  0  0  0  0
    3.4711   -2.6415    0.9688 O   0  0  0  0  0  0
    5.2614   -1.0526    1.3771 C   0  0  0  0  0  0
    5.9473   -1.3158    0.0006 C   0  0  0  0  0  0
    7.1826   -0.4726   -0.3650 C   0  0  0  0  0  0
    6.9133    1.0044   -0.3387 C   0  0  0  0  0  0
    6.0510    1.5607    0.3273 O   0  0  0  0  0  0
    7.7500    1.6927   -1.1302 O   0  0  0  0  0  0
    6.3068   -2.7834   -0.2626 C   0  0  0  0  0  0
    6.4951   -3.5871    0.6292 O   0  0  0  0  0  0
    6.2971   -3.1588   -1.5588 O   0  0  0  0  0  0
    5.6804  -13.5323   11.4976 H   0  0  0  0  0  0
    4.9573  -12.3673   12.3583 H   0  0  0  0  0  0
    3.5022  -13.7895   10.9173 H   0  0  0  0  0  0
    1.5279  -12.3643   12.4902 H   0  0  0  0  0  0
   -0.3971   -6.0970    9.2907 H   0  0  0  0  0  0
    2.4635    3.9600   11.5809 H   0  0  0  0  0  0
    1.3160    3.2977    7.6859 H   0  0  0  0  0  0
    8.3986    1.0474   -1.4826 H   0  0  0  0  0  0
    6.0778   -2.4470   -2.2003 H   0  0  0  0  0  0
  1  2  1  0  0  0
  2  3  1  0  0  0
  3  4  1  0  0  0
  4  5  1  0  0  0
  5  6  1  0  0  0
  5  7  1  0  0  0
  7  8  1  0  0  0
  7 39  1  0  0  0
  8  9  1  0  0  0
  8 27  1  0  0  0
  9 10  1  0  0  0
 10 11  1  0  0  0
 10 12  1  0  0  0
 12 13  1  0  0  0
 13 14  1  0  0  0
 13 26  1  0  0  0
 14 15  1  0  0  0
 15 16  1  0  0  0
 16 17  1  0  0  0
 17 18  1  0  0  0
 18 19  1  0  0  0
 18 25  1  0  0  0
 19 20  1  0  0  0
 20 21  1  0  0  0
 20 24  1  0  0  0
 21 22  1  0  0  0
 21 23  1  0  0  0
 23 51  1  0  0  0
 23 52  1  0  0  0
 24 53  1  0  0  0
 25 54  1  0  0  0
 26 55  1  0  0  0
 27 28  1  0  0  0
 28 29  2  0  0  0
 28 30  1  0  0  0
 30 31  1  0  0  0
 31 32  1  0  0  0
 31 36  1  0  0  0
 32 33  1  0  0  0
 33 34  2  0  0  0
 33 35  1  0  0  0
 35 56  1  0  0  0
 36 37  2  0  0  0
 36 38  1  0  0  0
 38 57  1  0  0  0
 39 40  1  0  0  0
 40 41  2  0  0  0
 40 42  1  0  0  0
 42 43  1  0  0  0
 43 44  1  0  0  0
 43 48  1  0  0  0
 44 45  1  0  0  0
 45 46  2  0  0  0
 45 47  1  0  0  0
 47 58  1  0  0  0
 48 49  2  0  0  0
 48 50  1  0  0  0
 50 59  1  0  0  0
M  END
>  <AUTHOR>
    GENERATED BY OPEN BABEL 2.4.1

>  <CHROM.1>
60.73418225,-76.82294079,163.04085773,-34.51613523,63.64063432,53.27647765
-123.06294467,151.63757740,-93.15763591,165.17086067,-54.66953592,119.98085747
149.04626981,67.63298991,166.17937764,-53.97539255,73.26804052,-160.61295209
176.94493919,-169.32492045,-40.99122237,177.36838955,90.23942056,-22.40119196
133.37101784,146.23163823,-162.36735819,-20.82351486,-13.81147658,-176.81420854
-0.90616984,-23.38916756,149.43766477,-171.06832662,-56.90441538,-24.70708598
25.73660584,-4.78525099,1.15651910,3.43715586,-3.77717043,5.99774377,-1.06862991
-1.20293032,2.95351529

>  <COMPND>
    UNNAMED

>  <MASTER>
        0    0    0    0    0    0    0    0  109    0  109    0

>  <Name>
FB1.pdb

>  <RI>
0

>  <Rbt.Current_Directory>
/cluster/tossine/FB1_39T3/p3/0_clust01

>  <Rbt.Executable>
rbdock/0.1.0

>  <Rbt.Library>
librxdock.so/0.1.0

>  <Rbt.Parameter_File>
/cluster/rxdock/data/scripts/dock.prm

>  <Rbt.Receptor>
rx_1.prm

>  <SCORE>
4.15964

>  <SCORE.INTER>
-5.26359

>  <SCORE.INTER.CONST>
1

>  <SCORE.INTER.POLAR>
-2.07718

>  <SCORE.INTER.REPUL>
0.0121664

>  <SCORE.INTER.ROT>
32

>  <SCORE.INTER.VDW>
-35.662

>  <SCORE.INTER.norm>
-0.105272

>  <SCORE.INTRA>
9.42224

>  <SCORE.INTRA.DIHEDRAL>
11.2805

>  <SCORE.INTRA.DIHEDRAL.0>
47.3121

>  <SCORE.INTRA.POLAR>
0.0916829

>  <SCORE.INTRA.POLAR.0>
-1.47808

>  <SCORE.INTRA.REPUL>
0

>  <SCORE.INTRA.REPUL.0>
0

>  <SCORE.INTRA.VDW>
3.47024

>  <SCORE.INTRA.VDW.0>
-2.78316

>  <SCORE.INTRA.norm>
0.188445

>  <SCORE.RESTR>
0.00099268

>  <SCORE.RESTR.CAVITY>
0.00099268

>  <SCORE.RESTR.norm>
1.98536e-05

>  <SCORE.SYSTEM>
0

>  <SCORE.SYSTEM.CONST>
0

>  <SCORE.SYSTEM.DIHEDRAL>
0

>  <SCORE.SYSTEM.norm>
0

>  <SCORE.heavy>
50

>  <SCORE.norm>
0.0831928

$$$$
