FB1.pdb
  RxDock  10072001093D
librxdock.so/0.1.0
 59 58  0  0  0  0  0  0  0  0999 V2000
   -1.2222   -4.5861    8.9078 C   0  0  0  0  0  0
   -1.3084   -3.0715    9.0804 C   0  0  0  0  0  0
   -0.2128   -2.5423   10.0205 C   0  0  0  0  0  0
    1.2158   -2.6630    9.4336 C   0  0  0  0  0  0
    1.4562   -1.8604    8.1075 C   0  0  0  0  0  0
    1.5250   -0.3556    8.4564 C   0  0  0  0  0  0
    2.7526   -2.3191    7.3159 C   0  0  0  0  0  0
    2.9714   -1.6940    5.8573 C   0  0  0  0  0  0
    4.0826   -0.6217    5.4785 C   0  0  0  0  0  0
    3.7861    0.9110    6.0117 C   0  0  0  0  0  0
    4.2759    1.0261    7.4542 C   0  0  0  0  0  0
    4.4098    2.0919    5.1391 C   0  0  0  0  0  0
    4.5949    2.0332    3.5326 C   0  0  0  0  0  0
    5.1815    3.2314    2.7102 C   0  0  0  0  0  0
    5.3516    3.0557    1.1324 C   0  0  0  0  0  0
    6.4751    2.1788    0.4519 C   0  0  0  0  0  0
    6.4577    1.9728   -1.0859 C   0  0  0  0  0  0
    5.3769    0.9721   -1.6515 C   0  0  0  0  0  0
    4.9311    1.2018   -3.1010 C   0  0  0  0  0  0
    6.0238    1.2821   -4.2045 C   0  0  0  0  0  0
    7.1235    2.3835   -4.1506 C   0  0  0  0  0  0
    7.9480    2.5801   -5.4152 C   0  0  0  0  0  0
    6.5616    3.6648   -3.6830 N   0  0  0  0  0  0
    6.7438    0.0272   -4.1010 O   0  0  0  0  0  0
    5.9035   -0.3547   -1.5425 O   0  0  0  0  0  0
    5.5023    0.9418    3.3048 O   0  0  0  0  0  0
    3.2357   -2.8147    4.9704 O   0  0  0  0  0  0
    2.8355   -2.6868    3.6785 C   0  0  0  0  0  0
    1.7102   -2.4281    3.2963 O   0  0  0  0  0  0
    4.0424   -2.8185    2.7911 C   0  0  0  0  0  0
    4.0038   -4.0889    1.9268 C   0  0  0  0  0  0
    5.1748   -4.1643    0.9386 C   0  0  0  0  0  0
    5.2322   -2.9318    0.0663 C   0  0  0  0  0  0
    5.5635   -1.8249    0.4771 O   0  0  0  0  0  0
    4.8863   -3.1630   -1.2087 O   0  0  0  0  0  0
    4.0671   -5.2682    2.9072 C   0  0  0  0  0  0
    4.2510   -5.1290    4.1069 O   0  0  0  0  0  0
    3.9530   -6.4729    2.3314 O   0  0  0  0  0  0
    3.9665   -2.1963    8.1593 O   0  0  0  0  0  0
    4.3361   -3.2763    8.9437 C   0  0  0  0  0  0
    5.1931   -3.2417    9.8170 O   0  0  0  0  0  0
    3.5453   -4.5454    8.5997 C   0  0  0  0  0  0
    3.3908   -5.5814    9.7561 C   0  0  0  0  0  0
    2.6937   -5.1227   11.0499 C   0  0  0  0  0  0
    2.3688   -6.2591   11.9759 C   0  0  0  0  0  0
    3.1343   -6.7577   12.7895 O   0  0  0  0  0  0
    1.1042   -6.6865   11.8398 O   0  0  0  0  0  0
    2.7457   -6.9094    9.3405 C   0  0  0  0  0  0
    1.9076   -6.9907    8.4643 O   0  0  0  0  0  0
    3.2473   -8.0097    9.9397 O   0  0  0  0  0  0
    5.6990    3.8564   -4.1906 H   0  0  0  0  0  0
    7.1983    4.4183   -3.9518 H   0  0  0  0  0  0
    7.1452    0.0462   -3.2067 H   0  0  0  0  0  0
    6.0261   -0.5566   -0.5965 H   0  0  0  0  0  0
    5.4441    0.6931    2.3671 H   0  0  0  0  0  0
    4.7244   -4.0994   -1.4333 H   0  0  0  0  0  0
    3.9979   -7.2344    2.9613 H   0  0  0  0  0  0
    0.6803   -6.1037   11.1750 H   0  0  0  0  0  0
    2.8217   -8.8579    9.6836 H   0  0  0  0  0  0
  1  2  1  0  0  0
  2  3  1  0  0  0
  3  4  1  0  0  0
  4  5  1  0  0  0
  5  6  1  0  0  0
  5  7  1  0  0  0
  7  8  1  0  0  0
  7 39  1  0  0  0
  8  9  1  0  0  0
  8 27  1  0  0  0
  9 10  1  0  0  0
 10 11  1  0  0  0
 10 12  1  0  0  0
 12 13  1  0  0  0
 13 14  1  0  0  0
 13 26  1  0  0  0
 14 15  1  0  0  0
 15 16  1  0  0  0
 16 17  1  0  0  0
 17 18  1  0  0  0
 18 19  1  0  0  0
 18 25  1  0  0  0
 19 20  1  0  0  0
 20 21  1  0  0  0
 20 24  1  0  0  0
 21 22  1  0  0  0
 21 23  1  0  0  0
 23 51  1  0  0  0
 23 52  1  0  0  0
 24 53  1  0  0  0
 25 54  1  0  0  0
 26 55  1  0  0  0
 27 28  1  0  0  0
 28 29  2  0  0  0
 28 30  1  0  0  0
 30 31  1  0  0  0
 31 32  1  0  0  0
 31 36  1  0  0  0
 32 33  1  0  0  0
 33 34  2  0  0  0
 33 35  1  0  0  0
 35 56  1  0  0  0
 36 37  2  0  0  0
 36 38  1  0  0  0
 38 57  1  0  0  0
 39 40  1  0  0  0
 40 41  2  0  0  0
 40 42  1  0  0  0
 42 43  1  0  0  0
 43 44  1  0  0  0
 43 48  1  0  0  0
 44 45  1  0  0  0
 45 46  2  0  0  0
 45 47  1  0  0  0
 47 58  1  0  0  0
 48 49  2  0  0  0
 48 50  1  0  0  0
 50 59  1  0  0  0
M  END
>  <AUTHOR>
    GENERATED BY OPEN BABEL 2.4.1

>  <CHROM.1>
67.95111808,61.27330176,72.92577702,172.04813763,108.73145994,89.24078708
-74.31382765,149.28826112,84.34440071,33.13779414,178.50117508,178.66444506
163.42187576,-74.13167507,174.10183944,-75.02989839,154.18929811,53.48566029
63.81106565,-60.53321187,-166.68810658,-63.18324036,-47.28745191,-55.28185507
113.03713877,175.22110110,-55.40954535,-6.62214090,70.95684659,-5.47907633
179.72340755,-169.11402970,-153.55118605,59.34297394,168.93959759,-31.98994995
84.34575173,-2.57281310,178.97149042,3.90443810,-2.03093329,4.37829459,2.89797533
-1.27302568,-2.92505555

>  <COMPND>
    UNNAMED

>  <MASTER>
        0    0    0    0    0    0    0    0  109    0  109    0

>  <Name>
FB1.pdb

>  <RI>
0

>  <Rbt.Current_Directory>
/cluster/tossine/FB1_39T3/p3/0_clust01

>  <Rbt.Executable>
rbdock/0.1.0

>  <Rbt.Library>
librxdock.so/0.1.0

>  <Rbt.Parameter_File>
/cluster/rxdock/data/scripts/dock.prm

>  <Rbt.Receptor>
rx_4.prm

>  <SCORE>
12.7552

>  <SCORE.INTER>
1.72516

>  <SCORE.INTER.CONST>
1

>  <SCORE.INTER.POLAR>
-2.35119

>  <SCORE.INTER.REPUL>
0.422388

>  <SCORE.INTER.ROT>
32

>  <SCORE.INTER.VDW>
-29.7927

>  <SCORE.INTER.norm>
0.0345032

>  <SCORE.INTRA>
10.9227

>  <SCORE.INTRA.DIHEDRAL>
9.84967

>  <SCORE.INTRA.DIHEDRAL.0>
47.3121

>  <SCORE.INTRA.POLAR>
0.406657

>  <SCORE.INTRA.POLAR.0>
-1.47808

>  <SCORE.INTRA.REPUL>
0.0185191

>  <SCORE.INTRA.REPUL.0>
0

>  <SCORE.INTRA.VDW>
4.5226

>  <SCORE.INTRA.VDW.0>
-2.78316

>  <SCORE.INTRA.norm>
0.218453

>  <SCORE.RESTR>
0.107341

>  <SCORE.RESTR.CAVITY>
0.107341

>  <SCORE.RESTR.norm>
0.00214681

>  <SCORE.SYSTEM>
0

>  <SCORE.SYSTEM.CONST>
0

>  <SCORE.SYSTEM.DIHEDRAL>
0

>  <SCORE.SYSTEM.norm>
0

>  <SCORE.heavy>
50

>  <SCORE.norm>
0.255103

$$$$
