FB1.pdb
  RxDock  10062022213D
librxdock.so/0.1.0
 59 58  0  0  0  0  0  0  0  0999 V2000
    3.5481   -4.9042    0.6789 C   0  0  0  0  0  0
    2.5538   -4.0211    1.4292 C   0  0  0  0  0  0
    3.2567   -2.8625    2.1557 C   0  0  0  0  0  0
    3.7873   -3.2454    3.5599 C   0  0  0  0  0  0
    2.7262   -3.1658    4.7124 C   0  0  0  0  0  0
    1.6013   -4.1819    4.4077 C   0  0  0  0  0  0
    3.3387   -3.4128    6.1552 C   0  0  0  0  0  0
    2.3258   -3.3470    7.3945 C   0  0  0  0  0  0
    2.3861   -4.2859    8.6764 C   0  0  0  0  0  0
    1.6845   -5.7675    8.4919 C   0  0  0  0  0  0
    2.5628   -6.6083    7.5669 C   0  0  0  0  0  0
    1.3909   -6.5785    9.8339 C   0  0  0  0  0  0
    2.3249   -6.5174   11.1540 C   0  0  0  0  0  0
    3.7570   -7.1523   11.2000 C   0  0  0  0  0  0
    3.8782   -8.7417   11.2908 C   0  0  0  0  0  0
    3.3304   -9.6075   12.4928 C   0  0  0  0  0  0
    3.5822  -11.1384   12.5095 C   0  0  0  0  0  0
    3.1632  -11.9080   13.8215 C   0  0  0  0  0  0
    2.8131  -13.3921   13.6561 C   0  0  0  0  0  0
    1.6177  -13.7695   12.7357 C   0  0  0  0  0  0
    1.3440  -15.2569   12.3639 C   0  0  0  0  0  0
   -0.0695  -15.5926   11.9093 C   0  0  0  0  0  0
    2.3407  -15.7479   11.3933 N   0  0  0  0  0  0
    0.4408  -13.3430   13.4683 O   0  0  0  0  0  0
    4.2375  -11.7963   14.7613 O   0  0  0  0  0  0
    2.5280   -5.1154   11.3984 O   0  0  0  0  0  0
    2.4262   -1.9997    7.9303 O   0  0  0  0  0  0
    1.3970   -1.5648    8.7029 C   0  0  0  0  0  0
    0.9507   -2.1227    9.6873 O   0  0  0  0  0  0
    0.9597   -0.2172    8.1987 C   0  0  0  0  0  0
    2.0994    0.8141    8.2059 C   0  0  0  0  0  0
    2.7171    0.9991    9.5979 C   0  0  0  0  0  0
    3.6125    2.2156    9.6396 C   0  0  0  0  0  0
    3.4395    3.2094    8.9424 O   0  0  0  0  0  0
    4.6205    2.1072   10.5177 O   0  0  0  0  0  0
    3.1565    0.2814    7.2288 C   0  0  0  0  0  0
    4.2588   -0.1065    7.5850 O   0  0  0  0  0  0
    2.7893    0.3223    5.9405 O   0  0  0  0  0  0
    4.1677   -4.6424    6.1816 O   0  0  0  0  0  0
    5.4932   -4.5521    5.7905 C   0  0  0  0  0  0
    5.9121   -4.8417    4.6774 O   0  0  0  0  0  0
    6.4008   -4.0410    6.9172 C   0  0  0  0  0  0
    7.6256   -4.9438    7.2626 C   0  0  0  0  0  0
    7.5614   -6.4312    6.8699 C   0  0  0  0  0  0
    7.3341   -7.3386    8.0444 C   0  0  0  0  0  0
    6.2443   -7.7046    8.4629 O   0  0  0  0  0  0
    8.4816   -7.7458    8.6080 O   0  0  0  0  0  0
    8.9745   -4.4036    6.7719 C   0  0  0  0  0  0
    9.9202   -4.2180    7.5122 O   0  0  0  0  0  0
    9.0839   -4.2452    5.4362 O   0  0  0  0  0  0
    2.5736  -16.7151   11.6140 H   0  0  0  0  0  0
    3.2116  -15.2296   11.5289 H   0  0  0  0  0  0
    0.4180  -13.9235   14.2582 H   0  0  0  0  0  0
    4.3789  -10.8504   14.9506 H   0  0  0  0  0  0
    2.9595   -5.0205   12.2640 H   0  0  0  0  0  0
    4.5824    1.3252   11.1013 H   0  0  0  0  0  0
    3.4740   -0.0099    5.3083 H   0  0  0  0  0  0
    8.2407   -8.4077    9.2900 H   0  0  0  0  0  0
    9.9286   -3.8475    5.1285 H   0  0  0  0  0  0
  1  2  1  0  0  0
  2  3  1  0  0  0
  3  4  1  0  0  0
  4  5  1  0  0  0
  5  6  1  0  0  0
  5  7  1  0  0  0
  7  8  1  0  0  0
  7 39  1  0  0  0
  8  9  1  0  0  0
  8 27  1  0  0  0
  9 10  1  0  0  0
 10 11  1  0  0  0
 10 12  1  0  0  0
 12 13  1  0  0  0
 13 14  1  0  0  0
 13 26  1  0  0  0
 14 15  1  0  0  0
 15 16  1  0  0  0
 16 17  1  0  0  0
 17 18  1  0  0  0
 18 19  1  0  0  0
 18 25  1  0  0  0
 19 20  1  0  0  0
 20 21  1  0  0  0
 20 24  1  0  0  0
 21 22  1  0  0  0
 21 23  1  0  0  0
 23 51  1  0  0  0
 23 52  1  0  0  0
 24 53  1  0  0  0
 25 54  1  0  0  0
 26 55  1  0  0  0
 27 28  1  0  0  0
 28 29  2  0  0  0
 28 30  1  0  0  0
 30 31  1  0  0  0
 31 32  1  0  0  0
 31 36  1  0  0  0
 32 33  1  0  0  0
 33 34  2  0  0  0
 33 35  1  0  0  0
 35 56  1  0  0  0
 36 37  2  0  0  0
 36 38  1  0  0  0
 38 57  1  0  0  0
 39 40  1  0  0  0
 40 41  2  0  0  0
 40 42  1  0  0  0
 42 43  1  0  0  0
 43 44  1  0  0  0
 43 48  1  0  0  0
 44 45  1  0  0  0
 45 46  2  0  0  0
 45 47  1  0  0  0
 47 58  1  0  0  0
 48 49  2  0  0  0
 48 50  1  0  0  0
 50 59  1  0  0  0
M  END
>  <AUTHOR>
    GENERATED BY OPEN BABEL 2.4.1

>  <CHROM.1>
-85.40942776,-83.65266999,62.48050172,179.87854843,142.56199269,85.15519194
-82.35662966,160.27977820,71.25866496,-33.76466756,-70.07732052,-74.25634180
170.74581858,-62.20029421,-176.36541332,172.71764200,153.62035121,-61.25392958
60.38120563,171.03525172,158.54719389,-66.12297333,142.23029943,54.14333519
-57.86614303,-57.30071329,-167.62001466,-112.42357162,29.76262839,-8.08605954
179.25008809,-97.99330108,125.67393887,-21.93793974,-105.74394279,124.40774276
90.83946895,-173.58605976,176.42207538,3.74879143,-5.47574405,8.50553391
-1.39625289,-0.95257877,2.81267774

>  <COMPND>
    UNNAMED

>  <MASTER>
        0    0    0    0    0    0    0    0  109    0  109    0

>  <Name>
FB1.pdb

>  <RI>
0

>  <Rbt.Current_Directory>
/cluster/tossine/FB1_39T3/p3/0_clust01

>  <Rbt.Executable>
rbdock/0.1.0

>  <Rbt.Library>
librxdock.so/0.1.0

>  <Rbt.Parameter_File>
/cluster/rxdock/data/scripts/dock.prm

>  <Rbt.Receptor>
rx_0.prm

>  <SCORE>
27.0573

>  <SCORE.INTER>
3.58719

>  <SCORE.INTER.CONST>
1

>  <SCORE.INTER.POLAR>
-2.63281

>  <SCORE.INTER.REPUL>
0.47835

>  <SCORE.INTER.ROT>
32

>  <SCORE.INTER.VDW>
-27.253

>  <SCORE.INTER.norm>
0.0717439

>  <SCORE.INTRA>
23.4701

>  <SCORE.INTRA.DIHEDRAL>
34.5976

>  <SCORE.INTRA.DIHEDRAL.0>
47.3121

>  <SCORE.INTRA.POLAR>
1.47808

>  <SCORE.INTRA.POLAR.0>
-1.47808

>  <SCORE.INTRA.REPUL>
0.121267

>  <SCORE.INTRA.REPUL.0>
0

>  <SCORE.INTRA.VDW>
0.539485

>  <SCORE.INTRA.VDW.0>
-2.78316

>  <SCORE.INTRA.norm>
0.469402

>  <SCORE.RESTR>
0

>  <SCORE.RESTR.CAVITY>
0

>  <SCORE.RESTR.norm>
0

>  <SCORE.SYSTEM>
0

>  <SCORE.SYSTEM.CONST>
0

>  <SCORE.SYSTEM.DIHEDRAL>
0

>  <SCORE.SYSTEM.norm>
0

>  <SCORE.heavy>
50

>  <SCORE.norm>
0.541146

$$$$
