FB1.pdb
  RxDock  10072000293D
librxdock.so/0.1.0
 59 58  0  0  0  0  0  0  0  0999 V2000
    4.4199   -8.7956   11.8790 C   0  0  0  0  0  0
    5.4497   -8.9986   10.7702 C   0  0  0  0  0  0
    5.2538   -7.9963    9.6207 C   0  0  0  0  0  0
    5.7036   -6.5565    9.9734 C   0  0  0  0  0  0
    5.7421   -5.5601    8.7626 C   0  0  0  0  0  0
    6.5905   -6.1961    7.6372 C   0  0  0  0  0  0
    4.3034   -5.1558    8.2292 C   0  0  0  0  0  0
    4.2460   -4.1035    7.0228 C   0  0  0  0  0  0
    3.0044   -3.8905    6.0526 C   0  0  0  0  0  0
    2.4508   -5.2580    5.3145 C   0  0  0  0  0  0
    1.8573   -4.8722    3.9606 C   0  0  0  0  0  0
    3.5145   -6.4305    5.1176 C   0  0  0  0  0  0
    4.8324   -6.3133    4.1861 C   0  0  0  0  0  0
    4.7781   -5.7658    2.7186 C   0  0  0  0  0  0
    4.6654   -4.1879    2.5027 C   0  0  0  0  0  0
    4.8615   -3.4650    1.1121 C   0  0  0  0  0  0
    3.8633   -3.7445   -0.0424 C   0  0  0  0  0  0
    3.9987   -2.8386   -1.3270 C   0  0  0  0  0  0
    5.2730   -3.0265   -2.1596 C   0  0  0  0  0  0
    5.5813   -1.9924   -3.2794 C   0  0  0  0  0  0
    5.3636   -0.4702   -3.0326 C   0  0  0  0  0  0
    4.0432    0.1127   -3.5165 C   0  0  0  0  0  0
    5.6044   -0.1274   -1.6180 N   0  0  0  0  0  0
    7.0033   -2.1328   -3.5281 O   0  0  0  0  0  0
    2.8661   -3.0897   -2.1659 O   0  0  0  0  0  0
    5.7040   -5.4128    4.8904 O   0  0  0  0  0  0
    4.4692   -2.7947    7.6142 O   0  0  0  0  0  0
    4.8060   -1.7855    6.7696 C   0  0  0  0  0  0
    5.8316   -1.7023    6.1209 O   0  0  0  0  0  0
    3.6499   -0.8273    6.6879 C   0  0  0  0  0  0
    2.8861   -0.7091    8.0165 C   0  0  0  0  0  0
    2.1247   -1.9921    8.3739 C   0  0  0  0  0  0
    1.3788   -1.8377    9.6789 C   0  0  0  0  0  0
    0.1708   -1.6394    9.7504 O   0  0  0  0  0  0
    2.1662   -1.9403   10.7598 O   0  0  0  0  0  0
    3.9452   -0.4115    9.0869 C   0  0  0  0  0  0
    4.7055   -1.2603    9.5271 O   0  0  0  0  0  0
    3.9359    0.8504    9.5382 O   0  0  0  0  0  0
    3.4763   -6.3565    7.9572 O   0  0  0  0  0  0
    2.1222   -6.3027    8.2431 C   0  0  0  0  0  0
    1.4185   -5.3118    8.0968 O   0  0  0  0  0  0
    1.5836   -7.6386    8.7717 C   0  0  0  0  0  0
    0.7534   -7.5600   10.0905 C   0  0  0  0  0  0
    1.3463   -6.7716   11.2726 C   0  0  0  0  0  0
    0.3542   -6.5305   12.3735 C   0  0  0  0  0  0
   -0.1704   -7.3942   13.0630 O   0  0  0  0  0  0
    0.0959   -5.2265   12.5551 O   0  0  0  0  0  0
   -0.6921   -7.0814    9.9065 C   0  0  0  0  0  0
   -1.0026   -5.9066    9.8975 O   0  0  0  0  0  0
   -1.5945   -8.0505    9.6458 O   0  0  0  0  0  0
    6.3244   -0.7435   -1.2429 H   0  0  0  0  0  0
    4.7629   -0.3479   -1.0807 H   0  0  0  0  0  0
    7.4312   -1.7779   -2.7205 H   0  0  0  0  0  0
    2.8334   -2.3946   -2.8489 H   0  0  0  0  0  0
    6.4972   -5.2748    4.3462 H   0  0  0  0  0  0
    1.7025   -1.9012   11.6182 H   0  0  0  0  0  0
    4.5142    1.0087   10.3252 H   0  0  0  0  0  0
   -0.5044   -5.1635   13.3278 H   0  0  0  0  0  0
   -2.4510   -7.7384    9.2781 H   0  0  0  0  0  0
  1  2  1  0  0  0
  2  3  1  0  0  0
  3  4  1  0  0  0
  4  5  1  0  0  0
  5  6  1  0  0  0
  5  7  1  0  0  0
  7  8  1  0  0  0
  7 39  1  0  0  0
  8  9  1  0  0  0
  8 27  1  0  0  0
  9 10  1  0  0  0
 10 11  1  0  0  0
 10 12  1  0  0  0
 12 13  1  0  0  0
 13 14  1  0  0  0
 13 26  1  0  0  0
 14 15  1  0  0  0
 15 16  1  0  0  0
 16 17  1  0  0  0
 17 18  1  0  0  0
 18 19  1  0  0  0
 18 25  1  0  0  0
 19 20  1  0  0  0
 20 21  1  0  0  0
 20 24  1  0  0  0
 21 22  1  0  0  0
 21 23  1  0  0  0
 23 51  1  0  0  0
 23 52  1  0  0  0
 24 53  1  0  0  0
 25 54  1  0  0  0
 26 55  1  0  0  0
 27 28  1  0  0  0
 28 29  2  0  0  0
 28 30  1  0  0  0
 30 31  1  0  0  0
 31 32  1  0  0  0
 31 36  1  0  0  0
 32 33  1  0  0  0
 33 34  2  0  0  0
 33 35  1  0  0  0
 35 56  1  0  0  0
 36 37  2  0  0  0
 36 38  1  0  0  0
 38 57  1  0  0  0
 39 40  1  0  0  0
 40 41  2  0  0  0
 40 42  1  0  0  0
 42 43  1  0  0  0
 43 44  1  0  0  0
 43 48  1  0  0  0
 44 45  1  0  0  0
 45 46  2  0  0  0
 45 47  1  0  0  0
 47 58  1  0  0  0
 48 49  2  0  0  0
 48 50  1  0  0  0
 50 59  1  0  0  0
M  END
>  <AUTHOR>
    GENERATED BY OPEN BABEL 2.4.1

>  <CHROM.1>
73.58518606,170.39461106,-52.73787045,178.08445255,160.33028943,143.01754880
-53.59521129,163.55740821,-149.93726848,-64.23967435,-48.29100003,77.38309060
-177.25191939,168.45785815,64.53986491,171.58118714,67.52589643,-169.09588253
166.99130141,42.07787504,-96.35512606,-69.38274288,32.07429530,-65.79334388
34.11755890,-68.58463028,-179.61352299,-75.52771921,102.46443352,-176.27975765
170.68160652,36.22526120,129.63609886,-49.11709112,168.33692130,-86.43256817
64.51338637,-175.97622870,-163.20587460,3.36320648,-4.22395715,6.25785842
-3.02881528,1.31987902,0.19025902

>  <COMPND>
    UNNAMED

>  <MASTER>
        0    0    0    0    0    0    0    0  109    0  109    0

>  <Name>
FB1.pdb

>  <RI>
0

>  <Rbt.Current_Directory>
/cluster/tossine/FB1_39T3/p3/0_clust01

>  <Rbt.Executable>
rbdock/0.1.0

>  <Rbt.Library>
librxdock.so/0.1.0

>  <Rbt.Parameter_File>
/cluster/rxdock/data/scripts/dock.prm

>  <Rbt.Receptor>
rx_3.prm

>  <SCORE>
21.3276

>  <SCORE.INTER>
4.35222

>  <SCORE.INTER.CONST>
1

>  <SCORE.INTER.POLAR>
-3.94892

>  <SCORE.INTER.REPUL>
0.935953

>  <SCORE.INTER.ROT>
32

>  <SCORE.INTER.VDW>
-24.3012

>  <SCORE.INTER.norm>
0.0870445

>  <SCORE.INTRA>
16.6423

>  <SCORE.INTRA.DIHEDRAL>
22.8134

>  <SCORE.INTRA.DIHEDRAL.0>
47.3121

>  <SCORE.INTRA.POLAR>
1.47808

>  <SCORE.INTRA.POLAR.0>
-1.47808

>  <SCORE.INTRA.REPUL>
0

>  <SCORE.INTRA.REPUL.0>
0

>  <SCORE.INTRA.VDW>
0.210157

>  <SCORE.INTRA.VDW.0>
-2.78316

>  <SCORE.INTRA.norm>
0.332846

>  <SCORE.RESTR>
0.333109

>  <SCORE.RESTR.CAVITY>
0.333109

>  <SCORE.RESTR.norm>
0.00666217

>  <SCORE.SYSTEM>
0

>  <SCORE.SYSTEM.CONST>
0

>  <SCORE.SYSTEM.DIHEDRAL>
0

>  <SCORE.SYSTEM.norm>
0

>  <SCORE.heavy>
50

>  <SCORE.norm>
0.426553

$$$$
