FB1.pdb
  RxDock  10072000273D
librxdock.so/0.1.0
 59 58  0  0  0  0  0  0  0  0999 V2000
    6.9381   -6.8426    5.5213 C   0  0  0  0  0  0
    7.8475   -6.4783    6.6925 C   0  0  0  0  0  0
    7.3394   -5.2362    7.4429 C   0  0  0  0  0  0
    7.3916   -3.9394    6.5972 C   0  0  0  0  0  0
    6.8065   -2.6660    7.3019 C   0  0  0  0  0  0
    7.1820   -1.4273    6.4561 C   0  0  0  0  0  0
    5.2391   -2.7374    7.5389 C   0  0  0  0  0  0
    4.3022   -2.5816    6.2488 C   0  0  0  0  0  0
    3.3424   -3.7110    5.6732 C   0  0  0  0  0  0
    4.1101   -4.9805    4.9518 C   0  0  0  0  0  0
    3.6044   -6.2761    5.5842 C   0  0  0  0  0  0
    3.9773   -5.0726    3.3648 C   0  0  0  0  0  0
    4.4938   -3.9290    2.3429 C   0  0  0  0  0  0
    4.4482   -4.1101    0.7869 C   0  0  0  0  0  0
    5.0669   -2.9572   -0.1282 C   0  0  0  0  0  0
    5.0319   -2.9610   -1.7072 C   0  0  0  0  0  0
    5.6480   -1.7704   -2.4885 C   0  0  0  0  0  0
    4.9677   -0.3622   -2.2803 C   0  0  0  0  0  0
    5.7833    0.8586   -2.7241 C   0  0  0  0  0  0
    7.0560    1.2301   -1.9113 C   0  0  0  0  0  0
    7.9220    2.4598   -2.3154 C   0  0  0  0  0  0
    7.2104    3.8048   -2.3586 C   0  0  0  0  0  0
    9.1435    2.5357   -1.4916 N   0  0  0  0  0  0
    6.5661    1.5367   -0.5810 O   0  0  0  0  0  0
    3.7254   -0.3623   -2.9920 O   0  0  0  0  0  0
    3.6607   -2.7889    2.6125 O   0  0  0  0  0  0
    3.4167   -1.4620    6.5225 O   0  0  0  0  0  0
    3.9273   -0.2151    6.3497 C   0  0  0  0  0  0
    4.7977    0.1030    5.5619 O   0  0  0  0  0  0
    3.1640    0.7377    7.2277 C   0  0  0  0  0  0
    4.0504    1.8596    7.7919 C   0  0  0  0  0  0
    3.2932    2.7773    8.7602 C   0  0  0  0  0  0
    2.9539    2.0548   10.0433 C   0  0  0  0  0  0
    2.3703    0.9770   10.0808 O   0  0  0  0  0  0
    3.3550    2.7057   11.1452 O   0  0  0  0  0  0
    5.2025    1.1586    8.5249 C   0  0  0  0  0  0
    5.1912   -0.0312    8.8015 O   0  0  0  0  0  0
    6.2060    1.9715    8.8829 O   0  0  0  0  0  0
    4.8736   -3.9247    8.3492 O   0  0  0  0  0  0
    3.5857   -4.0088    8.8515 C   0  0  0  0  0  0
    2.7287   -3.1450    8.7185 O   0  0  0  0  0  0
    3.3379   -5.3216    9.6062 C   0  0  0  0  0  0
    1.9262   -5.4752   10.2526 C   0  0  0  0  0  0
    0.7642   -5.9326    9.3521 C   0  0  0  0  0  0
    0.9902   -7.2875    8.7459 C   0  0  0  0  0  0
    1.4532   -7.5037    7.6343 O   0  0  0  0  0  0
    0.6418   -8.2846    9.5734 O   0  0  0  0  0  0
    1.8935   -6.3488   11.5128 C   0  0  0  0  0  0
    2.7176   -7.2128   11.7387 O   0  0  0  0  0  0
    0.9458   -6.0255   12.4175 O   0  0  0  0  0  0
    9.9488    2.2870   -2.0645 H   0  0  0  0  0  0
    9.0979    1.8106   -0.7722 H   0  0  0  0  0  0
    5.9195    2.2611   -0.7171 H   0  0  0  0  0  0
    3.2613    0.4719   -2.7940 H   0  0  0  0  0  0
    3.8981   -2.4436    3.4894 H   0  0  0  0  0  0
    3.9258    3.4819   10.9860 H   0  0  0  0  0  0
    6.9569    1.5187    9.3411 H   0  0  0  0  0  0
    0.8353   -9.1222    9.1019 H   0  0  0  0  0  0
    0.3221   -5.3190   12.1378 H   0  0  0  0  0  0
  1  2  1  0  0  0
  2  3  1  0  0  0
  3  4  1  0  0  0
  4  5  1  0  0  0
  5  6  1  0  0  0
  5  7  1  0  0  0
  7  8  1  0  0  0
  7 39  1  0  0  0
  8  9  1  0  0  0
  8 27  1  0  0  0
  9 10  1  0  0  0
 10 11  1  0  0  0
 10 12  1  0  0  0
 12 13  1  0  0  0
 13 14  1  0  0  0
 13 26  1  0  0  0
 14 15  1  0  0  0
 15 16  1  0  0  0
 16 17  1  0  0  0
 17 18  1  0  0  0
 18 19  1  0  0  0
 18 25  1  0  0  0
 19 20  1  0  0  0
 20 21  1  0  0  0
 20 24  1  0  0  0
 21 22  1  0  0  0
 21 23  1  0  0  0
 23 51  1  0  0  0
 23 52  1  0  0  0
 24 53  1  0  0  0
 25 54  1  0  0  0
 26 55  1  0  0  0
 27 28  1  0  0  0
 28 29  2  0  0  0
 28 30  1  0  0  0
 30 31  1  0  0  0
 31 32  1  0  0  0
 31 36  1  0  0  0
 32 33  1  0  0  0
 33 34  2  0  0  0
 33 35  1  0  0  0
 35 56  1  0  0  0
 36 37  2  0  0  0
 36 38  1  0  0  0
 38 57  1  0  0  0
 39 40  1  0  0  0
 40 41  2  0  0  0
 40 42  1  0  0  0
 42 43  1  0  0  0
 43 44  1  0  0  0
 43 48  1  0  0  0
 44 45  1  0  0  0
 45 46  2  0  0  0
 45 47  1  0  0  0
 47 58  1  0  0  0
 48 49  2  0  0  0
 48 50  1  0  0  0
 50 59  1  0  0  0
M  END
>  <AUTHOR>
    GENERATED BY OPEN BABEL 2.4.1

>  <CHROM.1>
-65.99340174,176.73582217,169.00167433,-72.52705745,115.46193391,168.47204637
-71.18844384,79.55836366,127.07101586,60.46467480,174.96201280,-176.23812165
69.60630902,-176.83490356,179.02696888,-63.70084583,163.65367961,-69.16730088
174.46680332,-179.95542887,57.66867898,-57.75478492,108.20449742,29.53440409
145.11558154,-176.23045917,69.24335638,-13.53593943,-52.68032825,-8.84885318
-178.95381717,-2.85967516,177.76114824,81.64664845,60.66194935,-24.92405396
-95.40260859,-179.16867451,5.47589291,4.44266425,-2.31438345,5.50083268,2.85853775
1.28144033,0.72939974

>  <COMPND>
    UNNAMED

>  <MASTER>
        0    0    0    0    0    0    0    0  109    0  109    0

>  <Name>
FB1.pdb

>  <RI>
0

>  <Rbt.Current_Directory>
/cluster/tossine/FB1_39T3/p3/0_clust01

>  <Rbt.Executable>
rbdock/0.1.0

>  <Rbt.Library>
librxdock.so/0.1.0

>  <Rbt.Parameter_File>
/cluster/rxdock/data/scripts/dock.prm

>  <Rbt.Receptor>
rx_3.prm

>  <SCORE>
-1.16699

>  <SCORE.INTER>
0.988377

>  <SCORE.INTER.CONST>
1

>  <SCORE.INTER.POLAR>
-2.70963

>  <SCORE.INTER.REPUL>
1.10306

>  <SCORE.INTER.ROT>
32

>  <SCORE.INTER.VDW>
-32.7142

>  <SCORE.INTER.norm>
0.0197675

>  <SCORE.INTRA>
-2.25327

>  <SCORE.INTRA.DIHEDRAL>
-7.93597

>  <SCORE.INTRA.DIHEDRAL.0>
47.3121

>  <SCORE.INTRA.POLAR>
1.47808

>  <SCORE.INTRA.POLAR.0>
-1.47808

>  <SCORE.INTRA.REPUL>
0.0169929

>  <SCORE.INTRA.REPUL.0>
0

>  <SCORE.INTRA.VDW>
-3.39571

>  <SCORE.INTRA.VDW.0>
-2.78316

>  <SCORE.INTRA.norm>
-0.0450654

>  <SCORE.RESTR>
0.0979026

>  <SCORE.RESTR.CAVITY>
0.0979026

>  <SCORE.RESTR.norm>
0.00195805

>  <SCORE.SYSTEM>
0

>  <SCORE.SYSTEM.CONST>
0

>  <SCORE.SYSTEM.DIHEDRAL>
0

>  <SCORE.SYSTEM.norm>
0

>  <SCORE.heavy>
50

>  <SCORE.norm>
-0.0233398

$$$$
