FB1.pdb
  RxDock  10062023493D
librxdock.so/0.1.0
 59 58  0  0  0  0  0  0  0  0999 V2000
    0.9948   -0.6997   11.0069 C   0  0  0  0  0  0
    2.0205   -1.0471    9.9305 C   0  0  0  0  0  0
    1.5470   -2.2141    9.0484 C   0  0  0  0  0  0
    2.4925   -2.5115    7.8579 C   0  0  0  0  0  0
    1.9520   -3.5673    6.8314 C   0  0  0  0  0  0
    0.6364   -3.0260    6.2256 C   0  0  0  0  0  0
    2.9934   -3.9330    5.6915 C   0  0  0  0  0  0
    3.3705   -2.7726    4.6535 C   0  0  0  0  0  0
    2.7174   -2.5827    3.2163 C   0  0  0  0  0  0
    2.3946   -3.9819    2.4043 C   0  0  0  0  0  0
    0.8882   -4.2329    2.4502 C   0  0  0  0  0  0
    2.9027   -4.0515    0.8938 C   0  0  0  0  0  0
    4.4471   -3.8688    0.4463 C   0  0  0  0  0  0
    5.2357   -2.5339    0.6750 C   0  0  0  0  0  0
    5.6000   -1.6419   -0.5981 C   0  0  0  0  0  0
    5.7659   -0.0716   -0.5649 C   0  0  0  0  0  0
    6.3488    0.6620   -1.8016 C   0  0  0  0  0  0
    6.1332    2.2238   -1.8620 C   0  0  0  0  0  0
    6.9719    2.9859   -2.8955 C   0  0  0  0  0  0
    6.8874    4.5386   -2.9133 C   0  0  0  0  0  0
    7.3121    5.3686   -1.6658 C   0  0  0  0  0  0
    8.7221    5.1323   -1.1428 C   0  0  0  0  0  0
    7.0640    6.8067   -1.8821 N   0  0  0  0  0  0
    7.8019    4.9445   -3.9634 O   0  0  0  0  0  0
    4.7484    2.4685   -2.1304 O   0  0  0  0  0  0
    5.1682   -4.8633    1.1930 O   0  0  0  0  0  0
    3.1096   -1.5162    5.3362 O   0  0  0  0  0  0
    4.1053   -0.5923    5.3297 C   0  0  0  0  0  0
    4.3360    0.2106    4.4455 O   0  0  0  0  0  0
    4.8216   -0.6552    6.6504 C   0  0  0  0  0  0
    4.8659    0.7057    7.3634 C   0  0  0  0  0  0
    3.4706    1.2145    7.7479 C   0  0  0  0  0  0
    2.9839    2.2606    6.7721 C   0  0  0  0  0  0
    3.5328    2.4969    5.7013 O   0  0  0  0  0  0
    1.8868    2.9102    7.1883 O   0  0  0  0  0  0
    5.7137    0.4935    8.6253 C   0  0  0  0  0  0
    6.6244    1.2400    8.9502 O   0  0  0  0  0  0
    5.4050   -0.6104    9.3197 O   0  0  0  0  0  0
    4.2000   -4.5841    6.2574 O   0  0  0  0  0  0
    5.1357   -5.1114    5.3831 C   0  0  0  0  0  0
    5.0071   -5.1511    4.1664 O   0  0  0  0  0  0
    6.3748   -5.6508    6.1097 C   0  0  0  0  0  0
    6.0928   -6.5772    7.3332 C   0  0  0  0  0  0
    7.2981   -7.1908    8.0688 C   0  0  0  0  0  0
    6.8975   -8.1004    9.1942 C   0  0  0  0  0  0
    6.4897   -9.2475    9.0740 O   0  0  0  0  0  0
    7.0500   -7.5261   10.3973 O   0  0  0  0  0  0
    5.1758   -5.9645    8.3989 C   0  0  0  0  0  0
    4.0813   -6.4186    8.6684 O   0  0  0  0  0  0
    5.7070   -4.9426    9.1024 O   0  0  0  0  0  0
    7.2175    7.3073   -1.0079 H   0  0  0  0  0  0
    6.0719    6.9392   -2.0910 H   0  0  0  0  0  0
    8.6660    4.5643   -3.6986 H   0  0  0  0  0  0
    4.2195    1.9524   -1.4944 H   0  0  0  0  0  0
    5.1284   -4.6208    2.1333 H   0  0  0  0  0  0
    1.5125    3.5472    6.5499 H   0  0  0  0  0  0
    5.9439   -0.7437   10.1386 H   0  0  0  0  0  0
    6.7816   -8.1934   11.0636 H   0  0  0  0  0  0
    5.1247   -4.5646    9.7982 H   0  0  0  0  0  0
  1  2  1  0  0  0
  2  3  1  0  0  0
  3  4  1  0  0  0
  4  5  1  0  0  0
  5  6  1  0  0  0
  5  7  1  0  0  0
  7  8  1  0  0  0
  7 39  1  0  0  0
  8  9  1  0  0  0
  8 27  1  0  0  0
  9 10  1  0  0  0
 10 11  1  0  0  0
 10 12  1  0  0  0
 12 13  1  0  0  0
 13 14  1  0  0  0
 13 26  1  0  0  0
 14 15  1  0  0  0
 15 16  1  0  0  0
 16 17  1  0  0  0
 17 18  1  0  0  0
 18 19  1  0  0  0
 18 25  1  0  0  0
 19 20  1  0  0  0
 20 21  1  0  0  0
 20 24  1  0  0  0
 21 22  1  0  0  0
 21 23  1  0  0  0
 23 51  1  0  0  0
 23 52  1  0  0  0
 24 53  1  0  0  0
 25 54  1  0  0  0
 26 55  1  0  0  0
 27 28  1  0  0  0
 28 29  2  0  0  0
 28 30  1  0  0  0
 30 31  1  0  0  0
 31 32  1  0  0  0
 31 36  1  0  0  0
 32 33  1  0  0  0
 33 34  2  0  0  0
 33 35  1  0  0  0
 35 56  1  0  0  0
 36 37  2  0  0  0
 36 38  1  0  0  0
 38 57  1  0  0  0
 39 40  1  0  0  0
 40 41  2  0  0  0
 40 42  1  0  0  0
 42 43  1  0  0  0
 43 44  1  0  0  0
 43 48  1  0  0  0
 44 45  1  0  0  0
 45 46  2  0  0  0
 45 47  1  0  0  0
 47 58  1  0  0  0
 48 49  2  0  0  0
 48 50  1  0  0  0
 50 59  1  0  0  0
M  END
>  <AUTHOR>
    GENERATED BY OPEN BABEL 2.4.1

>  <CHROM.1>
174.40072875,-172.40485597,60.96294401,-66.53723986,-97.21183021,172.37016137
-37.75838299,129.26672602,105.09336925,58.01667342,-63.14862968,-109.41457219
-67.07283840,150.89881704,169.88842587,164.13900862,166.38924584,-174.86793764
50.80867175,61.07467269,55.63297782,-57.57891141,171.59349713,84.12644855
-124.77895606,63.95008275,-101.09349293,131.70401276,11.45374154,-175.80871626
-179.37410833,-4.46464152,48.11320795,177.73919047,-177.92198380,115.82182238
77.48512033,-179.01820068,-178.70894359,4.67998143,-1.58465754,4.54200601
2.14548138,-1.31221751,2.81488828

>  <COMPND>
    UNNAMED

>  <MASTER>
        0    0    0    0    0    0    0    0  109    0  109    0

>  <Name>
FB1.pdb

>  <RI>
0

>  <Rbt.Current_Directory>
/cluster/tossine/FB1_39T3/p3/0_clust01

>  <Rbt.Executable>
rbdock/0.1.0

>  <Rbt.Library>
librxdock.so/0.1.0

>  <Rbt.Parameter_File>
/cluster/rxdock/data/scripts/dock.prm

>  <Rbt.Receptor>
rx_2.prm

>  <SCORE>
-3.15867

>  <SCORE.INTER>
-10.6471

>  <SCORE.INTER.CONST>
1

>  <SCORE.INTER.POLAR>
-2.92077

>  <SCORE.INTER.REPUL>
0.684285

>  <SCORE.INTER.ROT>
32

>  <SCORE.INTER.VDW>
-41.5379

>  <SCORE.INTER.norm>
-0.212941

>  <SCORE.INTRA>
7.48841

>  <SCORE.INTRA.DIHEDRAL>
20.5403

>  <SCORE.INTRA.DIHEDRAL.0>
47.3121

>  <SCORE.INTRA.POLAR>
0.478077

>  <SCORE.INTRA.POLAR.0>
-1.47808

>  <SCORE.INTRA.REPUL>
0

>  <SCORE.INTRA.REPUL.0>
0

>  <SCORE.INTRA.VDW>
-4.40723

>  <SCORE.INTRA.VDW.0>
-2.78316

>  <SCORE.INTRA.norm>
0.149768

>  <SCORE.RESTR>
0

>  <SCORE.RESTR.CAVITY>
0

>  <SCORE.RESTR.norm>
0

>  <SCORE.SYSTEM>
0

>  <SCORE.SYSTEM.CONST>
0

>  <SCORE.SYSTEM.DIHEDRAL>
0

>  <SCORE.SYSTEM.norm>
0

>  <SCORE.heavy>
50

>  <SCORE.norm>
-0.0631733

$$$$
