FB1.pdb
  RxDock  10062022303D
librxdock.so/0.1.0
 59 58  0  0  0  0  0  0  0  0999 V2000
    6.9472   -8.2512    9.5395 C   0  0  0  0  0  0
    5.5671   -7.9101    8.9825 C   0  0  0  0  0  0
    5.0101   -6.6146    9.5955 C   0  0  0  0  0  0
    3.7001   -6.1285    8.9267 C   0  0  0  0  0  0
    3.8896   -5.4094    7.5456 C   0  0  0  0  0  0
    3.1830   -6.2518    6.4586 C   0  0  0  0  0  0
    3.3644   -3.9121    7.5339 C   0  0  0  0  0  0
    3.7735   -3.0094    6.2753 C   0  0  0  0  0  0
    3.7220   -3.4791    4.7571 C   0  0  0  0  0  0
    2.2526   -4.0252    4.2433 C   0  0  0  0  0  0
    1.2515   -2.8740    4.3252 C   0  0  0  0  0  0
    2.2122   -4.6664    2.7831 C   0  0  0  0  0  0
    3.4303   -5.5048    2.1259 C   0  0  0  0  0  0
    4.6724   -4.8086    1.4713 C   0  0  0  0  0  0
    4.4438   -3.9322    0.1565 C   0  0  0  0  0  0
    5.6086   -3.3590   -0.7431 C   0  0  0  0  0  0
    6.7955   -2.6157   -0.0750 C   0  0  0  0  0  0
    6.5328   -1.1258    0.3726 C   0  0  0  0  0  0
    6.6418   -0.0579   -0.7229 C   0  0  0  0  0  0
    5.7127   -0.1775   -1.9642 C   0  0  0  0  0  0
    5.2531    1.0958   -2.7342 C   0  0  0  0  0  0
    4.2159    0.8880   -3.8289 C   0  0  0  0  0  0
    4.8257    2.1514   -1.7964 N   0  0  0  0  0  0
    6.4826   -0.9413   -2.9274 O   0  0  0  0  0  0
    5.2209   -1.0606    0.9423 O   0  0  0  0  0  0
    3.9651   -6.2878    3.2064 O   0  0  0  0  0  0
    2.9141   -1.8381    6.3189 O   0  0  0  0  0  0
    3.5225   -0.6315    6.4582 C   0  0  0  0  0  0
    4.5592   -0.2829    5.9261 O   0  0  0  0  0  0
    2.6457    0.2487    7.3055 C   0  0  0  0  0  0
    3.3918    1.4779    7.8484 C   0  0  0  0  0  0
    4.8505    1.1691    8.2093 C   0  0  0  0  0  0
    5.3854    2.1624    9.2145 C   0  0  0  0  0  0
    4.7936    3.1870    9.5365 O   0  0  0  0  0  0
    6.5755    1.8160    9.7268 O   0  0  0  0  0  0
    3.3383    2.5306    6.7327 C   0  0  0  0  0  0
    2.6652    3.5474    6.8068 O   0  0  0  0  0  0
    4.0549    2.2194    5.6438 O   0  0  0  0  0  0
    1.9079   -3.8535    7.8081 O   0  0  0  0  0  0
    1.4906   -3.6520    9.1132 C   0  0  0  0  0  0
    1.9827   -4.1955   10.0934 O   0  0  0  0  0  0
    0.3258   -2.6577    9.2068 C   0  0  0  0  0  0
   -0.9569   -3.0396    8.4047 C   0  0  0  0  0  0
   -1.8296   -4.1893    8.9406 C   0  0  0  0  0  0
   -1.0923   -5.4945    9.0262 C   0  0  0  0  0  0
   -0.2152   -5.7669    9.8343 O   0  0  0  0  0  0
   -1.5110   -6.3814    8.1105 O   0  0  0  0  0  0
   -1.8935   -1.8634    8.1019 C   0  0  0  0  0  0
   -1.7571   -0.7648    8.6031 O   0  0  0  0  0  0
   -2.8253   -2.0940    7.1533 O   0  0  0  0  0  0
    3.8237    2.0662   -1.6316 H   0  0  0  0  0  0
    4.9415    3.0595   -2.2519 H   0  0  0  0  0  0
    6.4801   -1.8563   -2.5752 H   0  0  0  0  0  0
    5.0519   -0.1391    1.2122 H   0  0  0  0  0  0
    3.7203   -7.2160    3.0550 H   0  0  0  0  0  0
    6.9593    2.4547   10.3579 H   0  0  0  0  0  0
    4.0440    2.9093    4.9348 H   0  0  0  0  0  0
   -2.2560   -5.9608    7.6316 H   0  0  0  0  0  0
   -2.8351   -3.0064    6.7877 H   0  0  0  0  0  0
  1  2  1  0  0  0
  2  3  1  0  0  0
  3  4  1  0  0  0
  4  5  1  0  0  0
  5  6  1  0  0  0
  5  7  1  0  0  0
  7  8  1  0  0  0
  7 39  1  0  0  0
  8  9  1  0  0  0
  8 27  1  0  0  0
  9 10  1  0  0  0
 10 11  1  0  0  0
 10 12  1  0  0  0
 12 13  1  0  0  0
 13 14  1  0  0  0
 13 26  1  0  0  0
 14 15  1  0  0  0
 15 16  1  0  0  0
 16 17  1  0  0  0
 17 18  1  0  0  0
 18 19  1  0  0  0
 18 25  1  0  0  0
 19 20  1  0  0  0
 20 21  1  0  0  0
 20 24  1  0  0  0
 21 22  1  0  0  0
 21 23  1  0  0  0
 23 51  1  0  0  0
 23 52  1  0  0  0
 24 53  1  0  0  0
 25 54  1  0  0  0
 26 55  1  0  0  0
 27 28  1  0  0  0
 28 29  2  0  0  0
 28 30  1  0  0  0
 30 31  1  0  0  0
 31 32  1  0  0  0
 31 36  1  0  0  0
 32 33  1  0  0  0
 33 34  2  0  0  0
 33 35  1  0  0  0
 35 56  1  0  0  0
 36 37  2  0  0  0
 36 38  1  0  0  0
 38 57  1  0  0  0
 39 40  1  0  0  0
 40 41  2  0  0  0
 40 42  1  0  0  0
 42 43  1  0  0  0
 43 44  1  0  0  0
 43 48  1  0  0  0
 44 45  1  0  0  0
 45 46  2  0  0  0
 45 47  1  0  0  0
 47 58  1  0  0  0
 48 49  2  0  0  0
 48 50  1  0  0  0
 50 59  1  0  0  0
M  END
>  <AUTHOR>
    GENERATED BY OPEN BABEL 2.4.1

>  <CHROM.1>
172.36737961,-77.73154529,116.68558562,168.19634366,44.32164660,94.07241740
56.08054430,118.43982181,63.20257320,33.50426286,-80.36248951,-65.17713502
108.32284288,-170.01776714,-48.31489928,-77.97931594,-81.56122380,58.74113425
-179.46071626,150.57120727,-172.94123843,72.77613634,-91.63564506,39.45967630
164.11328966,-36.31126742,-157.22831406,109.54431462,-10.13938541,178.08070772
-178.21753615,-42.29896108,58.32184150,72.71050599,-60.21059908,-10.18792190
71.43411831,-3.37982047,2.93508592,3.21682323,-2.30949818,5.35370380,3.13259959
1.19414242,0.33977792

>  <COMPND>
    UNNAMED

>  <MASTER>
        0    0    0    0    0    0    0    0  109    0  109    0

>  <Name>
FB1.pdb

>  <RI>
0

>  <Rbt.Current_Directory>
/cluster/tossine/FB1_39T3/p3/0_clust01

>  <Rbt.Executable>
rbdock/0.1.0

>  <Rbt.Library>
librxdock.so/0.1.0

>  <Rbt.Parameter_File>
/cluster/rxdock/data/scripts/dock.prm

>  <Rbt.Receptor>
rx_0.prm

>  <SCORE>
6.32119

>  <SCORE.INTER>
-11.3633

>  <SCORE.INTER.CONST>
1

>  <SCORE.INTER.POLAR>
-3.47962

>  <SCORE.INTER.REPUL>
0.0292496

>  <SCORE.INTER.ROT>
32

>  <SCORE.INTER.VDW>
-37.0788

>  <SCORE.INTER.norm>
-0.227265

>  <SCORE.INTRA>
17.2764

>  <SCORE.INTRA.DIHEDRAL>
24.157

>  <SCORE.INTRA.DIHEDRAL.0>
47.3121

>  <SCORE.INTRA.POLAR>
1.47808

>  <SCORE.INTRA.POLAR.0>
-1.47808

>  <SCORE.INTRA.REPUL>
0

>  <SCORE.INTRA.REPUL.0>
0

>  <SCORE.INTRA.VDW>
0.172411

>  <SCORE.INTRA.VDW.0>
-2.78316

>  <SCORE.INTRA.norm>
0.345528

>  <SCORE.RESTR>
0.408066

>  <SCORE.RESTR.CAVITY>
0.408066

>  <SCORE.RESTR.norm>
0.00816133

>  <SCORE.SYSTEM>
0

>  <SCORE.SYSTEM.CONST>
0

>  <SCORE.SYSTEM.DIHEDRAL>
0

>  <SCORE.SYSTEM.norm>
0

>  <SCORE.heavy>
50

>  <SCORE.norm>
0.126424

$$$$
