FB1.pdb
  RxDock  10072001043D
librxdock.so/0.1.0
 59 58  0  0  0  0  0  0  0  0999 V2000
    6.0024    4.1533    0.7816 C   0  0  0  0  0  0
    5.8122    3.4554   -0.5631 C   0  0  0  0  0  0
    6.0931    1.9467   -0.4663 C   0  0  0  0  0  0
    5.2381    1.2270    0.6063 C   0  0  0  0  0  0
    5.4803   -0.3188    0.7175 C   0  0  0  0  0  0
    7.0027   -0.5650    0.8284 C   0  0  0  0  0  0
    4.7064   -0.9957    1.9262 C   0  0  0  0  0  0
    4.2787   -2.5290    1.7465 C   0  0  0  0  0  0
    5.1216   -3.6286    0.9664 C   0  0  0  0  0  0
    4.5334   -4.0367   -0.5198 C   0  0  0  0  0  0
    3.0518   -4.3815   -0.3771 C   0  0  0  0  0  0
    4.7211   -2.9504   -1.6728 C   0  0  0  0  0  0
    6.1011   -2.7188   -2.4856 C   0  0  0  0  0  0
    6.2263   -1.6755   -3.6483 C   0  0  0  0  0  0
    5.7376   -0.1795   -3.3794 C   0  0  0  0  0  0
    5.9806    1.0264   -4.3701 C   0  0  0  0  0  0
    7.3548    1.7467   -4.3753 C   0  0  0  0  0  0
    7.5837    2.8379   -3.2590 C   0  0  0  0  0  0
    9.0273    3.3182   -3.0644 C   0  0  0  0  0  0
    9.7910    2.8607   -1.7894 C   0  0  0  0  0  0
   11.3481    2.8477   -1.7616 C   0  0  0  0  0  0
   12.0489    2.7463   -3.1092 C   0  0  0  0  0  0
   11.8693    3.9855   -0.9805 N   0  0  0  0  0  0
    9.4052    3.8150   -0.7675 O   0  0  0  0  0  0
    6.7661    3.9702   -3.5740 O   0  0  0  0  0  0
    7.0473   -2.2891   -1.4923 O   0  0  0  0  0  0
    4.1346   -3.0705    3.0875 O   0  0  0  0  0  0
    3.1100   -2.5910    3.8396 C   0  0  0  0  0  0
    2.0391   -2.1905    3.4246 O   0  0  0  0  0  0
    3.4786   -2.7310    5.2907 C   0  0  0  0  0  0
    2.6545   -3.8125    6.0075 C   0  0  0  0  0  0
    1.1953   -3.3925    6.2258 C   0  0  0  0  0  0
    0.4654   -4.3895    7.0956 C   0  0  0  0  0  0
    0.8137   -5.5579    7.2269 O   0  0  0  0  0  0
   -0.6057   -3.8736    7.7165 O   0  0  0  0  0  0
    2.7146   -5.0543    5.1074 C   0  0  0  0  0  0
    1.8845   -5.2927    4.2435 O   0  0  0  0  0  0
    3.7294   -5.8862    5.3799 O   0  0  0  0  0  0
    5.4114   -0.7638    3.2104 O   0  0  0  0  0  0
    5.1515    0.4072    3.9028 C   0  0  0  0  0  0
    4.9432    1.4940    3.3796 O   0  0  0  0  0  0
    5.1508    0.1986    5.4230 C   0  0  0  0  0  0
    4.7700    1.4471    6.2778 C   0  0  0  0  0  0
    3.2979    1.8980    6.2838 C   0  0  0  0  0  0
    2.3944    0.9415    7.0073 C   0  0  0  0  0  0
    1.9222    1.1113    8.1230 O   0  0  0  0  0  0
    2.1235   -0.1554    6.2837 O   0  0  0  0  0  0
    5.2302    1.3835    7.7395 C   0  0  0  0  0  0
    4.6486    1.9554    8.6402 O   0  0  0  0  0  0
    6.2700    0.5588    7.9842 O   0  0  0  0  0  0
   12.8847    3.9171   -0.9275 H   0  0  0  0  0  0
   11.5482    3.8927   -0.0141 H   0  0  0  0  0  0
    8.4305    3.7293   -0.7052 H   0  0  0  0  0  0
    6.8531    4.6186   -2.8511 H   0  0  0  0  0  0
    7.8662   -2.0322   -1.9484 H   0  0  0  0  0  0
   -1.0518   -4.4731    8.3450 H   0  0  0  0  0  0
    3.7535   -6.7009    4.8192 H   0  0  0  0  0  0
    2.4871    0.0022    5.3869 H   0  0  0  0  0  0
    6.5118    0.4580    8.9316 H   0  0  0  0  0  0
  1  2  1  0  0  0
  2  3  1  0  0  0
  3  4  1  0  0  0
  4  5  1  0  0  0
  5  6  1  0  0  0
  5  7  1  0  0  0
  7  8  1  0  0  0
  7 39  1  0  0  0
  8  9  1  0  0  0
  8 27  1  0  0  0
  9 10  1  0  0  0
 10 11  1  0  0  0
 10 12  1  0  0  0
 12 13  1  0  0  0
 13 14  1  0  0  0
 13 26  1  0  0  0
 14 15  1  0  0  0
 15 16  1  0  0  0
 16 17  1  0  0  0
 17 18  1  0  0  0
 18 19  1  0  0  0
 18 25  1  0  0  0
 19 20  1  0  0  0
 20 21  1  0  0  0
 20 24  1  0  0  0
 21 22  1  0  0  0
 21 23  1  0  0  0
 23 51  1  0  0  0
 23 52  1  0  0  0
 24 53  1  0  0  0
 25 54  1  0  0  0
 26 55  1  0  0  0
 27 28  1  0  0  0
 28 29  2  0  0  0
 28 30  1  0  0  0
 30 31  1  0  0  0
 31 32  1  0  0  0
 31 36  1  0  0  0
 32 33  1  0  0  0
 33 34  2  0  0  0
 33 35  1  0  0  0
 35 56  1  0  0  0
 36 37  2  0  0  0
 36 38  1  0  0  0
 38 57  1  0  0  0
 39 40  1  0  0  0
 40 41  2  0  0  0
 40 42  1  0  0  0
 42 43  1  0  0  0
 43 44  1  0  0  0
 43 48  1  0  0  0
 44 45  1  0  0  0
 45 46  2  0  0  0
 45 47  1  0  0  0
 47 58  1  0  0  0
 48 49  2  0  0  0
 48 50  1  0  0  0
 50 59  1  0  0  0
M  END
>  <AUTHOR>
    GENERATED BY OPEN BABEL 2.4.1

>  <CHROM.1>
56.00885212,179.02718061,50.09315482,150.75921765,34.90865464,85.79939489
-104.78956976,67.63101367,-51.17336415,79.59507017,177.68013893,51.18473529
-173.20474361,171.10680014,-80.88396487,-81.59205331,166.72938261,-107.53635007
175.75351110,157.32592755,-23.70177457,59.56440841,176.28423878,30.54233241
-109.51950560,-71.63129447,-172.16832460,-91.55024878,-22.98364673,-174.94731217
178.21326876,-36.30739998,-175.99296543,72.47927726,69.66004538,-151.90437719
104.35739621,-8.22497640,-174.78573672,5.10851072,-0.46516980,2.12896401
-0.42480743,0.96485120,0.99850423

>  <COMPND>
    UNNAMED

>  <MASTER>
        0    0    0    0    0    0    0    0  109    0  109    0

>  <Name>
FB1.pdb

>  <RI>
0

>  <Rbt.Current_Directory>
/cluster/tossine/FB1_39T3/p3/0_clust01

>  <Rbt.Executable>
rbdock/0.1.0

>  <Rbt.Library>
librxdock.so/0.1.0

>  <Rbt.Parameter_File>
/cluster/rxdock/data/scripts/dock.prm

>  <Rbt.Receptor>
rx_4.prm

>  <SCORE>
19.5458

>  <SCORE.INTER>
7.54433

>  <SCORE.INTER.CONST>
1

>  <SCORE.INTER.POLAR>
-0.856922

>  <SCORE.INTER.REPUL>
0.737362

>  <SCORE.INTER.ROT>
32

>  <SCORE.INTER.VDW>
-30.6289

>  <SCORE.INTER.norm>
0.150887

>  <SCORE.INTRA>
11.4432

>  <SCORE.INTRA.DIHEDRAL>
12.25

>  <SCORE.INTRA.DIHEDRAL.0>
47.3121

>  <SCORE.INTRA.POLAR>
1.47808

>  <SCORE.INTRA.POLAR.0>
-1.47808

>  <SCORE.INTRA.REPUL>
0

>  <SCORE.INTRA.REPUL.0>
0

>  <SCORE.INTRA.VDW>
0.292692

>  <SCORE.INTRA.VDW.0>
-2.78316

>  <SCORE.INTRA.norm>
0.228863

>  <SCORE.RESTR>
0.558365

>  <SCORE.RESTR.CAVITY>
0.558365

>  <SCORE.RESTR.norm>
0.0111673

>  <SCORE.SYSTEM>
0

>  <SCORE.SYSTEM.CONST>
0

>  <SCORE.SYSTEM.DIHEDRAL>
0

>  <SCORE.SYSTEM.norm>
0

>  <SCORE.heavy>
50

>  <SCORE.norm>
0.390917

$$$$
