FB1.pdb
  RxDock  10072000373D
librxdock.so/0.1.0
 59 58  0  0  0  0  0  0  0  0999 V2000
    6.1386   -6.8674    8.0418 C   0  0  0  0  0  0
    7.3127   -5.8920    8.0054 C   0  0  0  0  0  0
    7.4939   -5.2710    6.6104 C   0  0  0  0  0  0
    6.4872   -4.1339    6.3051 C   0  0  0  0  0  0
    6.7838   -2.7753    7.0308 C   0  0  0  0  0  0
    8.0990   -2.1968    6.4597 C   0  0  0  0  0  0
    5.6021   -1.7229    6.9120 C   0  0  0  0  0  0
    4.5225   -1.9715    5.7550 C   0  0  0  0  0  0
    3.4554   -3.1502    5.7372 C   0  0  0  0  0  0
    2.7692   -3.4503    4.2674 C   0  0  0  0  0  0
    1.6487   -2.4371    4.0392 C   0  0  0  0  0  0
    3.7580   -3.4453    3.0156 C   0  0  0  0  0  0
    3.9713   -4.7049    2.0224 C   0  0  0  0  0  0
    3.3164   -4.7738    0.6002 C   0  0  0  0  0  0
    3.4949   -3.5240   -0.3771 C   0  0  0  0  0  0
    4.8019   -3.2296   -1.2135 C   0  0  0  0  0  0
    6.1622   -3.0856   -0.4811 C   0  0  0  0  0  0
    6.3527   -1.7949    0.4060 C   0  0  0  0  0  0
    6.9042   -0.5548   -0.3085 C   0  0  0  0  0  0
    6.0619    0.0703   -1.4565 C   0  0  0  0  0  0
    6.4483    1.4535   -2.0589 C   0  0  0  0  0  0
    5.6731    1.8959   -3.2921 C   0  0  0  0  0  0
    6.4312    2.5019   -1.0211 N   0  0  0  0  0  0
    6.1873   -0.8665   -2.5567 O   0  0  0  0  0  0
    5.0841   -1.4623    0.9801 O   0  0  0  0  0  0
    5.3884   -4.7529    1.7855 O   0  0  0  0  0  0
    3.7222   -0.7606    5.6789 O   0  0  0  0  0  0
    4.3893    0.4094    5.5017 C   0  0  0  0  0  0
    5.5579    0.6185    5.7662 O   0  0  0  0  0  0
    3.4669    1.3854    4.8248 C   0  0  0  0  0  0
    4.1850    2.2419    3.7697 C   0  0  0  0  0  0
    5.0491    3.3443    4.3953 C   0  0  0  0  0  0
    5.6096    4.2646    3.3359 C   0  0  0  0  0  0
    6.7454    4.7256    3.3699 O   0  0  0  0  0  0
    4.7437    4.5309    2.3469 O   0  0  0  0  0  0
    5.0670    1.2736    2.9695 C   0  0  0  0  0  0
    5.2637    0.1162    3.3075 O   0  0  0  0  0  0
    5.6471    1.8170    1.8906 O   0  0  0  0  0  0
    4.9600   -1.4880    8.2282 O   0  0  0  0  0  0
    4.2368   -2.5202    8.8023 C   0  0  0  0  0  0
    4.4507   -3.7103    8.6118 O   0  0  0  0  0  0
    3.1185   -2.0094    9.7203 C   0  0  0  0  0  0
    1.7243   -2.6835    9.5291 C   0  0  0  0  0  0
    1.0604   -2.5915    8.1430 C   0  0  0  0  0  0
    0.8769   -1.1773    7.6732 C   0  0  0  0  0  0
    1.1303   -0.7594    6.5517 O   0  0  0  0  0  0
    0.3709   -0.3812    8.6274 O   0  0  0  0  0  0
    1.6613   -4.1526    9.9649 C   0  0  0  0  0  0
    1.8359   -5.0774    9.1962 O   0  0  0  0  0  0
    1.5037   -4.3578   11.2894 O   0  0  0  0  0  0
    5.9030    2.1669   -0.2165 H   0  0  0  0  0  0
    5.8979    3.3005   -1.3722 H   0  0  0  0  0  0
    7.1475   -0.8882   -2.7540 H   0  0  0  0  0  0
    4.4892   -1.1804    0.2610 H   0  0  0  0  0  0
    5.8205   -5.0462    2.6052 H   0  0  0  0  0  0
    3.8108    4.3177    2.5413 H   0  0  0  0  0  0
    6.1706    1.1812    1.3424 H   0  0  0  0  0  0
    0.0106   -0.9703    9.3234 H   0  0  0  0  0  0
    1.5210   -5.2987   11.5733 H   0  0  0  0  0  0
  1  2  1  0  0  0
  2  3  1  0  0  0
  3  4  1  0  0  0
  4  5  1  0  0  0
  5  6  1  0  0  0
  5  7  1  0  0  0
  7  8  1  0  0  0
  7 39  1  0  0  0
  8  9  1  0  0  0
  8 27  1  0  0  0
  9 10  1  0  0  0
 10 11  1  0  0  0
 10 12  1  0  0  0
 12 13  1  0  0  0
 13 14  1  0  0  0
 13 26  1  0  0  0
 14 15  1  0  0  0
 15 16  1  0  0  0
 16 17  1  0  0  0
 17 18  1  0  0  0
 18 19  1  0  0  0
 18 25  1  0  0  0
 19 20  1  0  0  0
 20 21  1  0  0  0
 20 24  1  0  0  0
 21 22  1  0  0  0
 21 23  1  0  0  0
 23 51  1  0  0  0
 23 52  1  0  0  0
 24 53  1  0  0  0
 25 54  1  0  0  0
 26 55  1  0  0  0
 27 28  1  0  0  0
 28 29  2  0  0  0
 28 30  1  0  0  0
 30 31  1  0  0  0
 31 32  1  0  0  0
 31 36  1  0  0  0
 32 33  1  0  0  0
 33 34  2  0  0  0
 33 35  1  0  0  0
 35 56  1  0  0  0
 36 37  2  0  0  0
 36 38  1  0  0  0
 38 57  1  0  0  0
 39 40  1  0  0  0
 40 41  2  0  0  0
 40 42  1  0  0  0
 42 43  1  0  0  0
 43 44  1  0  0  0
 43 48  1  0  0  0
 44 45  1  0  0  0
 45 46  2  0  0  0
 45 47  1  0  0  0
 47 58  1  0  0  0
 48 49  2  0  0  0
 48 50  1  0  0  0
 50 59  1  0  0  0
M  END
>  <AUTHOR>
    GENERATED BY OPEN BABEL 2.4.1

>  <CHROM.1>
78.23565010,74.96195006,66.89654548,-18.14776114,69.79681257,-67.92081591
-162.95040933,54.44566177,-81.13169410,121.33194228,102.57945821,50.45605724
70.70321786,78.87839178,-56.63913438,-70.04192655,-88.01691916,62.73401401
-67.34403427,169.90074381,172.42168690,-60.94878773,-17.33150986,-22.06645055
-140.65685458,-75.73678699,-173.36038831,-10.27151134,-140.98189504,16.13077286
-176.39419649,28.03603547,133.41607141,-59.10175104,-56.97675065,-93.90905631
134.97839500,-15.52652478,-176.27403755,4.53504890,-1.44255215,4.35154078
-2.55687341,1.26881501,-0.17916852

>  <COMPND>
    UNNAMED

>  <MASTER>
        0    0    0    0    0    0    0    0  109    0  109    0

>  <Name>
FB1.pdb

>  <RI>
0

>  <Rbt.Current_Directory>
/cluster/tossine/FB1_39T3/p3/0_clust01

>  <Rbt.Executable>
rbdock/0.1.0

>  <Rbt.Library>
librxdock.so/0.1.0

>  <Rbt.Parameter_File>
/cluster/rxdock/data/scripts/dock.prm

>  <Rbt.Receptor>
rx_3.prm

>  <SCORE>
8.52225

>  <SCORE.INTER>
-2.94596

>  <SCORE.INTER.CONST>
1

>  <SCORE.INTER.POLAR>
-2.55403

>  <SCORE.INTER.REPUL>
0.632941

>  <SCORE.INTER.ROT>
32

>  <SCORE.INTER.VDW>
-34.827

>  <SCORE.INTER.norm>
-0.0589193

>  <SCORE.INTRA>
11.4682

>  <SCORE.INTRA.DIHEDRAL>
9.80864

>  <SCORE.INTRA.DIHEDRAL.0>
47.3121

>  <SCORE.INTRA.POLAR>
0.481426

>  <SCORE.INTRA.POLAR.0>
-1.47808

>  <SCORE.INTRA.REPUL>
0

>  <SCORE.INTRA.REPUL.0>
0

>  <SCORE.INTRA.VDW>
4.92705

>  <SCORE.INTRA.VDW.0>
-2.78316

>  <SCORE.INTRA.norm>
0.229364

>  <SCORE.RESTR>
0

>  <SCORE.RESTR.CAVITY>
0

>  <SCORE.RESTR.norm>
0

>  <SCORE.SYSTEM>
0

>  <SCORE.SYSTEM.CONST>
0

>  <SCORE.SYSTEM.DIHEDRAL>
0

>  <SCORE.SYSTEM.norm>
0

>  <SCORE.heavy>
50

>  <SCORE.norm>
0.170445

$$$$
