FB1.pdb
  RxDock  10072001103D
librxdock.so/0.1.0
 59 58  0  0  0  0  0  0  0  0999 V2000
   -2.3693   -4.3978    9.0642 C   0  0  0  0  0  0
   -1.1338   -4.4008    8.1671 C   0  0  0  0  0  0
   -0.5748   -5.8199    7.9726 C   0  0  0  0  0  0
    0.6726   -5.8720    7.0555 C   0  0  0  0  0  0
    1.9086   -5.0566    7.5729 C   0  0  0  0  0  0
    2.7192   -5.9593    8.5314 C   0  0  0  0  0  0
    2.8287   -4.4945    6.4087 C   0  0  0  0  0  0
    2.2260   -3.3091    5.5156 C   0  0  0  0  0  0
    1.8685   -3.4188    3.9701 C   0  0  0  0  0  0
    3.0286   -4.1229    3.0321 C   0  0  0  0  0  0
    3.0497   -5.6212    3.3298 C   0  0  0  0  0  0
    2.8968   -3.8919    1.4592 C   0  0  0  0  0  0
    4.0500   -4.2655    0.3872 C   0  0  0  0  0  0
    3.9101   -3.9500   -1.1415 C   0  0  0  0  0  0
    4.3304   -2.4984   -1.6568 C   0  0  0  0  0  0
    5.7220   -1.8160   -1.3530 C   0  0  0  0  0  0
    5.8515   -0.2722   -1.4388 C   0  0  0  0  0  0
    7.1343    0.3660   -0.7783 C   0  0  0  0  0  0
    7.2366    1.8954   -0.8320 C   0  0  0  0  0  0
    7.0735    2.5973   -2.2101 C   0  0  0  0  0  0
    7.0028    4.1503   -2.3037 C   0  0  0  0  0  0
    8.2614    4.9108   -1.9100 C   0  0  0  0  0  0
    6.5240    4.5753   -3.6328 N   0  0  0  0  0  0
    8.2641    2.2302   -2.9528 O   0  0  0  0  0  0
    7.1760   -0.0447    0.5926 O   0  0  0  0  0  0
    5.2073   -3.5294    0.8178 O   0  0  0  0  0  0
    0.9762   -2.9195    6.1471 O   0  0  0  0  0  0
    1.0176   -1.8581    6.9939 C   0  0  0  0  0  0
    0.1067   -1.0860    7.2247 O   0  0  0  0  0  0
    2.3539   -1.8515    7.6838 C   0  0  0  0  0  0
    2.3350   -1.0573    8.9996 C   0  0  0  0  0  0
    1.9896    0.4225    8.7891 C   0  0  0  0  0  0
    3.2194    1.2234    8.4294 C   0  0  0  0  0  0
    4.3643    0.8043    8.5610 O   0  0  0  0  0  0
    2.9404    2.4437    7.9476 O   0  0  0  0  0  0
    1.2698   -1.7252    9.8801 C   0  0  0  0  0  0
    0.0753   -1.4914    9.7751 O   0  0  0  0  0  0
    1.7622   -2.5531   10.8118 O   0  0  0  0  0  0
    4.1888   -4.1762    6.9075 O   0  0  0  0  0  0
    5.2740   -4.4819    6.1033 C   0  0  0  0  0  0
    5.1962   -4.8397    4.9353 O   0  0  0  0  0  0
    6.6103   -4.3222    6.8403 C   0  0  0  0  0  0
    6.7429   -5.1101    8.1805 C   0  0  0  0  0  0
    5.7159   -4.8255    9.2917 C   0  0  0  0  0  0
    5.5976   -3.3653    9.6210 C   0  0  0  0  0  0
    4.9416   -2.5437    8.9957 O   0  0  0  0  0  0
    6.2898   -3.0295   10.7203 O   0  0  0  0  0  0
    6.8254   -6.6331    8.0194 C   0  0  0  0  0  0
    5.9010   -7.3042    7.6050 O   0  0  0  0  0  0
    8.0352   -7.1773    8.2675 O   0  0  0  0  0  0
    5.6575    4.0842   -3.8485 H   0  0  0  0  0  0
    7.1910    4.2547   -4.3383 H   0  0  0  0  0  0
    8.2274    1.2521   -3.0100 H   0  0  0  0  0  0
    7.3025   -1.0111    0.6169 H   0  0  0  0  0  0
    4.9691   -2.5878    0.8524 H   0  0  0  0  0  0
    3.7147    2.9671    7.6651 H   0  0  0  0  0  0
    2.7496   -2.6130   10.8266 H   0  0  0  0  0  0
    6.2065   -2.0576   10.8192 H   0  0  0  0  0  0
    8.0906   -8.1510    8.1447 H   0  0  0  0  0  0
  1  2  1  0  0  0
  2  3  1  0  0  0
  3  4  1  0  0  0
  4  5  1  0  0  0
  5  6  1  0  0  0
  5  7  1  0  0  0
  7  8  1  0  0  0
  7 39  1  0  0  0
  8  9  1  0  0  0
  8 27  1  0  0  0
  9 10  1  0  0  0
 10 11  1  0  0  0
 10 12  1  0  0  0
 12 13  1  0  0  0
 13 14  1  0  0  0
 13 26  1  0  0  0
 14 15  1  0  0  0
 15 16  1  0  0  0
 16 17  1  0  0  0
 17 18  1  0  0  0
 18 19  1  0  0  0
 18 25  1  0  0  0
 19 20  1  0  0  0
 20 21  1  0  0  0
 20 24  1  0  0  0
 21 22  1  0  0  0
 21 23  1  0  0  0
 23 51  1  0  0  0
 23 52  1  0  0  0
 24 53  1  0  0  0
 25 54  1  0  0  0
 26 55  1  0  0  0
 27 28  1  0  0  0
 28 29  2  0  0  0
 28 30  1  0  0  0
 30 31  1  0  0  0
 31 32  1  0  0  0
 31 36  1  0  0  0
 32 33  1  0  0  0
 33 34  2  0  0  0
 33 35  1  0  0  0
 35 56  1  0  0  0
 36 37  2  0  0  0
 36 38  1  0  0  0
 38 57  1  0  0  0
 39 40  1  0  0  0
 40 41  2  0  0  0
 40 42  1  0  0  0
 42 43  1  0  0  0
 43 44  1  0  0  0
 43 48  1  0  0  0
 44 45  1  0  0  0
 45 46  2  0  0  0
 45 47  1  0  0  0
 47 58  1  0  0  0
 48 49  2  0  0  0
 48 50  1  0  0  0
 50 59  1  0  0  0
M  END
>  <AUTHOR>
    GENERATED BY OPEN BABEL 2.4.1

>  <CHROM.1>
179.39576235,60.99095209,86.16276040,70.23133729,-114.09324853,140.23551046
-46.75913616,96.18628492,72.41305994,168.86078451,-176.59477506,85.15450931
-56.92880628,52.18219837,-158.03432027,164.87545597,-178.33859645,-52.21159460
65.04873358,172.88536474,65.76898269,60.68146662,51.79505473,150.94967162
-158.59502755,-61.55880026,-84.78058733,-81.95595611,-13.92984584,-177.09192439
1.28851252,9.87564077,54.32056399,-58.20644904,-52.66234411,-66.48791654
81.16027018,176.08009059,-178.73287340,4.00282915,-2.36343064,5.00887199
2.40494764,-1.10672403,2.80465965

>  <COMPND>
    UNNAMED

>  <MASTER>
        0    0    0    0    0    0    0    0  109    0  109    0

>  <Name>
FB1.pdb

>  <RI>
0

>  <Rbt.Current_Directory>
/cluster/tossine/FB1_39T3/p3/0_clust01

>  <Rbt.Executable>
rbdock/0.1.0

>  <Rbt.Library>
librxdock.so/0.1.0

>  <Rbt.Parameter_File>
/cluster/rxdock/data/scripts/dock.prm

>  <Rbt.Receptor>
rx_4.prm

>  <SCORE>
7.9642

>  <SCORE.INTER>
-0.837889

>  <SCORE.INTER.CONST>
1

>  <SCORE.INTER.POLAR>
-4.29356

>  <SCORE.INTER.REPUL>
0.525449

>  <SCORE.INTER.ROT>
32

>  <SCORE.INTER.VDW>
-26.267

>  <SCORE.INTER.norm>
-0.0167578

>  <SCORE.INTRA>
8.78883

>  <SCORE.INTRA.DIHEDRAL>
2.10426

>  <SCORE.INTRA.DIHEDRAL.0>
47.3121

>  <SCORE.INTRA.POLAR>
1.47808

>  <SCORE.INTRA.POLAR.0>
-1.47808

>  <SCORE.INTRA.REPUL>
0.00910138

>  <SCORE.INTRA.REPUL.0>
0

>  <SCORE.INTRA.VDW>
2.66573

>  <SCORE.INTRA.VDW.0>
-2.78316

>  <SCORE.INTRA.norm>
0.175777

>  <SCORE.RESTR>
0.0132564

>  <SCORE.RESTR.CAVITY>
0.0132564

>  <SCORE.RESTR.norm>
0.000265128

>  <SCORE.SYSTEM>
0

>  <SCORE.SYSTEM.CONST>
0

>  <SCORE.SYSTEM.DIHEDRAL>
0

>  <SCORE.SYSTEM.norm>
0

>  <SCORE.heavy>
50

>  <SCORE.norm>
0.159284

$$$$
