FB1.pdb
  RxDock  10062023173D
librxdock.so/0.1.0
 59 58  0  0  0  0  0  0  0  0999 V2000
    0.1882   -8.1672    9.7985 C   0  0  0  0  0  0
    0.5281   -7.7448    8.3711 C   0  0  0  0  0  0
    1.6212   -6.6638    8.3423 C   0  0  0  0  0  0
    1.1728   -5.3156    8.9595 C   0  0  0  0  0  0
    2.3208   -4.4770    9.6222 C   0  0  0  0  0  0
    3.1544   -5.4199   10.5205 C   0  0  0  0  0  0
    3.2459   -3.7291    8.5721 C   0  0  0  0  0  0
    3.8332   -4.6069    7.3677 C   0  0  0  0  0  0
    2.9862   -5.1604    6.1411 C   0  0  0  0  0  0
    3.8780   -5.7201    4.8711 C   0  0  0  0  0  0
    4.1793   -7.1995    5.1046 C   0  0  0  0  0  0
    3.2376   -5.5267    3.4229 C   0  0  0  0  0  0
    4.0283   -5.7980    2.0373 C   0  0  0  0  0  0
    3.3834   -5.5266    0.6350 C   0  0  0  0  0  0
    3.2919   -4.0172    0.1228 C   0  0  0  0  0  0
    4.5384   -3.0660   -0.0668 C   0  0  0  0  0  0
    5.5509   -3.3507   -1.2076 C   0  0  0  0  0  0
    6.6916   -2.2819   -1.4215 C   0  0  0  0  0  0
    6.2333   -0.8392   -1.6681 C   0  0  0  0  0  0
    5.2700   -0.5646   -2.8577 C   0  0  0  0  0  0
    4.5964    0.8295   -3.0250 C   0  0  0  0  0  0
    5.5240    2.0364   -3.0092 C   0  0  0  0  0  0
    3.7225    0.8517   -4.2134 N   0  0  0  0  0  0
    6.0917   -0.7291   -4.0415 O   0  0  0  0  0  0
    7.5358   -2.2996   -0.2653 O   0  0  0  0  0  0
    5.1789   -4.9381    2.0939 O   0  0  0  0  0  0
    4.8769   -3.8048    6.7515 O   0  0  0  0  0  0
    6.0194   -3.6260    7.4643 C   0  0  0  0  0  0
    6.1434   -3.7510    8.6678 O   0  0  0  0  0  0
    7.1410   -3.3443    6.5031 C   0  0  0  0  0  0
    7.8252   -1.9948    6.7734 C   0  0  0  0  0  0
    9.0576   -1.7717    5.8874 C   0  0  0  0  0  0
   10.1824   -2.7040    6.2734 C   0  0  0  0  0  0
   10.4563   -2.9926    7.4333 O   0  0  0  0  0  0
   10.8573   -3.1913    5.2218 O   0  0  0  0  0  0
    6.7682   -0.9203    6.4831 C   0  0  0  0  0  0
    6.2700   -0.7556    5.3799 O   0  0  0  0  0  0
    6.4700   -0.1405    7.5314 O   0  0  0  0  0  0
    2.6063   -2.4815    8.0882 O   0  0  0  0  0  0
    3.0744   -1.2707    8.5709 C   0  0  0  0  0  0
    4.0664   -1.1388    9.2758 O   0  0  0  0  0  0
    2.2056   -0.0882    8.1224 C   0  0  0  0  0  0
    2.0049    1.0435    9.1776 C   0  0  0  0  0  0
    2.7195    2.3868    8.9424 C   0  0  0  0  0  0
    2.7867    3.2394   10.1765 C   0  0  0  0  0  0
    2.6081    2.8510   11.3228 O   0  0  0  0  0  0
    3.0912    4.5169    9.9017 O   0  0  0  0  0  0
    0.5397    1.3606    9.5016 C   0  0  0  0  0  0
   -0.0077    2.3862    9.1478 O   0  0  0  0  0  0
   -0.1438    0.3741   10.1188 O   0  0  0  0  0  0
    3.2990    1.7746   -4.2994 H   0  0  0  0  0  0
    2.9380    0.2156   -4.0538 H   0  0  0  0  0  0
    5.7935   -1.5772   -4.4329 H   0  0  0  0  0  0
    6.9919   -2.0750    0.5120 H   0  0  0  0  0  0
    5.8300   -5.3458    2.6892 H   0  0  0  0  0  0
   11.6524   -3.7132    5.4426 H   0  0  0  0  0  0
    5.8132    0.5735    7.3376 H   0  0  0  0  0  0
    3.1566    4.9820   10.7624 H   0  0  0  0  0  0
    0.3809   -0.4285   10.3346 H   0  0  0  0  0  0
  1  2  1  0  0  0
  2  3  1  0  0  0
  3  4  1  0  0  0
  4  5  1  0  0  0
  5  6  1  0  0  0
  5  7  1  0  0  0
  7  8  1  0  0  0
  7 39  1  0  0  0
  8  9  1  0  0  0
  8 27  1  0  0  0
  9 10  1  0  0  0
 10 11  1  0  0  0
 10 12  1  0  0  0
 12 13  1  0  0  0
 13 14  1  0  0  0
 13 26  1  0  0  0
 14 15  1  0  0  0
 15 16  1  0  0  0
 16 17  1  0  0  0
 17 18  1  0  0  0
 18 19  1  0  0  0
 18 25  1  0  0  0
 19 20  1  0  0  0
 20 21  1  0  0  0
 20 24  1  0  0  0
 21 22  1  0  0  0
 21 23  1  0  0  0
 23 51  1  0  0  0
 23 52  1  0  0  0
 24 53  1  0  0  0
 25 54  1  0  0  0
 26 55  1  0  0  0
 27 28  1  0  0  0
 28 29  2  0  0  0
 28 30  1  0  0  0
 30 31  1  0  0  0
 31 32  1  0  0  0
 31 36  1  0  0  0
 32 33  1  0  0  0
 33 34  2  0  0  0
 33 35  1  0  0  0
 35 56  1  0  0  0
 36 37  2  0  0  0
 36 38  1  0  0  0
 38 57  1  0  0  0
 39 40  1  0  0  0
 40 41  2  0  0  0
 40 42  1  0  0  0
 42 43  1  0  0  0
 43 44  1  0  0  0
 43 48  1  0  0  0
 44 45  1  0  0  0
 45 46  2  0  0  0
 45 47  1  0  0  0
 47 58  1  0  0  0
 48 49  2  0  0  0
 48 50  1  0  0  0
 50 59  1  0  0  0
M  END
>  <AUTHOR>
    GENERATED BY OPEN BABEL 2.4.1

>  <CHROM.1>
-66.20185597,149.99405542,-46.94080234,-50.21608439,72.04341890,104.59080625
166.08049990,70.51816166,88.63021645,170.51338729,-176.86490961,77.08238182
77.02428112,58.52761443,69.47262248,174.33213184,-56.08433932,-56.59608576
-60.01192334,170.39309967,52.30581456,107.22639896,-179.80051682,-20.80769592
121.73316093,174.15507028,-69.34405398,-62.49489941,-39.37708811,173.22208812
177.88719610,7.32985391,142.52629882,108.34309437,-163.32369702,-108.89934549
16.82559124,-177.22241186,2.79672004,4.41439700,-2.26831283,5.32350403,-3.08515739
1.29002360,-0.06535153

>  <COMPND>
    UNNAMED

>  <MASTER>
        0    0    0    0    0    0    0    0  109    0  109    0

>  <Name>
FB1.pdb

>  <RI>
0

>  <Rbt.Current_Directory>
/cluster/tossine/FB1_39T3/p3/0_clust01

>  <Rbt.Executable>
rbdock/0.1.0

>  <Rbt.Library>
librxdock.so/0.1.0

>  <Rbt.Parameter_File>
/cluster/rxdock/data/scripts/dock.prm

>  <Rbt.Receptor>
rx_1.prm

>  <SCORE>
2.79613

>  <SCORE.INTER>
-2.89805

>  <SCORE.INTER.CONST>
1

>  <SCORE.INTER.POLAR>
-2.21484

>  <SCORE.INTER.REPUL>
0.100104

>  <SCORE.INTER.ROT>
32

>  <SCORE.INTER.VDW>
-33.2681

>  <SCORE.INTER.norm>
-0.0579609

>  <SCORE.INTRA>
5.69418

>  <SCORE.INTRA.DIHEDRAL>
3.51401

>  <SCORE.INTRA.DIHEDRAL.0>
47.3121

>  <SCORE.INTRA.POLAR>
1.47808

>  <SCORE.INTRA.POLAR.0>
-1.47808

>  <SCORE.INTRA.REPUL>
0

>  <SCORE.INTRA.REPUL.0>
0

>  <SCORE.INTRA.VDW>
-1.08829

>  <SCORE.INTRA.VDW.0>
-2.78316

>  <SCORE.INTRA.norm>
0.113884

>  <SCORE.RESTR>
0

>  <SCORE.RESTR.CAVITY>
0

>  <SCORE.RESTR.norm>
0

>  <SCORE.SYSTEM>
0

>  <SCORE.SYSTEM.CONST>
0

>  <SCORE.SYSTEM.DIHEDRAL>
0

>  <SCORE.SYSTEM.norm>
0

>  <SCORE.heavy>
50

>  <SCORE.norm>
0.0559227

$$$$
