FB1.pdb
  RxDock  10062023473D
librxdock.so/0.1.0
 59 58  0  0  0  0  0  0  0  0999 V2000
    4.4646    1.5402    6.2611 C   0  0  0  0  0  0
    4.6355    0.7244    7.5404 C   0  0  0  0  0  0
    4.5566   -0.7866    7.2669 C   0  0  0  0  0  0
    4.4983   -1.6451    8.5550 C   0  0  0  0  0  0
    4.3750   -3.1904    8.3152 C   0  0  0  0  0  0
    4.3745   -3.8967    9.6906 C   0  0  0  0  0  0
    3.0981   -3.5996    7.4666 C   0  0  0  0  0  0
    2.5065   -5.0685    7.7082 C   0  0  0  0  0  0
    1.0026   -5.5058    7.4342 C   0  0  0  0  0  0
   -0.0891   -5.0024    8.5640 C   0  0  0  0  0  0
   -1.4488   -5.6146    8.2312 C   0  0  0  0  0  0
    0.2793   -5.3125   10.0848 C   0  0  0  0  0  0
   -0.6860   -4.9762   11.3392 C   0  0  0  0  0  0
   -0.5119   -5.6577   12.7397 C   0  0  0  0  0  0
   -0.1958   -7.2220   12.7867 C   0  0  0  0  0  0
    1.2551   -7.8320   12.9182 C   0  0  0  0  0  0
    1.6448   -9.0687   12.0661 C   0  0  0  0  0  0
    2.2724   -8.7790   10.6479 C   0  0  0  0  0  0
    3.6004   -8.0117   10.6365 C   0  0  0  0  0  0
    4.8535   -8.6974   11.2513 C   0  0  0  0  0  0
    4.8304   -9.2185   12.7188 C   0  0  0  0  0  0
    4.1751  -10.5735   12.9463 C   0  0  0  0  0  0
    6.1808   -9.1797   13.3114 N   0  0  0  0  0  0
    5.0629   -9.8789   10.4365 O   0  0  0  0  0  0
    2.4665  -10.0336    9.9861 O   0  0  0  0  0  0
   -0.5026   -3.5709   11.5804 O   0  0  0  0  0  0
    3.2981   -5.9661    6.8835 O   0  0  0  0  0  0
    4.4756   -6.4026    7.4015 C   0  0  0  0  0  0
    4.7336   -6.5449    8.5816 O   0  0  0  0  0  0
    5.3843   -6.7815    6.2649 C   0  0  0  0  0  0
    6.8705   -6.5947    6.6097 C   0  0  0  0  0  0
    7.1695   -5.2079    7.1937 C   0  0  0  0  0  0
    8.5571   -4.7447    6.8152 C   0  0  0  0  0  0
    8.7804   -3.9187    5.9368 O   0  0  0  0  0  0
    9.5289   -5.3239    7.5356 O   0  0  0  0  0  0
    7.2042   -7.6818    7.6406 C   0  0  0  0  0  0
    6.4675   -8.6279    7.8744 O   0  0  0  0  0  0
    8.3520   -7.4823    8.3029 O   0  0  0  0  0  0
    2.0454   -2.5579    7.5472 O   0  0  0  0  0  0
    1.5200   -2.0592    6.3668 C   0  0  0  0  0  0
    1.2021   -0.8912    6.1847 O   0  0  0  0  0  0
    1.3748   -3.1417    5.2891 C   0  0  0  0  0  0
    2.6786   -3.5025    4.5116 C   0  0  0  0  0  0
    2.6139   -4.6455    3.4821 C   0  0  0  0  0  0
    1.6643   -4.3652    2.3533 C   0  0  0  0  0  0
    0.6299   -3.7173    2.4352 O   0  0  0  0  0  0
    2.0772   -4.8951    1.1918 O   0  0  0  0  0  0
    3.3617   -2.3131    3.8254 C   0  0  0  0  0  0
    3.5491   -2.2613    2.6259 O   0  0  0  0  0  0
    3.6501   -1.2680    4.6291 O   0  0  0  0  0  0
    6.5419   -8.2282   13.2581 H   0  0  0  0  0  0
    6.8104   -9.7335   12.7263 H   0  0  0  0  0  0
    4.1711  -10.2757   10.3436 H   0  0  0  0  0  0
    1.5955  -10.3630    9.6971 H   0  0  0  0  0  0
   -0.8385   -3.0868   10.8076 H   0  0  0  0  0  0
    9.2412   -6.0637    8.1044 H   0  0  0  0  0  0
    8.6354   -8.2416    8.8703 H   0  0  0  0  0  0
    2.8403   -5.4737    1.4020 H   0  0  0  0  0  0
    4.0404   -0.4868    4.1779 H   0  0  0  0  0  0
  1  2  1  0  0  0
  2  3  1  0  0  0
  3  4  1  0  0  0
  4  5  1  0  0  0
  5  6  1  0  0  0
  5  7  1  0  0  0
  7  8  1  0  0  0
  7 39  1  0  0  0
  8  9  1  0  0  0
  8 27  1  0  0  0
  9 10  1  0  0  0
 10 11  1  0  0  0
 10 12  1  0  0  0
 12 13  1  0  0  0
 13 14  1  0  0  0
 13 26  1  0  0  0
 14 15  1  0  0  0
 15 16  1  0  0  0
 16 17  1  0  0  0
 17 18  1  0  0  0
 18 19  1  0  0  0
 18 25  1  0  0  0
 19 20  1  0  0  0
 20 21  1  0  0  0
 20 24  1  0  0  0
 21 22  1  0  0  0
 21 23  1  0  0  0
 23 51  1  0  0  0
 23 52  1  0  0  0
 24 53  1  0  0  0
 25 54  1  0  0  0
 26 55  1  0  0  0
 27 28  1  0  0  0
 28 29  2  0  0  0
 28 30  1  0  0  0
 30 31  1  0  0  0
 31 32  1  0  0  0
 31 36  1  0  0  0
 32 33  1  0  0  0
 33 34  2  0  0  0
 33 35  1  0  0  0
 35 56  1  0  0  0
 36 37  2  0  0  0
 36 38  1  0  0  0
 38 57  1  0  0  0
 39 40  1  0  0  0
 40 41  2  0  0  0
 40 42  1  0  0  0
 42 43  1  0  0  0
 43 44  1  0  0  0
 43 48  1  0  0  0
 44 45  1  0  0  0
 45 46  2  0  0  0
 45 47  1  0  0  0
 47 58  1  0  0  0
 48 49  2  0  0  0
 48 50  1  0  0  0
 50 59  1  0  0  0
M  END
>  <AUTHOR>
    GENERATED BY OPEN BABEL 2.4.1

>  <CHROM.1>
-170.81238975,178.30081883,178.24065738,-153.02725159,155.51432467,127.24451942
-76.24288929,83.62863943,-174.52249242,-176.61324031,161.15768358,-41.89669495
65.14228128,96.11628612,-138.31884613,89.94965936,62.09151957,65.62052279
74.12208102,-55.62872784,80.93932705,-45.54808045,56.77032058,28.50338165
150.60289242,-50.26060498,-148.01706183,13.20400087,102.80552073,9.31016056
-171.57689006,-142.73566667,-80.27490156,176.11073873,62.07804082,-120.28426397
-32.54211245,9.36159939,-176.62504134,3.50502682,-5.23439393,7.99195751,1.59404765
0.31798185,-0.84268610

>  <COMPND>
    UNNAMED

>  <MASTER>
        0    0    0    0    0    0    0    0  109    0  109    0

>  <Name>
FB1.pdb

>  <RI>
0

>  <Rbt.Current_Directory>
/cluster/tossine/FB1_39T3/p3/0_clust01

>  <Rbt.Executable>
rbdock/0.1.0

>  <Rbt.Library>
librxdock.so/0.1.0

>  <Rbt.Parameter_File>
/cluster/rxdock/data/scripts/dock.prm

>  <Rbt.Receptor>
rx_2.prm

>  <SCORE>
4.6041

>  <SCORE.INTER>
-3.66159

>  <SCORE.INTER.CONST>
1

>  <SCORE.INTER.POLAR>
-2.64473

>  <SCORE.INTER.REPUL>
0.00705609

>  <SCORE.INTER.ROT>
32

>  <SCORE.INTER.VDW>
-32.1048

>  <SCORE.INTER.norm>
-0.0732318

>  <SCORE.INTRA>
8.26569

>  <SCORE.INTRA.DIHEDRAL>
13.8135

>  <SCORE.INTRA.DIHEDRAL.0>
47.3121

>  <SCORE.INTRA.POLAR>
-0.465306

>  <SCORE.INTRA.POLAR.0>
-1.47808

>  <SCORE.INTRA.REPUL>
0

>  <SCORE.INTRA.REPUL.0>
0

>  <SCORE.INTRA.VDW>
2.94098

>  <SCORE.INTRA.VDW.0>
-2.78316

>  <SCORE.INTRA.norm>
0.165314

>  <SCORE.RESTR>
0

>  <SCORE.RESTR.CAVITY>
0

>  <SCORE.RESTR.norm>
0

>  <SCORE.SYSTEM>
0

>  <SCORE.SYSTEM.CONST>
0

>  <SCORE.SYSTEM.DIHEDRAL>
0

>  <SCORE.SYSTEM.norm>
0

>  <SCORE.heavy>
50

>  <SCORE.norm>
0.092082

$$$$
