FB1.pdb
  RxDock  10062022313D
librxdock.so/0.1.0
 59 58  0  0  0  0  0  0  0  0999 V2000
    6.3940  -10.8387   10.5314 C   0  0  0  0  0  0
    6.8571   -9.4742   11.0363 C   0  0  0  0  0  0
    7.5610   -8.6676    9.9327 C   0  0  0  0  0  0
    6.7192   -7.4795    9.4038 C   0  0  0  0  0  0
    5.3684   -7.8808    8.7147 C   0  0  0  0  0  0
    4.3349   -8.1979    9.8201 C   0  0  0  0  0  0
    4.8134   -6.7772    7.7187 C   0  0  0  0  0  0
    4.2946   -5.4081    8.3686 C   0  0  0  0  0  0
    5.1184   -4.0490    8.4185 C   0  0  0  0  0  0
    4.3627   -2.8009    9.1882 C   0  0  0  0  0  0
    3.3680   -2.1643    8.2190 C   0  0  0  0  0  0
    3.6222   -3.1624   10.5541 C   0  0  0  0  0  0
    2.6076   -4.4101   10.7338 C   0  0  0  0  0  0
    2.9088   -5.6053   11.7017 C   0  0  0  0  0  0
    2.0557   -6.9450   11.5393 C   0  0  0  0  0  0
    2.0979   -8.1541   12.5547 C   0  0  0  0  0  0
    1.6749   -9.5685   12.0773 C   0  0  0  0  0  0
    0.1768   -9.7375   11.6123 C   0  0  0  0  0  0
   -0.4821  -11.0878   11.9206 C   0  0  0  0  0  0
   -2.0333  -11.1813   11.8641 C   0  0  0  0  0  0
   -2.7423  -12.5678   11.8424 C   0  0  0  0  0  0
   -1.9449  -13.7451   12.3862 C   0  0  0  0  0  0
   -4.0694  -12.4895   12.4820 N   0  0  0  0  0  0
   -2.4847  -10.5479   13.0884 O   0  0  0  0  0  0
   -0.5966   -8.7027   12.2292 O   0  0  0  0  0  0
    1.3886   -3.8275   11.2251 O   0  0  0  0  0  0
    3.0714   -5.0617    7.6640 O   0  0  0  0  0  0
    1.9861   -5.8469    7.8897 C   0  0  0  0  0  0
    1.9752   -6.9031    8.4929 O   0  0  0  0  0  0
    0.7697   -5.1426    7.3553 C   0  0  0  0  0  0
   -0.0934   -4.5279    8.4687 C   0  0  0  0  0  0
   -1.3479   -3.8323    7.9249 C   0  0  0  0  0  0
   -1.0111   -2.4804    7.3397 C   0  0  0  0  0  0
   -1.2407   -1.4187    7.9087 O   0  0  0  0  0  0
   -0.4320   -2.5503    6.1319 O   0  0  0  0  0  0
   -0.4939   -5.6932    9.3839 C   0  0  0  0  0  0
   -0.2202   -5.7312   10.5739 O   0  0  0  0  0  0
   -1.1288   -6.6943    8.7589 O   0  0  0  0  0  0
    5.7614   -6.5372    6.6035 O   0  0  0  0  0  0
    5.3591   -5.7188    5.5612 C   0  0  0  0  0  0
    6.0889   -4.9324    4.9717 O   0  0  0  0  0  0
    3.8760   -5.9026    5.2134 C   0  0  0  0  0  0
    3.3623   -5.0889    3.9852 C   0  0  0  0  0  0
    1.8794   -4.6757    3.9603 C   0  0  0  0  0  0
    1.4444   -4.1313    2.6303 C   0  0  0  0  0  0
    2.1602   -3.5430    1.8315 O   0  0  0  0  0  0
    0.1495   -4.3735    2.3753 O   0  0  0  0  0  0
    4.1867   -3.8373    3.6596 C   0  0  0  0  0  0
    4.3111   -2.9087    4.4336 O   0  0  0  0  0  0
    4.8607   -3.8753    2.4911 O   0  0  0  0  0  0
   -4.6126  -11.7522   12.0350 H   0  0  0  0  0  0
   -3.9484  -12.1784   13.4485 H   0  0  0  0  0  0
   -2.0560   -9.6661   13.0824 H   0  0  0  0  0  0
   -1.3821   -8.5388   11.6755 H   0  0  0  0  0  0
    0.7216   -4.5317   11.2851 H   0  0  0  0  0  0
   -0.2907   -1.6924    5.6874 H   0  0  0  0  0  0
   -1.1875   -6.5926    7.7766 H   0  0  0  0  0  0
   -0.0384   -3.9954    1.4904 H   0  0  0  0  0  0
    4.7267   -4.6886    1.9555 H   0  0  0  0  0  0
  1  2  1  0  0  0
  2  3  1  0  0  0
  3  4  1  0  0  0
  4  5  1  0  0  0
  5  6  1  0  0  0
  5  7  1  0  0  0
  7  8  1  0  0  0
  7 39  1  0  0  0
  8  9  1  0  0  0
  8 27  1  0  0  0
  9 10  1  0  0  0
 10 11  1  0  0  0
 10 12  1  0  0  0
 12 13  1  0  0  0
 13 14  1  0  0  0
 13 26  1  0  0  0
 14 15  1  0  0  0
 15 16  1  0  0  0
 16 17  1  0  0  0
 17 18  1  0  0  0
 18 19  1  0  0  0
 18 25  1  0  0  0
 19 20  1  0  0  0
 20 21  1  0  0  0
 20 24  1  0  0  0
 21 22  1  0  0  0
 21 23  1  0  0  0
 23 51  1  0  0  0
 23 52  1  0  0  0
 24 53  1  0  0  0
 25 54  1  0  0  0
 26 55  1  0  0  0
 27 28  1  0  0  0
 28 29  2  0  0  0
 28 30  1  0  0  0
 30 31  1  0  0  0
 31 32  1  0  0  0
 31 36  1  0  0  0
 32 33  1  0  0  0
 33 34  2  0  0  0
 33 35  1  0  0  0
 35 56  1  0  0  0
 36 37  2  0  0  0
 36 38  1  0  0  0
 38 57  1  0  0  0
 39 40  1  0  0  0
 40 41  2  0  0  0
 40 42  1  0  0  0
 42 43  1  0  0  0
 43 44  1  0  0  0
 43 48  1  0  0  0
 44 45  1  0  0  0
 45 46  2  0  0  0
 45 47  1  0  0  0
 47 58  1  0  0  0
 48 49  2  0  0  0
 48 50  1  0  0  0
 50 59  1  0  0  0
M  END
>  <AUTHOR>
    GENERATED BY OPEN BABEL 2.4.1

>  <CHROM.1>
107.77087365,-62.71086064,78.56883369,-68.56624562,100.49725559,172.50539299
-178.25689956,69.84021252,-80.90788078,-48.58670134,116.48950620,-164.59931399
175.71584284,-171.14214627,-157.51396774,-63.00663962,-145.35654798,162.86943272
154.86955353,165.94124583,21.99155809,53.73684572,54.54234528,-9.60944016
-104.29258373,-178.92314377,-77.50715068,121.20163382,-103.52209146,173.70340724
5.15870475,142.82266925,-175.99572106,-151.44802258,-169.18388221,-61.65975213
-29.34673661,-179.30479783,2.11143995,2.08268823,-6.33132780,8.48684888,-1.95635185
0.10272993,-0.79255050

>  <COMPND>
    UNNAMED

>  <MASTER>
        0    0    0    0    0    0    0    0  109    0  109    0

>  <Name>
FB1.pdb

>  <RI>
0

>  <Rbt.Current_Directory>
/cluster/tossine/FB1_39T3/p3/0_clust01

>  <Rbt.Executable>
rbdock/0.1.0

>  <Rbt.Library>
librxdock.so/0.1.0

>  <Rbt.Parameter_File>
/cluster/rxdock/data/scripts/dock.prm

>  <Rbt.Receptor>
rx_0.prm

>  <SCORE>
30.2631

>  <SCORE.INTER>
21.6285

>  <SCORE.INTER.CONST>
1

>  <SCORE.INTER.POLAR>
-1.5588

>  <SCORE.INTER.REPUL>
0.427887

>  <SCORE.INTER.ROT>
32

>  <SCORE.INTER.VDW>
-12.6111

>  <SCORE.INTER.norm>
0.432569

>  <SCORE.INTRA>
8.52952

>  <SCORE.INTRA.DIHEDRAL>
15.493

>  <SCORE.INTRA.DIHEDRAL.0>
47.3121

>  <SCORE.INTRA.POLAR>
0.215003

>  <SCORE.INTRA.POLAR.0>
-1.47808

>  <SCORE.INTRA.REPUL>
0

>  <SCORE.INTRA.REPUL.0>
0

>  <SCORE.INTRA.VDW>
0.052006

>  <SCORE.INTRA.VDW.0>
-2.78316

>  <SCORE.INTRA.norm>
0.17059

>  <SCORE.RESTR>
0.105137

>  <SCORE.RESTR.CAVITY>
0.105137

>  <SCORE.RESTR.norm>
0.00210274

>  <SCORE.SYSTEM>
0

>  <SCORE.SYSTEM.CONST>
0

>  <SCORE.SYSTEM.DIHEDRAL>
0

>  <SCORE.SYSTEM.norm>
0

>  <SCORE.heavy>
50

>  <SCORE.norm>
0.605263

$$$$
