FB1.pdb
  RxDock  10072001063D
librxdock.so/0.1.0
 59 58  0  0  0  0  0  0  0  0999 V2000
    7.4015   -7.2231    7.7909 C   0  0  0  0  0  0
    7.3307   -7.2180    6.2657 C   0  0  0  0  0  0
    6.1619   -6.3606    5.7528 C   0  0  0  0  0  0
    6.3896   -4.8383    5.9276 C   0  0  0  0  0  0
    6.3786   -4.3340    7.4129 C   0  0  0  0  0  0
    7.1470   -2.9938    7.4763 C   0  0  0  0  0  0
    4.9201   -4.1811    8.0190 C   0  0  0  0  0  0
    3.9157   -3.1956    7.2533 C   0  0  0  0  0  0
    3.9435   -2.8925    5.6927 C   0  0  0  0  0  0
    4.2248   -1.3174    5.2910 C   0  0  0  0  0  0
    5.3816   -0.7986    6.1436 C   0  0  0  0  0  0
    4.5231   -1.0270    3.7510 C   0  0  0  0  0  0
    5.5535    0.1038    3.2237 C   0  0  0  0  0  0
    5.6647    0.4995    1.7113 C   0  0  0  0  0  0
    5.2617   -0.5867    0.6127 C   0  0  0  0  0  0
    5.3485   -2.1483    0.8333 C   0  0  0  0  0  0
    4.5646   -3.0985   -0.1102 C   0  0  0  0  0  0
    4.4139   -2.6360   -1.6110 C   0  0  0  0  0  0
    5.3888   -3.2621   -2.6160 C   0  0  0  0  0  0
    5.3897   -2.7246   -4.0753 C   0  0  0  0  0  0
    6.2908   -1.5186   -4.4738 C   0  0  0  0  0  0
    6.0680   -0.9361   -5.8626 C   0  0  0  0  0  0
    6.2408   -0.4625   -3.4449 N   0  0  0  0  0  0
    5.8720   -3.8341   -4.8754 O   0  0  0  0  0  0
    3.0770   -2.9290   -2.0313 O   0  0  0  0  0  0
    5.1564    1.3093    3.8987 O   0  0  0  0  0  0
    2.5781   -3.7096    7.4962 O   0  0  0  0  0  0
    1.5741   -2.7989    7.5859 C   0  0  0  0  0  0
    1.6761   -1.5976    7.4251 O   0  0  0  0  0  0
    0.2835   -3.5347    7.8190 C   0  0  0  0  0  0
    0.0485   -3.8589    9.3030 C   0  0  0  0  0  0
   -0.7452   -5.1562    9.5036 C   0  0  0  0  0  0
   -2.1593   -5.0150    8.9901 C   0  0  0  0  0  0
   -2.5858   -4.0016    8.4471 O   0  0  0  0  0  0
   -2.9098   -6.1098    9.1834 O   0  0  0  0  0  0
    1.4425   -3.9934    9.9313 C   0  0  0  0  0  0
    1.9980   -5.0686   10.0978 O   0  0  0  0  0  0
    1.9837   -2.8340   10.3299 O   0  0  0  0  0  0
    4.3064   -5.5063    8.2781 O   0  0  0  0  0  0
    4.7852   -6.2585    9.3379 C   0  0  0  0  0  0
    5.7217   -5.9330   10.0558 O   0  0  0  0  0  0
    4.0059   -7.5670    9.5242 C   0  0  0  0  0  0
    4.0692   -8.1958   10.9507 C   0  0  0  0  0  0
    3.3184   -7.4822   12.0898 C   0  0  0  0  0  0
    1.8818   -7.9047   12.2003 C   0  0  0  0  0  0
    1.2308   -8.4566   11.3238 O   0  0  0  0  0  0
    1.3568   -7.6286   13.4038 O   0  0  0  0  0  0
    3.6814   -9.6785   11.0118 C   0  0  0  0  0  0
    3.2150  -10.2786   10.0636 O   0  0  0  0  0  0
    3.9915  -10.3115   12.1626 O   0  0  0  0  0  0
    5.3184   -0.0295   -3.4552 H   0  0  0  0  0  0
    6.8856    0.2847   -3.7121 H   0  0  0  0  0  0
    5.7442   -3.5432   -5.8030 H   0  0  0  0  0  0
    2.8587   -2.3445   -2.7805 H   0  0  0  0  0  0
    5.4849    1.2646    4.8122 H   0  0  0  0  0  0
   -3.8213   -6.0564    8.8374 H   0  0  0  0  0  0
    2.9124   -2.9080   10.6628 H   0  0  0  0  0  0
    0.4928   -8.0900   13.4464 H   0  0  0  0  0  0
    4.1263  -11.2820   12.0846 H   0  0  0  0  0  0
  1  2  1  0  0  0
  2  3  1  0  0  0
  3  4  1  0  0  0
  4  5  1  0  0  0
  5  6  1  0  0  0
  5  7  1  0  0  0
  7  8  1  0  0  0
  7 39  1  0  0  0
  8  9  1  0  0  0
  8 27  1  0  0  0
  9 10  1  0  0  0
 10 11  1  0  0  0
 10 12  1  0  0  0
 12 13  1  0  0  0
 13 14  1  0  0  0
 13 26  1  0  0  0
 14 15  1  0  0  0
 15 16  1  0  0  0
 16 17  1  0  0  0
 17 18  1  0  0  0
 18 19  1  0  0  0
 18 25  1  0  0  0
 19 20  1  0  0  0
 20 21  1  0  0  0
 20 24  1  0  0  0
 21 22  1  0  0  0
 21 23  1  0  0  0
 23 51  1  0  0  0
 23 52  1  0  0  0
 24 53  1  0  0  0
 25 54  1  0  0  0
 26 55  1  0  0  0
 27 28  1  0  0  0
 28 29  2  0  0  0
 28 30  1  0  0  0
 30 31  1  0  0  0
 31 32  1  0  0  0
 31 36  1  0  0  0
 32 33  1  0  0  0
 33 34  2  0  0  0
 33 35  1  0  0  0
 35 56  1  0  0  0
 36 37  2  0  0  0
 36 38  1  0  0  0
 38 57  1  0  0  0
 39 40  1  0  0  0
 40 41  2  0  0  0
 40 42  1  0  0  0
 42 43  1  0  0  0
 43 44  1  0  0  0
 43 48  1  0  0  0
 44 45  1  0  0  0
 45 46  2  0  0  0
 45 47  1  0  0  0
 47 58  1  0  0  0
 48 49  2  0  0  0
 48 50  1  0  0  0
 50 59  1  0  0  0
M  END
>  <AUTHOR>
    GENERATED BY OPEN BABEL 2.4.1

>  <CHROM.1>
71.95693563,-68.90020017,157.79616824,-58.16556198,29.71224901,72.27995407
-118.44565881,146.98369457,45.27149224,-144.89540130,-170.91114793,-26.30713523
77.25297776,-27.19184096,162.29395478,33.60026600,99.27010445,-173.25369133
156.99607091,88.37040810,-171.11953174,171.70786534,-69.52040110,3.41566096
84.34928180,-148.98127552,-66.52449950,-96.96299134,2.19817814,-178.26825148
-174.96534015,-2.95005553,-157.08241934,70.78620565,87.06077829,-8.13530954
-18.87112055,-169.06346445,-153.88655640,3.71288103,-4.23798479,5.88398433
-1.85475325,0.57152716,-1.02244694

>  <COMPND>
    UNNAMED

>  <MASTER>
        0    0    0    0    0    0    0    0  109    0  109    0

>  <Name>
FB1.pdb

>  <RI>
0

>  <Rbt.Current_Directory>
/cluster/tossine/FB1_39T3/p3/0_clust01

>  <Rbt.Executable>
rbdock/0.1.0

>  <Rbt.Library>
librxdock.so/0.1.0

>  <Rbt.Parameter_File>
/cluster/rxdock/data/scripts/dock.prm

>  <Rbt.Receptor>
rx_4.prm

>  <SCORE>
24.0431

>  <SCORE.INTER>
8.787

>  <SCORE.INTER.CONST>
1

>  <SCORE.INTER.POLAR>
-2.06534

>  <SCORE.INTER.REPUL>
0.414219

>  <SCORE.INTER.ROT>
32

>  <SCORE.INTER.VDW>
-23.6619

>  <SCORE.INTER.norm>
0.17574

>  <SCORE.INTRA>
14.2646

>  <SCORE.INTRA.DIHEDRAL>
16.4114

>  <SCORE.INTRA.DIHEDRAL.0>
47.3121

>  <SCORE.INTRA.POLAR>
1.47808

>  <SCORE.INTRA.POLAR.0>
-1.47808

>  <SCORE.INTRA.REPUL>
0

>  <SCORE.INTRA.REPUL.0>
0

>  <SCORE.INTRA.VDW>
1.0334

>  <SCORE.INTRA.VDW.0>
-2.78316

>  <SCORE.INTRA.norm>
0.285291

>  <SCORE.RESTR>
0.991528

>  <SCORE.RESTR.CAVITY>
0.991528

>  <SCORE.RESTR.norm>
0.0198306

>  <SCORE.SYSTEM>
0

>  <SCORE.SYSTEM.CONST>
0

>  <SCORE.SYSTEM.DIHEDRAL>
0

>  <SCORE.SYSTEM.norm>
0

>  <SCORE.heavy>
50

>  <SCORE.norm>
0.480862

$$$$
