FB1.pdb
  RxDock  10062023173D
librxdock.so/0.1.0
 59 58  0  0  0  0  0  0  0  0999 V2000
    3.1184    2.2382    8.9103 C   0  0  0  0  0  0
    2.3004    1.5015    7.8522 C   0  0  0  0  0  0
    2.3066   -0.0185    8.0840 C   0  0  0  0  0  0
    1.4249   -0.8002    7.0784 C   0  0  0  0  0  0
    1.5992   -2.3586    7.1178 C   0  0  0  0  0  0
    0.6383   -2.9810    6.0787 C   0  0  0  0  0  0
    3.0919   -2.8353    6.8674 C   0  0  0  0  0  0
    3.7052   -3.8805    7.9150 C   0  0  0  0  0  0
    3.1749   -5.3614    8.1472 C   0  0  0  0  0  0
    3.7733   -6.1168    9.4861 C   0  0  0  0  0  0
    3.4764   -5.2476   10.7069 C   0  0  0  0  0  0
    3.2525   -7.6018    9.7473 C   0  0  0  0  0  0
    3.6890   -8.5068   11.0158 C   0  0  0  0  0  0
    2.7287   -9.5608   11.6661 C   0  0  0  0  0  0
    1.3606   -9.0448   12.3073 C   0  0  0  0  0  0
    0.9491   -7.5240   12.4184 C   0  0  0  0  0  0
   -0.4859   -7.1515   12.8759 C   0  0  0  0  0  0
   -0.9374   -5.6587   12.6375 C   0  0  0  0  0  0
   -1.1162   -5.2282   11.1763 C   0  0  0  0  0  0
    0.1151   -5.3036   10.2294 C   0  0  0  0  0  0
    0.0415   -6.1083    8.8981 C   0  0  0  0  0  0
   -0.2645   -7.5945    9.0207 C   0  0  0  0  0  0
   -0.8744   -5.4585    7.9413 N   0  0  0  0  0  0
    0.3531   -3.9309    9.8258 O   0  0  0  0  0  0
   -2.1762   -5.4566   13.3260 O   0  0  0  0  0  0
    4.8218   -9.2638   10.5574 O   0  0  0  0  0  0
    5.1012   -4.0517    7.5483 O   0  0  0  0  0  0
    6.0080   -3.2706    8.1908 C   0  0  0  0  0  0
    5.8484   -2.7141    9.2605 O   0  0  0  0  0  0
    7.2910   -3.2872    7.4066 C   0  0  0  0  0  0
    7.5298   -4.6278    6.6936 C   0  0  0  0  0  0
    8.7367   -4.5846    5.7476 C   0  0  0  0  0  0
    9.8674   -3.7781    6.3429 C   0  0  0  0  0  0
   10.3098   -3.9610    7.4718 O   0  0  0  0  0  0
   10.3467   -2.8379    5.5152 O   0  0  0  0  0  0
    7.7698   -5.6595    7.8045 C   0  0  0  0  0  0
    8.8784   -6.0854    8.0909 O   0  0  0  0  0  0
    6.6539   -6.0948    8.4054 O   0  0  0  0  0  0
    3.2843   -3.2783    5.4651 O   0  0  0  0  0  0
    3.4109   -2.3127    4.4803 C   0  0  0  0  0  0
    3.0693   -1.1437    4.6034 O   0  0  0  0  0  0
    4.0359   -2.8690    3.1942 C   0  0  0  0  0  0
    3.0282   -3.3350    2.0979 C   0  0  0  0  0  0
    3.5985   -3.9198    0.7928 C   0  0  0  0  0  0
    4.5140   -2.9702    0.0754 C   0  0  0  0  0  0
    5.0351   -3.1671   -1.0137 O   0  0  0  0  0  0
    4.7041   -1.8288    0.7548 O   0  0  0  0  0  0
    1.9487   -4.3046    2.5949 C   0  0  0  0  0  0
    2.1301   -5.5024    2.6895 O   0  0  0  0  0  0
    0.8071   -3.7287    3.0265 O   0  0  0  0  0  0
   -1.8244   -5.4994    8.3078 H   0  0  0  0  0  0
   -0.8989   -6.0145    7.0835 H   0  0  0  0  0  0
    0.6868   -3.4901   10.6355 H   0  0  0  0  0  0
   -2.8391   -6.0603   12.9431 H   0  0  0  0  0  0
    4.5477   -9.7713    9.7752 H   0  0  0  0  0  0
   11.1052   -2.3278    5.8587 H   0  0  0  0  0  0
    5.8209   -5.6727    8.0788 H   0  0  0  0  0  0
    5.2364   -1.2426    0.1766 H   0  0  0  0  0  0
    0.7951   -2.7463    2.9964 H   0  0  0  0  0  0
  1  2  1  0  0  0
  2  3  1  0  0  0
  3  4  1  0  0  0
  4  5  1  0  0  0
  5  6  1  0  0  0
  5  7  1  0  0  0
  7  8  1  0  0  0
  7 39  1  0  0  0
  8  9  1  0  0  0
  8 27  1  0  0  0
  9 10  1  0  0  0
 10 11  1  0  0  0
 10 12  1  0  0  0
 12 13  1  0  0  0
 13 14  1  0  0  0
 13 26  1  0  0  0
 14 15  1  0  0  0
 15 16  1  0  0  0
 16 17  1  0  0  0
 17 18  1  0  0  0
 18 19  1  0  0  0
 18 25  1  0  0  0
 19 20  1  0  0  0
 20 21  1  0  0  0
 20 24  1  0  0  0
 21 22  1  0  0  0
 21 23  1  0  0  0
 23 51  1  0  0  0
 23 52  1  0  0  0
 24 53  1  0  0  0
 25 54  1  0  0  0
 26 55  1  0  0  0
 27 28  1  0  0  0
 28 29  2  0  0  0
 28 30  1  0  0  0
 30 31  1  0  0  0
 31 32  1  0  0  0
 31 36  1  0  0  0
 32 33  1  0  0  0
 33 34  2  0  0  0
 33 35  1  0  0  0
 35 56  1  0  0  0
 36 37  2  0  0  0
 36 38  1  0  0  0
 38 57  1  0  0  0
 39 40  1  0  0  0
 40 41  2  0  0  0
 40 42  1  0  0  0
 42 43  1  0  0  0
 43 44  1  0  0  0
 43 48  1  0  0  0
 44 45  1  0  0  0
 45 46  2  0  0  0
 45 47  1  0  0  0
 47 58  1  0  0  0
 48 49  2  0  0  0
 48 50  1  0  0  0
 50 59  1  0  0  0
M  END
>  <AUTHOR>
    GENERATED BY OPEN BABEL 2.4.1

>  <CHROM.1>
176.84210374,169.72869968,179.05367118,130.08939255,64.16516201,77.10047911
-167.98518164,94.21307411,55.78178399,-178.69156510,148.11517193,-61.78762633
-57.44363262,-4.29621267,171.40453137,-165.83718685,67.73485002,-60.35412530
-61.71120486,124.91049669,-59.88321773,70.08838841,-65.97051398,21.05918396
-32.49044818,172.39308205,38.88477970,-103.37176454,51.13078175,-177.36657137
-2.05426225,-18.18292377,94.62144225,-179.20115785,-58.00462963,-83.79548304
-175.83243254,-174.58015078,-1.34713209,3.48164355,-4.36778677,7.37595153
1.07786815,0.14167718,-1.04815040

>  <COMPND>
    UNNAMED

>  <MASTER>
        0    0    0    0    0    0    0    0  109    0  109    0

>  <Name>
FB1.pdb

>  <RI>
0

>  <Rbt.Current_Directory>
/cluster/tossine/FB1_39T3/p3/0_clust01

>  <Rbt.Executable>
rbdock/0.1.0

>  <Rbt.Library>
librxdock.so/0.1.0

>  <Rbt.Parameter_File>
/cluster/rxdock/data/scripts/dock.prm

>  <Rbt.Receptor>
rx_1.prm

>  <SCORE>
-0.300267

>  <SCORE.INTER>
-1.32564

>  <SCORE.INTER.CONST>
1

>  <SCORE.INTER.POLAR>
-2.08844

>  <SCORE.INTER.REPUL>
0.46009

>  <SCORE.INTER.ROT>
32

>  <SCORE.INTER.VDW>
-33.9254

>  <SCORE.INTER.norm>
-0.0265127

>  <SCORE.INTRA>
1.02537

>  <SCORE.INTRA.DIHEDRAL>
4.2333

>  <SCORE.INTRA.DIHEDRAL.0>
47.3121

>  <SCORE.INTRA.POLAR>
0.624797

>  <SCORE.INTRA.POLAR.0>
-1.47808

>  <SCORE.INTRA.REPUL>
0

>  <SCORE.INTRA.REPUL.0>
0

>  <SCORE.INTRA.VDW>
-3.21559

>  <SCORE.INTRA.VDW.0>
-2.78316

>  <SCORE.INTRA.norm>
0.0205074

>  <SCORE.RESTR>
0

>  <SCORE.RESTR.CAVITY>
0

>  <SCORE.RESTR.norm>
0

>  <SCORE.SYSTEM>
0

>  <SCORE.SYSTEM.CONST>
0

>  <SCORE.SYSTEM.DIHEDRAL>
0

>  <SCORE.SYSTEM.norm>
0

>  <SCORE.heavy>
50

>  <SCORE.norm>
-0.00600534

$$$$
