FB1.pdb
  RxDock  10062022303D
librxdock.so/0.1.0
 59 58  0  0  0  0  0  0  0  0999 V2000
    2.0287    3.0792    9.9157 C   0  0  0  0  0  0
    1.0787    2.3185    8.9937 C   0  0  0  0  0  0
    0.5034    1.0666    9.6765 C   0  0  0  0  0  0
    1.5865    0.0499   10.1158 C   0  0  0  0  0  0
    2.4849   -0.5026    8.9547 C   0  0  0  0  0  0
    3.9461   -0.0764    9.2265 C   0  0  0  0  0  0
    2.3783   -2.0744    8.7647 C   0  0  0  0  0  0
    3.2343   -2.7213    7.5753 C   0  0  0  0  0  0
    2.9832   -2.4698    6.0254 C   0  0  0  0  0  0
    1.4563   -2.8079    5.5003 C   0  0  0  0  0  0
    0.4988   -1.7782    6.0977 C   0  0  0  0  0  0
    1.2546   -2.8718    3.9192 C   0  0  0  0  0  0
    1.7254   -4.1128    2.9936 C   0  0  0  0  0  0
    3.2149   -4.3109    2.5481 C   0  0  0  0  0  0
    3.6400   -3.8236    1.0883 C   0  0  0  0  0  0
    5.1347   -3.6949    0.5946 C   0  0  0  0  0  0
    5.4224   -3.3461   -0.8896 C   0  0  0  0  0  0
    6.5444   -2.2695   -1.1567 C   0  0  0  0  0  0
    6.0778   -0.8117   -1.2543 C   0  0  0  0  0  0
    5.5648   -0.2921   -2.6273 C   0  0  0  0  0  0
    4.6688   -1.1915   -3.5293 C   0  0  0  0  0  0
    5.3778   -1.9650   -4.6322 C   0  0  0  0  0  0
    3.8317   -2.0888   -2.7103 N   0  0  0  0  0  0
    4.7382    0.8542   -2.3010 O   0  0  0  0  0  0
    7.5107   -2.3683   -0.1049 O   0  0  0  0  0  0
    1.4030   -5.2869    3.7577 O   0  0  0  0  0  0
    4.6094   -2.3022    7.7896 O   0  0  0  0  0  0
    5.5829   -3.1945    7.4717 C   0  0  0  0  0  0
    5.4499   -4.3995    7.3725 O   0  0  0  0  0  0
    6.8423   -2.4341    7.1598 C   0  0  0  0  0  0
    8.0529   -3.3575    6.9498 C   0  0  0  0  0  0
    7.7746   -4.4703    5.9311 C   0  0  0  0  0  0
    8.6785   -5.6590    6.1619 C   0  0  0  0  0  0
    8.8474   -6.1799    7.2591 O   0  0  0  0  0  0
    9.2820   -6.0958    5.0466 O   0  0  0  0  0  0
    9.1886   -2.4562    6.4460 C   0  0  0  0  0  0
    9.3494   -2.1825    5.2663 O   0  0  0  0  0  0
   10.0236   -2.0311    7.4040 O   0  0  0  0  0  0
    2.5897   -2.7846   10.0496 O   0  0  0  0  0  0
    2.7752   -4.1567   10.0215 C   0  0  0  0  0  0
    3.3452   -4.7641    9.1245 O   0  0  0  0  0  0
    2.1820   -4.8515   11.2542 C   0  0  0  0  0  0
    2.5643   -6.3534   11.4349 C   0  0  0  0  0  0
    2.0308   -7.0913   12.6764 C   0  0  0  0  0  0
    3.0657   -7.9588   13.3328 C   0  0  0  0  0  0
    4.2459   -8.0246   13.0175 O   0  0  0  0  0  0
    2.5648   -8.6731   14.3523 O   0  0  0  0  0  0
    2.2650   -7.2383   10.2186 C   0  0  0  0  0  0
    2.8273   -8.2967   10.0176 O   0  0  0  0  0  0
    1.2524   -6.8182    9.4315 O   0  0  0  0  0  0
    3.1160   -2.5097   -3.3012 H   0  0  0  0  0  0
    3.3149   -1.5246   -2.0320 H   0  0  0  0  0  0
    3.9457    0.4718   -1.8686 H   0  0  0  0  0  0
    7.9639   -3.2275   -0.1879 H   0  0  0  0  0  0
    0.4387   -5.3135    3.8757 H   0  0  0  0  0  0
    9.1362   -7.0380    4.8357 H   0  0  0  0  0  0
    9.8775   -2.4473    8.2896 H   0  0  0  0  0  0
    3.3120   -9.1797   14.7347 H   0  0  0  0  0  0
    1.0921   -7.3614    8.6281 H   0  0  0  0  0  0
  1  2  1  0  0  0
  2  3  1  0  0  0
  3  4  1  0  0  0
  4  5  1  0  0  0
  5  6  1  0  0  0
  5  7  1  0  0  0
  7  8  1  0  0  0
  7 39  1  0  0  0
  8  9  1  0  0  0
  8 27  1  0  0  0
  9 10  1  0  0  0
 10 11  1  0  0  0
 10 12  1  0  0  0
 12 13  1  0  0  0
 13 14  1  0  0  0
 13 26  1  0  0  0
 14 15  1  0  0  0
 15 16  1  0  0  0
 16 17  1  0  0  0
 17 18  1  0  0  0
 18 19  1  0  0  0
 18 25  1  0  0  0
 19 20  1  0  0  0
 20 21  1  0  0  0
 20 24  1  0  0  0
 21 22  1  0  0  0
 21 23  1  0  0  0
 23 51  1  0  0  0
 23 52  1  0  0  0
 24 53  1  0  0  0
 25 54  1  0  0  0
 26 55  1  0  0  0
 27 28  1  0  0  0
 28 29  2  0  0  0
 28 30  1  0  0  0
 30 31  1  0  0  0
 31 32  1  0  0  0
 31 36  1  0  0  0
 32 33  1  0  0  0
 33 34  2  0  0  0
 33 35  1  0  0  0
 35 56  1  0  0  0
 36 37  2  0  0  0
 36 38  1  0  0  0
 38 57  1  0  0  0
 39 40  1  0  0  0
 40 41  2  0  0  0
 40 42  1  0  0  0
 42 43  1  0  0  0
 43 44  1  0  0  0
 43 48  1  0  0  0
 44 45  1  0  0  0
 45 46  2  0  0  0
 45 47  1  0  0  0
 47 58  1  0  0  0
 48 49  2  0  0  0
 48 50  1  0  0  0
 50 59  1  0  0  0
M  END
>  <AUTHOR>
    GENERATED BY OPEN BABEL 2.4.1

>  <CHROM.1>
-59.92968419,-59.31765448,117.47873170,178.47206325,-66.55402899,-168.25868935
-55.50515446,144.35217510,68.82976844,76.20216380,-78.94267535,-98.67676012
63.03416774,167.70461406,173.94757480,136.14355799,-91.43479859,-85.11956353
67.04171533,40.34250487,-96.70635968,-70.21935250,167.44358909,-21.19920725
173.16239451,51.70147786,-155.62448554,-86.51364183,48.91989582,-124.24457732
7.88965147,33.73501180,-169.44029922,178.27732401,-136.77529267,157.75657444
5.56430014,-178.09216722,177.01443942,4.29870852,-3.33378926,6.01942656,1.83106675
-0.70978467,2.00951346

>  <COMPND>
    UNNAMED

>  <MASTER>
        0    0    0    0    0    0    0    0  109    0  109    0

>  <Name>
FB1.pdb

>  <RI>
0

>  <Rbt.Current_Directory>
/cluster/tossine/FB1_39T3/p3/0_clust01

>  <Rbt.Executable>
rbdock/0.1.0

>  <Rbt.Library>
librxdock.so/0.1.0

>  <Rbt.Parameter_File>
/cluster/rxdock/data/scripts/dock.prm

>  <Rbt.Receptor>
rx_0.prm

>  <SCORE>
10.8215

>  <SCORE.INTER>
-13.5108

>  <SCORE.INTER.CONST>
1

>  <SCORE.INTER.POLAR>
-5.72401

>  <SCORE.INTER.REPUL>
0.79514

>  <SCORE.INTER.ROT>
32

>  <SCORE.INTER.VDW>
-35.4249

>  <SCORE.INTER.norm>
-0.270217

>  <SCORE.INTRA>
24.3314

>  <SCORE.INTRA.DIHEDRAL>
35.8322

>  <SCORE.INTRA.DIHEDRAL.0>
47.3121

>  <SCORE.INTRA.POLAR>
1.47808

>  <SCORE.INTRA.POLAR.0>
-1.47808

>  <SCORE.INTRA.REPUL>
0

>  <SCORE.INTRA.REPUL.0>
0

>  <SCORE.INTRA.VDW>
1.38985

>  <SCORE.INTRA.VDW.0>
-2.78316

>  <SCORE.INTRA.norm>
0.486629

>  <SCORE.RESTR>
0.000915443

>  <SCORE.RESTR.CAVITY>
0.000915443

>  <SCORE.RESTR.norm>
1.83089e-05

>  <SCORE.SYSTEM>
0

>  <SCORE.SYSTEM.CONST>
0

>  <SCORE.SYSTEM.DIHEDRAL>
0

>  <SCORE.SYSTEM.norm>
0

>  <SCORE.heavy>
50

>  <SCORE.norm>
0.21643

$$$$
