FB1.pdb
  RxDock  10062023123D
librxdock.so/0.1.0
 59 58  0  0  0  0  0  0  0  0999 V2000
    4.7095   -6.7468    6.0434 C   0  0  0  0  0  0
    6.1612   -6.6156    6.4982 C   0  0  0  0  0  0
    6.4103   -5.2872    7.2314 C   0  0  0  0  0  0
    6.1817   -4.0391    6.3429 C   0  0  0  0  0  0
    6.7051   -2.6905    6.9492 C   0  0  0  0  0  0
    8.2446   -2.7755    7.0654 C   0  0  0  0  0  0
    6.2686   -1.4110    6.1183 C   0  0  0  0  0  0
    4.8662   -1.4896    5.3481 C   0  0  0  0  0  0
    3.5553   -2.1972    5.9041 C   0  0  0  0  0  0
    2.5468   -1.2202    6.7701 C   0  0  0  0  0  0
    2.4981    0.1485    6.0931 C   0  0  0  0  0  0
    1.0623   -1.7610    6.9907 C   0  0  0  0  0  0
    0.6782   -2.9777    7.9860 C   0  0  0  0  0  0
    1.3069   -3.1256    9.4139 C   0  0  0  0  0  0
    2.8633   -3.4639    9.5248 C   0  0  0  0  0  0
    3.5481   -4.7242    8.8635 C   0  0  0  0  0  0
    3.2116   -6.1432    9.3932 C   0  0  0  0  0  0
    3.9526   -6.5991   10.7093 C   0  0  0  0  0  0
    3.3559   -7.8078   11.4410 C   0  0  0  0  0  0
    4.3269   -8.8958   11.9812 C   0  0  0  0  0  0
    4.0503   -9.5972   13.3439 C   0  0  0  0  0  0
    4.1405   -8.7226   14.5866 C   0  0  0  0  0  0
    2.7709  -10.3309   13.3071 N   0  0  0  0  0  0
    4.2743   -9.9579   10.9948 O   0  0  0  0  0  0
    5.3111   -6.8979   10.3704 O   0  0  0  0  0  0
   -0.7349   -2.8392    8.2108 O   0  0  0  0  0  0
    4.4582   -0.1159    5.1056 O   0  0  0  0  0  0
    5.1550    0.5783    4.1686 C   0  0  0  0  0  0
    5.9745    0.1199    3.3955 O   0  0  0  0  0  0
    4.6708    2.0020    4.1732 C   0  0  0  0  0  0
    5.4975    2.9097    3.2484 C   0  0  0  0  0  0
    4.8853    3.0367    1.8476 C   0  0  0  0  0  0
    5.8881    3.5915    0.8627 C   0  0  0  0  0  0
    6.6609    2.8932    0.2156 O   0  0  0  0  0  0
    5.8529    4.9283    0.7600 O   0  0  0  0  0  0
    5.5367    4.2839    3.9311 C   0  0  0  0  0  0
    4.6364    4.7003    4.6441 O   0  0  0  0  0  0
    6.6219    5.0147    3.6410 O   0  0  0  0  0  0
    6.3846   -0.1777    6.9341 O   0  0  0  0  0  0
    5.4930    0.0088    7.9773 C   0  0  0  0  0  0
    4.8570   -0.8863    8.5181 O   0  0  0  0  0  0
    5.3823    1.4812    8.3945 C   0  0  0  0  0  0
    4.5621    1.7576    9.6927 C   0  0  0  0  0  0
    4.7435    3.1199   10.3867 C   0  0  0  0  0  0
    5.2599    2.9985   11.7914 C   0  0  0  0  0  0
    6.4094    3.2139   12.1502 O   0  0  0  0  0  0
    4.3039    2.6350   12.6599 O   0  0  0  0  0  0
    3.0537    1.5154    9.5576 C   0  0  0  0  0  0
    2.4992    1.3867    8.4840 O   0  0  0  0  0  0
    2.3878    1.3459   10.7192 O   0  0  0  0  0  0
    2.0201   -9.6818   13.0762 H   0  0  0  0  0  0
    2.5550  -10.6584   14.2514 H   0  0  0  0  0  0
    4.7511   -9.5968   10.2178 H   0  0  0  0  0  0
    5.7281   -6.0819   10.0374 H   0  0  0  0  0  0
   -0.8993   -1.9427    8.5480 H   0  0  0  0  0  0
    5.2583    5.3790    1.3900 H   0  0  0  0  0  0
    6.6444    5.9046    4.0727 H   0  0  0  0  0  0
    4.7211    2.6191   13.5471 H   0  0  0  0  0  0
    2.9290    1.4526   11.5327 H   0  0  0  0  0  0
  1  2  1  0  0  0
  2  3  1  0  0  0
  3  4  1  0  0  0
  4  5  1  0  0  0
  5  6  1  0  0  0
  5  7  1  0  0  0
  7  8  1  0  0  0
  7 39  1  0  0  0
  8  9  1  0  0  0
  8 27  1  0  0  0
  9 10  1  0  0  0
 10 11  1  0  0  0
 10 12  1  0  0  0
 12 13  1  0  0  0
 13 14  1  0  0  0
 13 26  1  0  0  0
 14 15  1  0  0  0
 15 16  1  0  0  0
 16 17  1  0  0  0
 17 18  1  0  0  0
 18 19  1  0  0  0
 18 25  1  0  0  0
 19 20  1  0  0  0
 20 21  1  0  0  0
 20 24  1  0  0  0
 21 22  1  0  0  0
 21 23  1  0  0  0
 23 51  1  0  0  0
 23 52  1  0  0  0
 24 53  1  0  0  0
 25 54  1  0  0  0
 26 55  1  0  0  0
 27 28  1  0  0  0
 28 29  2  0  0  0
 28 30  1  0  0  0
 30 31  1  0  0  0
 31 32  1  0  0  0
 31 36  1  0  0  0
 32 33  1  0  0  0
 33 34  2  0  0  0
 33 35  1  0  0  0
 35 56  1  0  0  0
 36 37  2  0  0  0
 36 38  1  0  0  0
 38 57  1  0  0  0
 39 40  1  0  0  0
 40 41  2  0  0  0
 40 42  1  0  0  0
 42 43  1  0  0  0
 43 44  1  0  0  0
 43 48  1  0  0  0
 44 45  1  0  0  0
 45 46  2  0  0  0
 45 47  1  0  0  0
 47 58  1  0  0  0
 48 49  2  0  0  0
 48 50  1  0  0  0
 50 59  1  0  0  0
M  END
>  <AUTHOR>
    GENERATED BY OPEN BABEL 2.4.1

>  <CHROM.1>
-62.78766537,-167.88828942,64.77809270,30.95806437,37.83733718,-70.00214875
90.75423695,71.63962988,39.57474946,72.41584438,42.41200815,-67.55978369
-55.57243854,-56.73774607,-67.84983127,-79.98132986,163.75848680,136.77729011
62.15568869,142.36299907,-66.50139058,71.75724932,-57.75064030,9.83725264
174.02984421,93.81433509,-163.89211946,-30.19626731,88.79662254,5.94218999
179.39177957,20.74705537,-171.45030003,162.68641830,-119.46895427,-14.28871054
103.21345639,-177.63969239,3.75728971,4.46173163,-1.50940703,7.63664754,-2.13184056
1.33666104,-0.04245524

>  <COMPND>
    UNNAMED

>  <MASTER>
        0    0    0    0    0    0    0    0  109    0  109    0

>  <Name>
FB1.pdb

>  <RI>
0

>  <Rbt.Current_Directory>
/cluster/tossine/FB1_39T3/p3/0_clust01

>  <Rbt.Executable>
rbdock/0.1.0

>  <Rbt.Library>
librxdock.so/0.1.0

>  <Rbt.Parameter_File>
/cluster/rxdock/data/scripts/dock.prm

>  <Rbt.Receptor>
rx_1.prm

>  <SCORE>
13.5221

>  <SCORE.INTER>
-0.837662

>  <SCORE.INTER.CONST>
1

>  <SCORE.INTER.POLAR>
-2.01992

>  <SCORE.INTER.REPUL>
0.135245

>  <SCORE.INTER.ROT>
32

>  <SCORE.INTER.VDW>
-32.0462

>  <SCORE.INTER.norm>
-0.0167532

>  <SCORE.INTRA>
14.3597

>  <SCORE.INTRA.DIHEDRAL>
2.30384

>  <SCORE.INTRA.DIHEDRAL.0>
47.3121

>  <SCORE.INTRA.POLAR>
0.510176

>  <SCORE.INTRA.POLAR.0>
-1.47808

>  <SCORE.INTRA.REPUL>
0.0213791

>  <SCORE.INTRA.REPUL.0>
0

>  <SCORE.INTRA.VDW>
11.3663

>  <SCORE.INTRA.VDW.0>
-2.78316

>  <SCORE.INTRA.norm>
0.287194

>  <SCORE.RESTR>
0

>  <SCORE.RESTR.CAVITY>
0

>  <SCORE.RESTR.norm>
0

>  <SCORE.SYSTEM>
0

>  <SCORE.SYSTEM.CONST>
0

>  <SCORE.SYSTEM.DIHEDRAL>
0

>  <SCORE.SYSTEM.norm>
0

>  <SCORE.heavy>
50

>  <SCORE.norm>
0.270441

$$$$
