FB1.pdb
  RxDock  10062023163D
librxdock.so/0.1.0
 59 58  0  0  0  0  0  0  0  0999 V2000
    5.2073   -1.4585    0.7393 C   0  0  0  0  0  0
    4.8817   -1.1282    2.1940 C   0  0  0  0  0  0
    3.7767   -2.0406    2.7515 C   0  0  0  0  0  0
    3.5309   -1.8559    4.2698 C   0  0  0  0  0  0
    2.0893   -2.2360    4.7576 C   0  0  0  0  0  0
    1.5919   -3.4337    3.9157 C   0  0  0  0  0  0
    2.0109   -2.5611    6.3087 C   0  0  0  0  0  0
    2.7712   -3.8777    6.8135 C   0  0  0  0  0  0
    4.3083   -3.9499    7.2141 C   0  0  0  0  0  0
    5.3211   -4.4533    6.0132 C   0  0  0  0  0  0
    6.7495   -4.0609    6.3872 C   0  0  0  0  0  0
    5.2696   -6.0070    5.6552 C   0  0  0  0  0  0
    4.5813   -6.6083    4.3197 C   0  0  0  0  0  0
    3.5995   -5.7707    3.4306 C   0  0  0  0  0  0
    4.2018   -4.9607    2.1936 C   0  0  0  0  0  0
    4.2102   -5.4886    0.7050 C   0  0  0  0  0  0
    2.8662   -5.8153    0.0020 C   0  0  0  0  0  0
    2.4360   -4.8594   -1.1771 C   0  0  0  0  0  0
    0.9701   -4.9443   -1.6202 C   0  0  0  0  0  0
    0.2891   -6.3420   -1.6518 C   0  0  0  0  0  0
   -1.1424   -6.5117   -2.2411 C   0  0  0  0  0  0
   -1.3292   -6.1029   -3.6955 C   0  0  0  0  0  0
   -1.6480   -7.8780   -2.0082 N   0  0  0  0  0  0
    1.1435   -7.1481   -2.5028 O   0  0  0  0  0  0
    2.7131   -3.5128   -0.7775 O   0  0  0  0  0  0
    5.6806   -6.9399    3.4548 O   0  0  0  0  0  0
    2.0676   -4.3215    8.0054 O   0  0  0  0  0  0
    1.6111   -5.6008    8.0118 C   0  0  0  0  0  0
    1.8597   -6.4575    7.1849 O   0  0  0  0  0  0
    0.8219   -5.8183    9.2733 C   0  0  0  0  0  0
    1.7175   -5.9374   10.5167 C   0  0  0  0  0  0
    2.8803   -6.9171   10.3130 C   0  0  0  0  0  0
    3.3492   -7.4882   11.6310 C   0  0  0  0  0  0
    4.0652   -8.4794   11.7244 O   0  0  0  0  0  0
    2.9077   -6.8044   12.6970 O   0  0  0  0  0  0
    2.2599   -4.5264   10.7826 C   0  0  0  0  0  0
    3.4325   -4.2220   10.6255 O   0  0  0  0  0  0
    1.3484   -3.6627   11.2508 O   0  0  0  0  0  0
    2.3610   -1.3722    7.1234 O   0  0  0  0  0  0
    2.0103   -1.3648    8.4632 C   0  0  0  0  0  0
    1.2554   -2.1717    8.9899 O   0  0  0  0  0  0
    2.6786   -0.2195    9.2353 C   0  0  0  0  0  0
    3.7976    0.5517    8.4688 C   0  0  0  0  0  0
    3.6752    2.0825    8.3580 C   0  0  0  0  0  0
    3.5365    2.7579    9.6918 C   0  0  0  0  0  0
    2.5635    2.6867   10.4299 O   0  0  0  0  0  0
    4.6284    3.4623   10.0264 O   0  0  0  0  0  0
    5.2234    0.2445    8.9432 C   0  0  0  0  0  0
    5.6980    0.7170    9.9573 O   0  0  0  0  0  0
    5.8904   -0.6758    8.2157 O   0  0  0  0  0  0
   -1.8684   -7.9886   -1.0194 H   0  0  0  0  0  0
   -0.8902   -8.5412   -2.1850 H   0  0  0  0  0  0
    1.1491   -6.6777   -3.3630 H   0  0  0  0  0  0
    3.6805   -3.4035   -0.7267 H   0  0  0  0  0  0
    5.3944   -7.6590    2.8670 H   0  0  0  0  0  0
    2.8308   -5.8393   12.5702 H   0  0  0  0  0  0
    1.6961   -2.7524   11.4222 H   0  0  0  0  0  0
    4.4706    3.8147   10.9276 H   0  0  0  0  0  0
    6.7316   -0.9946    8.6118 H   0  0  0  0  0  0
  1  2  1  0  0  0
  2  3  1  0  0  0
  3  4  1  0  0  0
  4  5  1  0  0  0
  5  6  1  0  0  0
  5  7  1  0  0  0
  7  8  1  0  0  0
  7 39  1  0  0  0
  8  9  1  0  0  0
  8 27  1  0  0  0
  9 10  1  0  0  0
 10 11  1  0  0  0
 10 12  1  0  0  0
 12 13  1  0  0  0
 13 14  1  0  0  0
 13 26  1  0  0  0
 14 15  1  0  0  0
 15 16  1  0  0  0
 16 17  1  0  0  0
 17 18  1  0  0  0
 18 19  1  0  0  0
 18 25  1  0  0  0
 19 20  1  0  0  0
 20 21  1  0  0  0
 20 24  1  0  0  0
 21 22  1  0  0  0
 21 23  1  0  0  0
 23 51  1  0  0  0
 23 52  1  0  0  0
 24 53  1  0  0  0
 25 54  1  0  0  0
 26 55  1  0  0  0
 27 28  1  0  0  0
 28 29  2  0  0  0
 28 30  1  0  0  0
 30 31  1  0  0  0
 31 32  1  0  0  0
 31 36  1  0  0  0
 32 33  1  0  0  0
 33 34  2  0  0  0
 33 35  1  0  0  0
 35 56  1  0  0  0
 36 37  2  0  0  0
 36 38  1  0  0  0
 38 57  1  0  0  0
 39 40  1  0  0  0
 40 41  2  0  0  0
 40 42  1  0  0  0
 42 43  1  0  0  0
 43 44  1  0  0  0
 43 48  1  0  0  0
 44 45  1  0  0  0
 45 46  2  0  0  0
 45 47  1  0  0  0
 47 58  1  0  0  0
 48 49  2  0  0  0
 48 50  1  0  0  0
 50 59  1  0  0  0
M  END
>  <AUTHOR>
    GENERATED BY OPEN BABEL 2.4.1

>  <CHROM.1>
173.13641384,154.22793450,34.74207765,-66.96836555,85.83756960,163.22461773
-95.32976612,124.87074138,162.52836879,106.07646643,-15.46447096,92.78754330
153.12894531,96.77446031,59.98383227,111.08856887,-164.40717584,-38.23086645
68.04944943,-173.19163019,59.24433778,-59.18157990,71.96441522,8.80236075
-74.05437021,-48.56807946,-154.49227760,-110.78813892,164.59262332,-34.78574326
-179.95840078,-11.67581090,-10.42385268,125.98952209,55.19766916,-77.63479204
-69.16761649,-176.37809959,-169.07315888,2.96653841,-3.67136082,5.70891204
-2.32313604,1.32875089,1.97981466

>  <COMPND>
    UNNAMED

>  <MASTER>
        0    0    0    0    0    0    0    0  109    0  109    0

>  <Name>
FB1.pdb

>  <RI>
0

>  <Rbt.Current_Directory>
/cluster/tossine/FB1_39T3/p3/0_clust01

>  <Rbt.Executable>
rbdock/0.1.0

>  <Rbt.Library>
librxdock.so/0.1.0

>  <Rbt.Parameter_File>
/cluster/rxdock/data/scripts/dock.prm

>  <Rbt.Receptor>
rx_1.prm

>  <SCORE>
24.5752

>  <SCORE.INTER>
1.73779

>  <SCORE.INTER.CONST>
1

>  <SCORE.INTER.POLAR>
-3.23013

>  <SCORE.INTER.REPUL>
1.12018

>  <SCORE.INTER.ROT>
32

>  <SCORE.INTER.VDW>
-30.2807

>  <SCORE.INTER.norm>
0.0347559

>  <SCORE.INTRA>
22.8374

>  <SCORE.INTRA.DIHEDRAL>
34.5692

>  <SCORE.INTRA.DIHEDRAL.0>
47.3121

>  <SCORE.INTRA.POLAR>
1.47687

>  <SCORE.INTRA.POLAR.0>
-1.47808

>  <SCORE.INTRA.REPUL>
0

>  <SCORE.INTRA.REPUL.0>
0

>  <SCORE.INTRA.VDW>
0.531381

>  <SCORE.INTRA.VDW.0>
-2.78316

>  <SCORE.INTRA.norm>
0.456747

>  <SCORE.RESTR>
0

>  <SCORE.RESTR.CAVITY>
0

>  <SCORE.RESTR.norm>
0

>  <SCORE.SYSTEM>
0

>  <SCORE.SYSTEM.CONST>
0

>  <SCORE.SYSTEM.DIHEDRAL>
0

>  <SCORE.SYSTEM.norm>
0

>  <SCORE.heavy>
50

>  <SCORE.norm>
0.491503

$$$$
