FB1.pdb
  RxDock  10062023573D
librxdock.so/0.1.0
 59 58  0  0  0  0  0  0  0  0999 V2000
    3.3291    0.0183   -6.0014 C   0  0  0  0  0  0
    3.5447    0.7059   -4.6553 C   0  0  0  0  0  0
    4.9768    0.5014   -4.1344 C   0  0  0  0  0  0
    5.2846    1.3012   -2.8439 C   0  0  0  0  0  0
    6.8077    1.5634   -2.5755 C   0  0  0  0  0  0
    7.3522    2.4642   -3.7081 C   0  0  0  0  0  0
    7.0991    2.2023   -1.1526 C   0  0  0  0  0  0
    6.4894    1.4460    0.1211 C   0  0  0  0  0  0
    5.2630    1.9624    0.9915 C   0  0  0  0  0  0
    5.6610    2.9843    2.2238 C   0  0  0  0  0  0
    5.8144    4.3938    1.6548 C   0  0  0  0  0  0
    4.6580    3.0144    3.4639 C   0  0  0  0  0  0
    4.7188    1.9786    4.7058 C   0  0  0  0  0  0
    3.6702    2.0007    5.8703 C   0  0  0  0  0  0
    3.8046    0.9128    7.0312 C   0  0  0  0  0  0
    2.7568    0.7241    8.1978 C   0  0  0  0  0  0
    2.8322   -0.5386    9.0964 C   0  0  0  0  0  0
    1.6833   -0.7150   10.1632 C   0  0  0  0  0  0
    0.2985   -1.0825    9.6158 C   0  0  0  0  0  0
    0.1484   -2.4109    8.8214 C   0  0  0  0  0  0
   -1.2144   -3.1641    8.7892 C   0  0  0  0  0  0
   -1.2012   -4.5633    8.1897 C   0  0  0  0  0  0
   -1.8443   -3.1679   10.1232 N   0  0  0  0  0  0
    0.4082   -2.0457    7.4419 O   0  0  0  0  0  0
    2.0909   -1.7295   11.0875 O   0  0  0  0  0  0
    4.5888    0.6775    4.1084 O   0  0  0  0  0  0
    6.0719    0.1346   -0.3463 O   0  0  0  0  0  0
    5.8533   -0.8163    0.5988 C   0  0  0  0  0  0
    5.7917   -0.6360    1.8000 O   0  0  0  0  0  0
    5.5963   -2.1259   -0.0943 C   0  0  0  0  0  0
    4.7989   -3.1088    0.7777 C   0  0  0  0  0  0
    3.7297   -2.4089    1.6265 C   0  0  0  0  0  0
    3.7042   -2.9592    3.0335 C   0  0  0  0  0  0
    3.1362   -4.0006    3.3444 O   0  0  0  0  0  0
    4.3670   -2.1982    3.9170 O   0  0  0  0  0  0
    4.1356   -4.0935   -0.1951 C   0  0  0  0  0  0
    4.0814   -5.2970    0.0076 O   0  0  0  0  0  0
    3.6614   -3.5300   -1.3148 O   0  0  0  0  0  0
    8.5429    2.4971   -0.9836 O   0  0  0  0  0  0
    9.0159    3.7322   -1.3944 C   0  0  0  0  0  0
    8.4024    4.5081   -2.1154 O   0  0  0  0  0  0
   10.4150    4.0348   -0.8419 C   0  0  0  0  0  0
   10.4895    5.1644    0.2319 C   0  0  0  0  0  0
   11.8544    5.4554    0.8822 C   0  0  0  0  0  0
   12.9628    5.6000   -0.1203 C   0  0  0  0  0  0
   12.9497    5.1701   -1.2655 O   0  0  0  0  0  0
   14.0073    6.2883    0.3652 O   0  0  0  0  0  0
    9.9053    6.5098   -0.2163 C   0  0  0  0  0  0
    9.4264    6.6871   -1.3190 O   0  0  0  0  0  0
    9.8580    7.4664    0.7344 O   0  0  0  0  0  0
   -1.3244   -3.7942   10.7364 H   0  0  0  0  0  0
   -2.7734   -3.5877   10.0445 H   0  0  0  0  0  0
   -0.3463   -1.4714    7.1925 H   0  0  0  0  0  0
    1.4719   -1.7212   11.8407 H   0  0  0  0  0  0
    5.3123    0.5665    3.4692 H   0  0  0  0  0  0
    4.7765   -1.3922    3.5480 H   0  0  0  0  0  0
    3.2512   -4.1660   -1.9519 H   0  0  0  0  0  0
   13.8355    6.4230    1.3211 H   0  0  0  0  0  0
    9.4066    8.2987    0.4701 H   0  0  0  0  0  0
  1  2  1  0  0  0
  2  3  1  0  0  0
  3  4  1  0  0  0
  4  5  1  0  0  0
  5  6  1  0  0  0
  5  7  1  0  0  0
  7  8  1  0  0  0
  7 39  1  0  0  0
  8  9  1  0  0  0
  8 27  1  0  0  0
  9 10  1  0  0  0
 10 11  1  0  0  0
 10 12  1  0  0  0
 12 13  1  0  0  0
 13 14  1  0  0  0
 13 26  1  0  0  0
 14 15  1  0  0  0
 15 16  1  0  0  0
 16 17  1  0  0  0
 17 18  1  0  0  0
 18 19  1  0  0  0
 18 25  1  0  0  0
 19 20  1  0  0  0
 20 21  1  0  0  0
 20 24  1  0  0  0
 21 22  1  0  0  0
 21 23  1  0  0  0
 23 51  1  0  0  0
 23 52  1  0  0  0
 24 53  1  0  0  0
 25 54  1  0  0  0
 26 55  1  0  0  0
 27 28  1  0  0  0
 28 29  2  0  0  0
 28 30  1  0  0  0
 30 31  1  0  0  0
 31 32  1  0  0  0
 31 36  1  0  0  0
 32 33  1  0  0  0
 33 34  2  0  0  0
 33 35  1  0  0  0
 35 56  1  0  0  0
 36 37  2  0  0  0
 36 38  1  0  0  0
 38 57  1  0  0  0
 39 40  1  0  0  0
 40 41  2  0  0  0
 40 42  1  0  0  0
 42 43  1  0  0  0
 43 44  1  0  0  0
 43 48  1  0  0  0
 44 45  1  0  0  0
 45 46  2  0  0  0
 45 47  1  0  0  0
 47 58  1  0  0  0
 48 49  2  0  0  0
 48 50  1  0  0  0
 50 59  1  0  0  0
M  END
>  <AUTHOR>
    GENERATED BY OPEN BABEL 2.4.1

>  <CHROM.1>
174.08516870,-158.18375472,64.40401830,52.88657150,-107.50169307,88.88310404
-87.34371805,162.99135848,82.21352030,85.26296694,-176.97443964,178.69421697
58.27641795,-174.28525361,167.53525047,-175.18865785,71.55743974,60.42249540
169.12492937,152.46227169,-169.91984273,-67.39406806,-71.61244832,10.87916072
-156.68809221,37.03641349,-137.15825174,137.83661732,-80.82273338,0.15865732
178.72853198,-14.66746718,-110.56350157,176.48902224,48.54141264,-0.22963488
-20.76523524,7.91431896,-174.46538487,5.42321633,0.81639796,2.10090304,0.49347893
-0.82062897,-1.88703290

>  <COMPND>
    UNNAMED

>  <MASTER>
        0    0    0    0    0    0    0    0  109    0  109    0

>  <Name>
FB1.pdb

>  <RI>
0

>  <Rbt.Current_Directory>
/cluster/tossine/FB1_39T3/p3/0_clust01

>  <Rbt.Executable>
rbdock/0.1.0

>  <Rbt.Library>
librxdock.so/0.1.0

>  <Rbt.Parameter_File>
/cluster/rxdock/data/scripts/dock.prm

>  <Rbt.Receptor>
rx_2.prm

>  <SCORE>
3.92895

>  <SCORE.INTER>
0.457502

>  <SCORE.INTER.CONST>
1

>  <SCORE.INTER.POLAR>
-2.44135

>  <SCORE.INTER.REPUL>
0.468515

>  <SCORE.INTER.ROT>
32

>  <SCORE.INTER.VDW>
-30.9845

>  <SCORE.INTER.norm>
0.00915005

>  <SCORE.INTRA>
1.1918

>  <SCORE.INTRA.DIHEDRAL>
-2.87665

>  <SCORE.INTRA.DIHEDRAL.0>
47.3121

>  <SCORE.INTRA.POLAR>
-0.738213

>  <SCORE.INTRA.POLAR.0>
-1.47808

>  <SCORE.INTRA.REPUL>
0

>  <SCORE.INTRA.REPUL.0>
0

>  <SCORE.INTRA.VDW>
5.14004

>  <SCORE.INTRA.VDW.0>
-2.78316

>  <SCORE.INTRA.norm>
0.0238359

>  <SCORE.RESTR>
2.27966

>  <SCORE.RESTR.CAVITY>
2.27966

>  <SCORE.RESTR.norm>
0.0455931

>  <SCORE.SYSTEM>
0

>  <SCORE.SYSTEM.CONST>
0

>  <SCORE.SYSTEM.DIHEDRAL>
0

>  <SCORE.SYSTEM.norm>
0

>  <SCORE.heavy>
50

>  <SCORE.norm>
0.0785791

$$$$
