FB1.pdb
  RxDock  10072001133D
librxdock.so/0.1.0
 59 58  0  0  0  0  0  0  0  0999 V2000
   -2.7491   -2.0244    7.9638 C   0  0  0  0  0  0
   -1.4802   -2.8735    7.9453 C   0  0  0  0  0  0
   -0.5892   -2.5394    6.7376 C   0  0  0  0  0  0
    0.7235   -3.3608    6.6927 C   0  0  0  0  0  0
    1.6875   -3.0031    5.5081 C   0  0  0  0  0  0
    2.0399   -1.5007    5.6056 C   0  0  0  0  0  0
    3.0010   -3.8926    5.4699 C   0  0  0  0  0  0
    4.1393   -3.4616    4.4284 C   0  0  0  0  0  0
    3.9115   -3.2147    2.8742 C   0  0  0  0  0  0
    4.6820   -4.2789    1.8766 C   0  0  0  0  0  0
    3.9958   -5.6388    1.9951 C   0  0  0  0  0  0
    4.7771   -3.8598    0.3403 C   0  0  0  0  0  0
    5.0730   -2.3539   -0.1730 C   0  0  0  0  0  0
    6.3672   -1.5677    0.2309 C   0  0  0  0  0  0
    6.3645    0.0221    0.0836 C   0  0  0  0  0  0
    6.3909    0.7865   -1.2983 C   0  0  0  0  0  0
    6.1293    2.3155   -1.3314 C   0  0  0  0  0  0
    6.8390    3.1770   -0.2164 C   0  0  0  0  0  0
    7.5097    4.4745   -0.6845 C   0  0  0  0  0  0
    8.8399    4.3704   -1.4833 C   0  0  0  0  0  0
   10.0334    5.3170   -1.1598 C   0  0  0  0  0  0
   11.1584    5.3633   -2.1844 C   0  0  0  0  0  0
    9.5551    6.6754   -0.8401 N   0  0  0  0  0  0
    9.3330    3.0353   -1.2037 O   0  0  0  0  0  0
    5.8623    3.5032    0.7783 O   0  0  0  0  0  0
    5.1279   -2.4560   -1.6059 O   0  0  0  0  0  0
    4.6820   -2.2048    4.9166 O   0  0  0  0  0  0
    5.5015   -2.2656    5.9983 C   0  0  0  0  0  0
    6.0976   -3.2488    6.3949 O   0  0  0  0  0  0
    5.6339   -0.8824    6.5733 C   0  0  0  0  0  0
    4.4500   -0.5030    7.4772 C   0  0  0  0  0  0
    4.5049   -1.2000    8.8426 C   0  0  0  0  0  0
    3.1300   -1.2934    9.4626 C   0  0  0  0  0  0
    2.4865   -2.3349    9.5320 O   0  0  0  0  0  0
    2.6763   -0.1229    9.9350 O   0  0  0  0  0  0
    4.5302    1.0188    7.6607 C   0  0  0  0  0  0
    3.7038    1.7907    7.1984 O   0  0  0  0  0  0
    5.6121    1.4389    8.3306 O   0  0  0  0  0  0
    3.5469   -4.1003    6.8332 O   0  0  0  0  0  0
    3.1983   -5.2549    7.5140 C   0  0  0  0  0  0
    2.7475   -6.2641    6.9881 O   0  0  0  0  0  0
    3.4403   -5.1376    9.0246 C   0  0  0  0  0  0
    2.3189   -5.7232    9.9378 C   0  0  0  0  0  0
    2.5872   -5.8035   11.4517 C   0  0  0  0  0  0
    1.5666   -6.6246   12.1856 C   0  0  0  0  0  0
    1.6568   -7.8189   12.4347 O   0  0  0  0  0  0
    0.5089   -5.8979   12.5776 O   0  0  0  0  0  0
    0.9428   -5.0709    9.7556 C   0  0  0  0  0  0
    0.6441   -4.0073   10.2617 O   0  0  0  0  0  0
    0.1098   -5.7041    8.9033 O   0  0  0  0  0  0
    8.8547    6.6179   -0.1021 H   0  0  0  0  0  0
    9.0535    7.0444   -1.6511 H   0  0  0  0  0  0
   10.1014    2.9256   -1.8028 H   0  0  0  0  0  0
    5.1492    4.0112    0.3493 H   0  0  0  0  0  0
    5.8202   -3.0984   -1.8353 H   0  0  0  0  0  0
    3.3022    0.6236    9.8692 H   0  0  0  0  0  0
    5.7045    2.4224    8.3851 H   0  0  0  0  0  0
    0.6939   -4.9702   12.3200 H   0  0  0  0  0  0
    0.4545   -6.5434    8.5254 H   0  0  0  0  0  0
  1  2  1  0  0  0
  2  3  1  0  0  0
  3  4  1  0  0  0
  4  5  1  0  0  0
  5  6  1  0  0  0
  5  7  1  0  0  0
  7  8  1  0  0  0
  7 39  1  0  0  0
  8  9  1  0  0  0
  8 27  1  0  0  0
  9 10  1  0  0  0
 10 11  1  0  0  0
 10 12  1  0  0  0
 12 13  1  0  0  0
 13 14  1  0  0  0
 13 26  1  0  0  0
 14 15  1  0  0  0
 15 16  1  0  0  0
 16 17  1  0  0  0
 17 18  1  0  0  0
 18 19  1  0  0  0
 18 25  1  0  0  0
 19 20  1  0  0  0
 20 21  1  0  0  0
 20 24  1  0  0  0
 21 22  1  0  0  0
 21 23  1  0  0  0
 23 51  1  0  0  0
 23 52  1  0  0  0
 24 53  1  0  0  0
 25 54  1  0  0  0
 26 55  1  0  0  0
 27 28  1  0  0  0
 28 29  2  0  0  0
 28 30  1  0  0  0
 30 31  1  0  0  0
 31 32  1  0  0  0
 31 36  1  0  0  0
 32 33  1  0  0  0
 33 34  2  0  0  0
 33 35  1  0  0  0
 35 56  1  0  0  0
 36 37  2  0  0  0
 36 38  1  0  0  0
 38 57  1  0  0  0
 39 40  1  0  0  0
 40 41  2  0  0  0
 40 42  1  0  0  0
 42 43  1  0  0  0
 43 44  1  0  0  0
 43 48  1  0  0  0
 44 45  1  0  0  0
 45 46  2  0  0  0
 45 47  1  0  0  0
 47 58  1  0  0  0
 48 49  2  0  0  0
 48 50  1  0  0  0
 50 59  1  0  0  0
M  END
>  <AUTHOR>
    GENERATED BY OPEN BABEL 2.4.1

>  <CHROM.1>
178.96383792,-177.47035618,57.98666500,-171.40322011,-52.60874263,95.27305751
-114.52998918,74.54310981,70.66748273,39.88522268,58.24310179,-160.67246119
-57.81477842,-71.09532221,169.04032806,43.24745815,135.13256144,-73.44927854
-60.01634798,-135.94909573,-166.39521611,172.35890874,53.31605375,20.00701707
81.52599654,74.92442056,-156.26485708,112.20527613,106.29443147,-3.43235510
175.18381695,18.54605626,137.71584618,172.07027755,-168.51203445,-79.88628688
92.77145123,-3.02440395,3.14352242,4.09782301,-1.65416896,5.13981279,-2.85185272
-1.08606879,-2.19196803

>  <COMPND>
    UNNAMED

>  <MASTER>
        0    0    0    0    0    0    0    0  109    0  109    0

>  <Name>
FB1.pdb

>  <RI>
0

>  <Rbt.Current_Directory>
/cluster/tossine/FB1_39T3/p3/0_clust01

>  <Rbt.Executable>
rbdock/0.1.0

>  <Rbt.Library>
librxdock.so/0.1.0

>  <Rbt.Parameter_File>
/cluster/rxdock/data/scripts/dock.prm

>  <Rbt.Receptor>
rx_4.prm

>  <SCORE>
-1.58323

>  <SCORE.INTER>
-5.84138

>  <SCORE.INTER.CONST>
1

>  <SCORE.INTER.POLAR>
-1.86018

>  <SCORE.INTER.REPUL>
0.114552

>  <SCORE.INTER.ROT>
32

>  <SCORE.INTER.VDW>
-37.4895

>  <SCORE.INTER.norm>
-0.116828

>  <SCORE.INTRA>
3.45832

>  <SCORE.INTRA.DIHEDRAL>
2.70982

>  <SCORE.INTRA.DIHEDRAL.0>
47.3121

>  <SCORE.INTRA.POLAR>
1.47808

>  <SCORE.INTRA.POLAR.0>
-1.47808

>  <SCORE.INTRA.REPUL>
0

>  <SCORE.INTRA.REPUL.0>
0

>  <SCORE.INTRA.VDW>
-2.92205

>  <SCORE.INTRA.VDW.0>
-2.78316

>  <SCORE.INTRA.norm>
0.0691664

>  <SCORE.RESTR>
0.799833

>  <SCORE.RESTR.CAVITY>
0.799833

>  <SCORE.RESTR.norm>
0.0159967

>  <SCORE.SYSTEM>
0

>  <SCORE.SYSTEM.CONST>
0

>  <SCORE.SYSTEM.DIHEDRAL>
0

>  <SCORE.SYSTEM.norm>
0

>  <SCORE.heavy>
50

>  <SCORE.norm>
-0.0316646

$$$$
