FB1.pdb
  RxDock  10062022303D
librxdock.so/0.1.0
 59 58  0  0  0  0  0  0  0  0999 V2000
   -1.1020   -2.9744   11.1594 C   0  0  0  0  0  0
   -0.2009   -1.9121   10.5341 C   0  0  0  0  0  0
    0.6355   -2.4841    9.3776 C   0  0  0  0  0  0
    1.5599   -1.4372    8.7074 C   0  0  0  0  0  0
    2.3288   -1.9489    7.4395 C   0  0  0  0  0  0
    1.4015   -1.7904    6.2125 C   0  0  0  0  0  0
    3.7157   -1.2156    7.2012 C   0  0  0  0  0  0
    4.8485   -2.0400    6.4245 C   0  0  0  0  0  0
    5.8223   -3.1065    7.0897 C   0  0  0  0  0  0
    5.5230   -3.4314    8.6791 C   0  0  0  0  0  0
    5.6688   -2.1354    9.4749 C   0  0  0  0  0  0
    4.1139   -4.1042    9.0059 C   0  0  0  0  0  0
    3.5816   -5.4722    8.3249 C   0  0  0  0  0  0
    2.5283   -6.4018    9.0194 C   0  0  0  0  0  0
    2.9562   -7.1661   10.3543 C   0  0  0  0  0  0
    3.4637   -6.4473   11.6660 C   0  0  0  0  0  0
    3.4643   -7.2215   13.0107 C   0  0  0  0  0  0
    4.3684   -8.5125   13.0812 C   0  0  0  0  0  0
    4.7252   -9.0162   14.4852 C   0  0  0  0  0  0
    6.0921   -8.5940   15.0949 C   0  0  0  0  0  0
    7.4164   -9.2417   14.5928 C   0  0  0  0  0  0
    7.8607  -10.5128   15.3031 C   0  0  0  0  0  0
    7.3841   -9.4383   13.1311 N   0  0  0  0  0  0
    6.2181   -7.1851   14.7741 O   0  0  0  0  0  0
    3.6946   -9.5625   12.3789 O   0  0  0  0  0  0
    2.9626   -5.0566    7.0958 O   0  0  0  0  0  0
    4.1657   -2.7806    5.3768 O   0  0  0  0  0  0
    4.0630   -2.1794    4.1630 C   0  0  0  0  0  0
    4.6058   -1.1449    3.8244 O   0  0  0  0  0  0
    3.2422   -3.0612    3.2629 C   0  0  0  0  0  0
    3.7800   -4.4995    3.1953 C   0  0  0  0  0  0
    3.1664   -5.4084    4.2681 C   0  0  0  0  0  0
    4.2069   -6.3286    4.8631 C   0  0  0  0  0  0
    4.1144   -7.5514    4.8561 O   0  0  0  0  0  0
    5.2494   -5.6791    5.4018 O   0  0  0  0  0  0
    3.4189   -5.0196    1.7971 C   0  0  0  0  0  0
    3.3990   -4.3070    0.8050 O   0  0  0  0  0  0
    3.0773   -6.3150    1.7600 O   0  0  0  0  0  0
    3.5148    0.1338    6.6191 O   0  0  0  0  0  0
    4.6117    0.9712    6.5025 C   0  0  0  0  0  0
    5.2488    1.4199    7.4465 O   0  0  0  0  0  0
    4.9539    1.2847    5.0400 C   0  0  0  0  0  0
    4.4852    2.6786    4.5184 C   0  0  0  0  0  0
    5.4573    3.8650    4.6516 C   0  0  0  0  0  0
    4.9559    5.1121    3.9824 C   0  0  0  0  0  0
    4.2672    5.9761    4.5074 O   0  0  0  0  0  0
    5.3627    5.2093    2.7075 O   0  0  0  0  0  0
    3.9665    2.6779    3.0751 C   0  0  0  0  0  0
    4.6837    2.4728    2.1158 O   0  0  0  0  0  0
    2.6308    2.8150    2.9393 O   0  0  0  0  0  0
    7.0415  -10.3762   12.9276 H   0  0  0  0  0  0
    8.3438   -9.4262   12.7786 H   0  0  0  0  0  0
    5.6782   -6.7283   15.4532 H   0  0  0  0  0  0
    3.8392   -9.4312   11.4237 H   0  0  0  0  0  0
    2.2326   -4.4539    7.3155 H   0  0  0  0  0  0
    5.1733   -4.7057    5.4125 H   0  0  0  0  0  0
    2.1106   -6.4805    1.6299 H   0  0  0  0  0  0
    5.9451    4.4389    2.5385 H   0  0  0  0  0  0
    2.1146    2.7420    3.7726 H   0  0  0  0  0  0
  1  2  1  0  0  0
  2  3  1  0  0  0
  3  4  1  0  0  0
  4  5  1  0  0  0
  5  6  1  0  0  0
  5  7  1  0  0  0
  7  8  1  0  0  0
  7 39  1  0  0  0
  8  9  1  0  0  0
  8 27  1  0  0  0
  9 10  1  0  0  0
 10 11  1  0  0  0
 10 12  1  0  0  0
 12 13  1  0  0  0
 13 14  1  0  0  0
 13 26  1  0  0  0
 14 15  1  0  0  0
 15 16  1  0  0  0
 16 17  1  0  0  0
 17 18  1  0  0  0
 18 19  1  0  0  0
 18 25  1  0  0  0
 19 20  1  0  0  0
 20 21  1  0  0  0
 20 24  1  0  0  0
 21 22  1  0  0  0
 21 23  1  0  0  0
 23 51  1  0  0  0
 23 52  1  0  0  0
 24 53  1  0  0  0
 25 54  1  0  0  0
 26 55  1  0  0  0
 27 28  1  0  0  0
 28 29  2  0  0  0
 28 30  1  0  0  0
 30 31  1  0  0  0
 31 32  1  0  0  0
 31 36  1  0  0  0
 32 33  1  0  0  0
 33 34  2  0  0  0
 33 35  1  0  0  0
 35 56  1  0  0  0
 36 37  2  0  0  0
 36 38  1  0  0  0
 38 57  1  0  0  0
 39 40  1  0  0  0
 40 41  2  0  0  0
 40 42  1  0  0  0
 42 43  1  0  0  0
 43 44  1  0  0  0
 43 48  1  0  0  0
 44 45  1  0  0  0
 45 46  2  0  0  0
 45 47  1  0  0  0
 47 58  1  0  0  0
 48 49  2  0  0  0
 48 50  1  0  0  0
 50 59  1  0  0  0
M  END
>  <AUTHOR>
    GENERATED BY OPEN BABEL 2.4.1

>  <CHROM.1>
179.66655248,-174.56004774,84.81799034,152.58180018,-82.26264922,172.14890522
4.77171937,91.67652004,-60.17116609,54.97912583,155.10383831,-67.05977927
-60.54928433,58.08420737,162.54999271,61.49019743,161.22121622,-96.47620593
79.46160696,-74.57985544,-89.00292693,80.79413623,-92.88880377,8.28295015
-53.34327264,89.98490595,-139.51466299,34.25142363,-122.49542563,4.98835926
106.49646095,-64.58541603,101.43688782,90.85539982,173.70457828,-67.66404609
89.85285694,-3.01338193,-10.32991512,4.03489522,-3.17153587,7.40984792,-0.88315808
-1.46539814,-0.05300891

>  <COMPND>
    UNNAMED

>  <MASTER>
        0    0    0    0    0    0    0    0  109    0  109    0

>  <Name>
FB1.pdb

>  <RI>
0

>  <Rbt.Current_Directory>
/cluster/tossine/FB1_39T3/p3/0_clust01

>  <Rbt.Executable>
rbdock/0.1.0

>  <Rbt.Library>
librxdock.so/0.1.0

>  <Rbt.Parameter_File>
/cluster/rxdock/data/scripts/dock.prm

>  <Rbt.Receptor>
rx_0.prm

>  <SCORE>
41.3782

>  <SCORE.INTER>
16.2628

>  <SCORE.INTER.CONST>
1

>  <SCORE.INTER.POLAR>
-3.81374

>  <SCORE.INTER.REPUL>
0.617607

>  <SCORE.INTER.ROT>
32

>  <SCORE.INTER.VDW>
-11.2585

>  <SCORE.INTER.norm>
0.325256

>  <SCORE.INTRA>
24.8114

>  <SCORE.INTRA.DIHEDRAL>
51.3261

>  <SCORE.INTRA.DIHEDRAL.0>
47.3121

>  <SCORE.INTRA.POLAR>
0.544037

>  <SCORE.INTRA.POLAR.0>
-1.47808

>  <SCORE.INTRA.REPUL>
0

>  <SCORE.INTRA.REPUL.0>
0

>  <SCORE.INTRA.VDW>
-2.70135

>  <SCORE.INTRA.VDW.0>
-2.78316

>  <SCORE.INTRA.norm>
0.496229

>  <SCORE.RESTR>
0.303948

>  <SCORE.RESTR.CAVITY>
0.303948

>  <SCORE.RESTR.norm>
0.00607896

>  <SCORE.SYSTEM>
0

>  <SCORE.SYSTEM.CONST>
0

>  <SCORE.SYSTEM.DIHEDRAL>
0

>  <SCORE.SYSTEM.norm>
0

>  <SCORE.heavy>
50

>  <SCORE.norm>
0.827564

$$$$
