FB1.pdb
  RxDock  10072000293D
librxdock.so/0.1.0
 59 58  0  0  0  0  0  0  0  0999 V2000
    4.9667   -8.0582   13.0166 C   0  0  0  0  0  0
    3.5403   -7.8284   12.5227 C   0  0  0  0  0  0
    3.4894   -7.6392   10.9976 C   0  0  0  0  0  0
    3.3463   -6.1591   10.5634 C   0  0  0  0  0  0
    4.1046   -5.7807    9.2434 C   0  0  0  0  0  0
    3.9462   -6.9473    8.2411 C   0  0  0  0  0  0
    3.6178   -4.4127    8.6035 C   0  0  0  0  0  0
    4.3695   -3.9245    7.2758 C   0  0  0  0  0  0
    3.7800   -4.0217    5.8023 C   0  0  0  0  0  0
    4.8930   -4.3202    4.6219 C   0  0  0  0  0  0
    5.5241   -5.6866    4.8846 C   0  0  0  0  0  0
    4.3591   -4.2574    3.1200 C   0  0  0  0  0  0
    3.2158   -5.2339    2.5216 C   0  0  0  0  0  0
    3.2326   -5.7362    1.0372 C   0  0  0  0  0  0
    2.5701   -4.8112   -0.0829 C   0  0  0  0  0  0
    1.0236   -4.5066   -0.1834 C   0  0  0  0  0  0
    0.1039   -5.4733   -0.9754 C   0  0  0  0  0  0
    0.6161   -5.9290   -2.3963 C   0  0  0  0  0  0
    0.0069   -7.2205   -2.9561 C   0  0  0  0  0  0
    0.8886   -8.5012   -2.9813 C   0  0  0  0  0  0
    0.2457   -9.9083   -2.8025 C   0  0  0  0  0  0
   -1.1290  -10.1091   -3.4248 C   0  0  0  0  0  0
    1.1774  -10.9698   -3.2285 N   0  0  0  0  0  0
    1.4709   -8.5205   -4.3096 O   0  0  0  0  0  0
    0.3580   -4.8665   -3.3206 O   0  0  0  0  0  0
    3.2918   -6.4257    3.3219 O   0  0  0  0  0  0
    4.6435   -2.5092    7.4611 O   0  0  0  0  0  0
    5.7385   -2.0057    6.8343 C   0  0  0  0  0  0
    6.7591   -2.6125    6.5707 O   0  0  0  0  0  0
    5.4430   -0.5893    6.4245 C   0  0  0  0  0  0
    4.3299   -0.5003    5.3683 C   0  0  0  0  0  0
    3.1378    0.3426    5.8391 C   0  0  0  0  0  0
    3.5851    1.7112    6.2975 C   0  0  0  0  0  0
    4.2527    1.9035    7.3079 O   0  0  0  0  0  0
    3.1825    2.7033    5.4896 O   0  0  0  0  0  0
    4.9723    0.1430    4.1316 C   0  0  0  0  0  0
    5.5034    1.2430    4.1519 O   0  0  0  0  0  0
    4.8598   -0.5816    3.0098 O   0  0  0  0  0  0
    2.1431   -4.3902    8.4457 O   0  0  0  0  0  0
    1.5213   -3.1706    8.2361 C   0  0  0  0  0  0
    2.1021   -2.1346    7.9400 O   0  0  0  0  0  0
   -0.0003   -3.2526    8.4157 C   0  0  0  0  0  0
   -0.7963   -1.9617    8.0489 C   0  0  0  0  0  0
   -2.0503   -2.1108    7.1683 C   0  0  0  0  0  0
   -3.2374   -2.6369    7.9223 C   0  0  0  0  0  0
   -4.1960   -1.9750    8.2958 O   0  0  0  0  0  0
   -3.1602   -3.9580    8.1440 O   0  0  0  0  0  0
   -1.1869   -1.0907    9.2494 C   0  0  0  0  0  0
   -1.5870    0.0509    9.1345 O   0  0  0  0  0  0
   -1.1604   -1.7105   10.4479 O   0  0  0  0  0  0
    0.6426  -11.7889   -3.5142 H   0  0  0  0  0  0
    1.7160  -11.2773   -2.4155 H   0  0  0  0  0  0
    0.7356   -8.7947   -4.8974 H   0  0  0  0  0  0
    0.8618   -4.0833   -3.0321 H   0  0  0  0  0  0
    3.9050   -7.0414    2.8868 H   0  0  0  0  0  0
    2.7942    3.4770    5.9415 H   0  0  0  0  0  0
    4.3870   -1.4431    3.1239 H   0  0  0  0  0  0
   -2.2387   -4.2240    7.9406 H   0  0  0  0  0  0
   -0.4733   -1.3876   11.0723 H   0  0  0  0  0  0
  1  2  1  0  0  0
  2  3  1  0  0  0
  3  4  1  0  0  0
  4  5  1  0  0  0
  5  6  1  0  0  0
  5  7  1  0  0  0
  7  8  1  0  0  0
  7 39  1  0  0  0
  8  9  1  0  0  0
  8 27  1  0  0  0
  9 10  1  0  0  0
 10 11  1  0  0  0
 10 12  1  0  0  0
 12 13  1  0  0  0
 13 14  1  0  0  0
 13 26  1  0  0  0
 14 15  1  0  0  0
 15 16  1  0  0  0
 16 17  1  0  0  0
 17 18  1  0  0  0
 18 19  1  0  0  0
 18 25  1  0  0  0
 19 20  1  0  0  0
 20 21  1  0  0  0
 20 24  1  0  0  0
 21 22  1  0  0  0
 21 23  1  0  0  0
 23 51  1  0  0  0
 23 52  1  0  0  0
 24 53  1  0  0  0
 25 54  1  0  0  0
 26 55  1  0  0  0
 27 28  1  0  0  0
 28 29  2  0  0  0
 28 30  1  0  0  0
 30 31  1  0  0  0
 31 32  1  0  0  0
 31 36  1  0  0  0
 32 33  1  0  0  0
 33 34  2  0  0  0
 33 35  1  0  0  0
 35 56  1  0  0  0
 36 37  2  0  0  0
 36 38  1  0  0  0
 38 57  1  0  0  0
 39 40  1  0  0  0
 40 41  2  0  0  0
 40 42  1  0  0  0
 42 43  1  0  0  0
 43 44  1  0  0  0
 43 48  1  0  0  0
 44 45  1  0  0  0
 45 46  2  0  0  0
 45 47  1  0  0  0
 47 58  1  0  0  0
 48 49  2  0  0  0
 48 50  1  0  0  0
 50 59  1  0  0  0
M  END
>  <AUTHOR>
    GENERATED BY OPEN BABEL 2.4.1

>  <CHROM.1>
-101.72448579,144.88595148,39.71925399,178.16761893,103.81259316,163.44175201
-145.51464368,150.79118287,62.80873295,-61.89099581,-145.34739394,-86.04261334
-91.40462027,-67.46642672,-87.27836218,-46.40574524,158.91746011,-106.68068193
61.80440288,147.84250906,36.12841747,-74.57453410,-154.06971175,-29.73426794
-65.23991628,121.00383354,53.78861421,-58.22944898,-68.59114607,133.43216080
-0.70192296,13.31295187,-173.67841617,132.96309681,76.61216133,166.23911876
104.18947603,13.14164470,113.25055649,2.21881919,-3.92517094,4.95575731,1.18878075
1.29114002,1.51631147

>  <COMPND>
    UNNAMED

>  <MASTER>
        0    0    0    0    0    0    0    0  109    0  109    0

>  <Name>
FB1.pdb

>  <RI>
0

>  <Rbt.Current_Directory>
/cluster/tossine/FB1_39T3/p3/0_clust01

>  <Rbt.Executable>
rbdock/0.1.0

>  <Rbt.Library>
librxdock.so/0.1.0

>  <Rbt.Parameter_File>
/cluster/rxdock/data/scripts/dock.prm

>  <Rbt.Receptor>
rx_3.prm

>  <SCORE>
57.9269

>  <SCORE.INTER>
12.756

>  <SCORE.INTER.CONST>
1

>  <SCORE.INTER.POLAR>
-1.81256

>  <SCORE.INTER.REPUL>
0.221761

>  <SCORE.INTER.ROT>
32

>  <SCORE.INTER.VDW>
-19.5901

>  <SCORE.INTER.norm>
0.25512

>  <SCORE.INTRA>
43.4901

>  <SCORE.INTRA.DIHEDRAL>
69.9068

>  <SCORE.INTRA.DIHEDRAL.0>
47.3121

>  <SCORE.INTRA.POLAR>
1.47808

>  <SCORE.INTRA.POLAR.0>
-1.47808

>  <SCORE.INTRA.REPUL>
0

>  <SCORE.INTRA.REPUL.0>
0

>  <SCORE.INTRA.VDW>
3.51118

>  <SCORE.INTRA.VDW.0>
-2.78316

>  <SCORE.INTRA.norm>
0.869801

>  <SCORE.RESTR>
1.68084

>  <SCORE.RESTR.CAVITY>
1.68084

>  <SCORE.RESTR.norm>
0.0336168

>  <SCORE.SYSTEM>
0

>  <SCORE.SYSTEM.CONST>
0

>  <SCORE.SYSTEM.DIHEDRAL>
0

>  <SCORE.SYSTEM.norm>
0

>  <SCORE.heavy>
50

>  <SCORE.norm>
1.15854

$$$$
