FB1.pdb
  RxDock  10072001003D
librxdock.so/0.1.0
 59 58  0  0  0  0  0  0  0  0999 V2000
    7.0210   -6.3099    7.6426 C   0  0  0  0  0  0
    8.0788   -5.4325    6.9772 C   0  0  0  0  0  0
    7.4704   -4.1404    6.4074 C   0  0  0  0  0  0
    7.0566   -3.1199    7.4969 C   0  0  0  0  0  0
    6.5770   -1.7291    6.9527 C   0  0  0  0  0  0
    7.7872   -1.0178    6.3046 C   0  0  0  0  0  0
    5.3659   -1.8317    5.9325 C   0  0  0  0  0  0
    3.9565   -2.3098    6.5250 C   0  0  0  0  0  0
    2.8116   -3.0332    5.6919 C   0  0  0  0  0  0
    1.7781   -3.9606    6.5824 C   0  0  0  0  0  0
    0.4369   -3.2354    6.6796 C   0  0  0  0  0  0
    1.5442   -5.4503    6.0620 C   0  0  0  0  0  0
    2.3692   -6.7372    6.5929 C   0  0  0  0  0  0
    3.9253   -6.8556    6.4485 C   0  0  0  0  0  0
    4.5411   -6.9992    4.9825 C   0  0  0  0  0  0
    4.8840   -5.7797    4.0393 C   0  0  0  0  0  0
    3.7904   -5.2109    3.0970 C   0  0  0  0  0  0
    4.2028   -3.9809    2.1990 C   0  0  0  0  0  0
    3.2096   -3.5771    1.1023 C   0  0  0  0  0  0
    3.2191   -4.3763   -0.2317 C   0  0  0  0  0  0
    1.8919   -4.6521   -0.9985 C   0  0  0  0  0  0
    1.8090   -5.9690   -1.7576 C   0  0  0  0  0  0
    0.7265   -4.4813   -0.1101 N   0  0  0  0  0  0
    4.0154   -3.5704   -1.1374 O   0  0  0  0  0  0
    4.4120   -2.8561    3.0597 O   0  0  0  0  0  0
    2.1195   -6.7783    8.0080 O   0  0  0  0  0  0
    4.2617   -3.2396    7.5996 O   0  0  0  0  0  0
    4.0649   -2.8004    8.8699 C   0  0  0  0  0  0
    3.6479   -1.7053    9.1960 O   0  0  0  0  0  0
    4.3531   -3.9337    9.8154 C   0  0  0  0  0  0
    3.1220   -4.8181   10.0694 C   0  0  0  0  0  0
    3.2827   -5.7091   11.3079 C   0  0  0  0  0  0
    2.0071   -6.4618   11.6071 C   0  0  0  0  0  0
    1.1901   -6.1042   12.4489 O   0  0  0  0  0  0
    1.8494   -7.5643   10.8599 O   0  0  0  0  0  0
    1.9434   -3.8545   10.2650 C   0  0  0  0  0  0
    0.9291   -3.8948    9.5853 O   0  0  0  0  0  0
    2.1377   -2.9285   11.2140 O   0  0  0  0  0  0
    5.2373   -0.5925    5.1277 O   0  0  0  0  0  0
    4.4580    0.4386    5.6253 C   0  0  0  0  0  0
    3.5363    0.2948    6.4178 O   0  0  0  0  0  0
    4.8768    1.8067    5.0711 C   0  0  0  0  0  0
    4.6520    2.0155    3.5413 C   0  0  0  0  0  0
    5.2039    3.3008    2.8979 C   0  0  0  0  0  0
    5.6306    4.3261    3.9084 C   0  0  0  0  0  0
    6.7619    4.7735    4.0370 O   0  0  0  0  0  0
    4.6139    4.7405    4.6798 O   0  0  0  0  0  0
    5.1023    0.8406    2.6644 C   0  0  0  0  0  0
    4.6690   -0.2868    2.7976 O   0  0  0  0  0  0
    5.9393    1.1587    1.6547 O   0  0  0  0  0  0
    0.7129   -5.2381    0.5722 H   0  0  0  0  0  0
   -0.1255   -4.6079   -0.6610 H   0  0  0  0  0  0
    3.6568   -2.6631   -1.0404 H   0  0  0  0  0  0
    3.5431   -2.4647    3.2654 H   0  0  0  0  0  0
    1.2013   -7.0666    8.1430 H   0  0  0  0  0  0
    2.2043   -7.5067    9.9521 H   0  0  0  0  0  0
    2.9465   -3.0704   11.7659 H   0  0  0  0  0  0
    3.7988    4.3409    4.3094 H   0  0  0  0  0  0
    6.6690    1.7731    1.8921 H   0  0  0  0  0  0
  1  2  1  0  0  0
  2  3  1  0  0  0
  3  4  1  0  0  0
  4  5  1  0  0  0
  5  6  1  0  0  0
  5  7  1  0  0  0
  7  8  1  0  0  0
  7 39  1  0  0  0
  8  9  1  0  0  0
  8 27  1  0  0  0
  9 10  1  0  0  0
 10 11  1  0  0  0
 10 12  1  0  0  0
 12 13  1  0  0  0
 13 14  1  0  0  0
 13 26  1  0  0  0
 14 15  1  0  0  0
 15 16  1  0  0  0
 16 17  1  0  0  0
 17 18  1  0  0  0
 18 19  1  0  0  0
 18 25  1  0  0  0
 19 20  1  0  0  0
 20 21  1  0  0  0
 20 24  1  0  0  0
 21 22  1  0  0  0
 21 23  1  0  0  0
 23 51  1  0  0  0
 23 52  1  0  0  0
 24 53  1  0  0  0
 25 54  1  0  0  0
 26 55  1  0  0  0
 27 28  1  0  0  0
 28 29  2  0  0  0
 28 30  1  0  0  0
 30 31  1  0  0  0
 31 32  1  0  0  0
 31 36  1  0  0  0
 32 33  1  0  0  0
 33 34  2  0  0  0
 33 35  1  0  0  0
 35 56  1  0  0  0
 36 37  2  0  0  0
 36 38  1  0  0  0
 38 57  1  0  0  0
 39 40  1  0  0  0
 40 41  2  0  0  0
 40 42  1  0  0  0
 42 43  1  0  0  0
 43 44  1  0  0  0
 43 48  1  0  0  0
 44 45  1  0  0  0
 45 46  2  0  0  0
 45 47  1  0  0  0
 47 58  1  0  0  0
 48 49  2  0  0  0
 48 50  1  0  0  0
 50 59  1  0  0  0
M  END
>  <AUTHOR>
    GENERATED BY OPEN BABEL 2.4.1

>  <CHROM.1>
72.18203170,173.67021564,-67.22003140,68.11763239,-153.96915082,-88.50000575
155.62878206,106.98633917,106.79506926,94.44196060,-60.35807003,-67.25581390
72.28170829,85.69008740,-88.04883450,179.22500168,169.75926745,-81.19326100
-81.32270553,144.37166666,-146.86695338,-48.00382913,-69.89310622,0.57243930
-87.57599284,-163.60956048,174.36810895,123.27672078,-98.54662218,-33.66540766
-9.43298537,-25.12618474,66.16263389,-172.90898564,-12.62934128,57.85615585
119.22387479,-6.99538780,44.52059379,3.94935734,-2.86210250,5.70891118,2.21550866
1.23341223,1.61881047

>  <COMPND>
    UNNAMED

>  <MASTER>
        0    0    0    0    0    0    0    0  109    0  109    0

>  <Name>
FB1.pdb

>  <RI>
0

>  <Rbt.Current_Directory>
/cluster/tossine/FB1_39T3/p3/0_clust01

>  <Rbt.Executable>
rbdock/0.1.0

>  <Rbt.Library>
librxdock.so/0.1.0

>  <Rbt.Parameter_File>
/cluster/rxdock/data/scripts/dock.prm

>  <Rbt.Receptor>
rx_4.prm

>  <SCORE>
14.8559

>  <SCORE.INTER>
-5.17037

>  <SCORE.INTER.CONST>
1

>  <SCORE.INTER.POLAR>
-3.48508

>  <SCORE.INTER.REPUL>
0.152246

>  <SCORE.INTER.ROT>
32

>  <SCORE.INTER.VDW>
-31.4823

>  <SCORE.INTER.norm>
-0.103407

>  <SCORE.INTRA>
20.0262

>  <SCORE.INTRA.DIHEDRAL>
33.7874

>  <SCORE.INTRA.DIHEDRAL.0>
47.3121

>  <SCORE.INTRA.POLAR>
0.478077

>  <SCORE.INTRA.POLAR.0>
-1.47808

>  <SCORE.INTRA.REPUL>
0.0564679

>  <SCORE.INTRA.REPUL.0>
0

>  <SCORE.INTRA.VDW>
1.22473

>  <SCORE.INTRA.VDW.0>
-2.78316

>  <SCORE.INTRA.norm>
0.400525

>  <SCORE.RESTR>
0

>  <SCORE.RESTR.CAVITY>
0

>  <SCORE.RESTR.norm>
0

>  <SCORE.SYSTEM>
0

>  <SCORE.SYSTEM.CONST>
0

>  <SCORE.SYSTEM.DIHEDRAL>
0

>  <SCORE.SYSTEM.norm>
0

>  <SCORE.heavy>
50

>  <SCORE.norm>
0.297117

$$$$
