FB1.pdb
  RxDock  10062022273D
librxdock.so/0.1.0
 59 58  0  0  0  0  0  0  0  0999 V2000
    7.2431   -8.5652    9.9971 C   0  0  0  0  0  0
    6.2818   -7.4376   10.3658 C   0  0  0  0  0  0
    5.8134   -6.6602    9.1246 C   0  0  0  0  0  0
    4.8351   -5.5047    9.4526 C   0  0  0  0  0  0
    3.3199   -5.8326    9.2133 C   0  0  0  0  0  0
    3.1103   -6.0839    7.7022 C   0  0  0  0  0  0
    2.7946   -7.0600   10.0709 C   0  0  0  0  0  0
    1.2388   -7.0658   10.4524 C   0  0  0  0  0  0
    0.0613   -6.5821    9.4996 C   0  0  0  0  0  0
   -0.1248   -4.9465    9.3924 C   0  0  0  0  0  0
   -1.3477   -4.6532    8.5248 C   0  0  0  0  0  0
   -0.2490   -4.1609   10.7752 C   0  0  0  0  0  0
    0.0246   -2.5752   10.9459 C   0  0  0  0  0  0
    1.4565   -1.9511   10.8173 C   0  0  0  0  0  0
    2.0200   -1.6432    9.3555 C   0  0  0  0  0  0
    2.5110   -2.7498    8.3412 C   0  0  0  0  0  0
    1.6707   -3.0507    7.0721 C   0  0  0  0  0  0
    1.3856   -1.8334    6.1097 C   0  0  0  0  0  0
    2.5533   -1.3788    5.2251 C   0  0  0  0  0  0
    3.8217   -0.8033    5.9167 C   0  0  0  0  0  0
    5.1501   -1.6159    5.9359 C   0  0  0  0  0  0
    6.3844   -0.8846    6.4449 C   0  0  0  0  0  0
    4.9705   -2.9001    6.6394 N   0  0  0  0  0  0
    4.1303    0.4033    5.1733 O   0  0  0  0  0  0
    0.2855   -2.1869    5.2644 O   0  0  0  0  0  0
   -0.7507   -1.9525    9.9078 O   0  0  0  0  0  0
    0.9029   -8.4441   10.7682 O   0  0  0  0  0  0
   -0.2982   -8.6656   11.3629 C   0  0  0  0  0  0
   -1.0387   -7.8191   11.8259 O   0  0  0  0  0  0
   -0.6145  -10.1325   11.2649 C   0  0  0  0  0  0
   -2.1253  -10.4139   11.2929 C   0  0  0  0  0  0
   -2.4812  -11.7786   10.6895 C   0  0  0  0  0  0
   -3.3410  -11.6221    9.4568 C   0  0  0  0  0  0
   -3.9174  -10.5814    9.1596 O   0  0  0  0  0  0
   -3.4143  -12.7348    8.7116 O   0  0  0  0  0  0
   -2.5352  -10.3703   12.7715 C   0  0  0  0  0  0
   -2.8135  -11.3699   13.4162 O   0  0  0  0  0  0
   -2.6113   -9.1361   13.2881 O   0  0  0  0  0  0
    3.2249   -8.3501    9.4789 O   0  0  0  0  0  0
    3.2839   -9.4645   10.2990 C   0  0  0  0  0  0
    3.0498  -10.6097    9.9356 O   0  0  0  0  0  0
    3.6813   -9.1100   11.7381 C   0  0  0  0  0  0
    4.7185  -10.0634   12.4088 C   0  0  0  0  0  0
    5.1347   -9.7719   13.8621 C   0  0  0  0  0  0
    4.2088   -8.8157   14.5569 C   0  0  0  0  0  0
    4.4841   -7.6716   14.8912 O   0  0  0  0  0  0
    2.9937   -9.3427   14.7719 O   0  0  0  0  0  0
    4.3597  -11.5525   12.3303 C   0  0  0  0  0  0
    3.3404  -12.0120   12.8064 O   0  0  0  0  0  0
    5.2016  -12.3136   11.6001 O   0  0  0  0  0  0
    5.3036   -2.8054    7.5978 H   0  0  0  0  0  0
    5.5878   -3.5951    6.2135 H   0  0  0  0  0  0
    4.2568    0.0985    4.2500 H   0  0  0  0  0  0
   -0.0264   -1.3786    4.8171 H   0  0  0  0  0  0
   -0.4221   -2.2757    9.0521 H   0  0  0  0  0  0
   -4.0262  -12.6880    7.9521 H   0  0  0  0  0  0
   -2.6809   -9.1081   14.2746 H   0  0  0  0  0  0
    2.5022   -8.6999   15.3254 H   0  0  0  0  0  0
    4.8979  -13.2335   11.4332 H   0  0  0  0  0  0
  1  2  1  0  0  0
  2  3  1  0  0  0
  3  4  1  0  0  0
  4  5  1  0  0  0
  5  6  1  0  0  0
  5  7  1  0  0  0
  7  8  1  0  0  0
  7 39  1  0  0  0
  8  9  1  0  0  0
  8 27  1  0  0  0
  9 10  1  0  0  0
 10 11  1  0  0  0
 10 12  1  0  0  0
 12 13  1  0  0  0
 13 14  1  0  0  0
 13 26  1  0  0  0
 14 15  1  0  0  0
 15 16  1  0  0  0
 16 17  1  0  0  0
 17 18  1  0  0  0
 18 19  1  0  0  0
 18 25  1  0  0  0
 19 20  1  0  0  0
 20 21  1  0  0  0
 20 24  1  0  0  0
 21 22  1  0  0  0
 21 23  1  0  0  0
 23 51  1  0  0  0
 23 52  1  0  0  0
 24 53  1  0  0  0
 25 54  1  0  0  0
 26 55  1  0  0  0
 27 28  1  0  0  0
 28 29  2  0  0  0
 28 30  1  0  0  0
 30 31  1  0  0  0
 31 32  1  0  0  0
 31 36  1  0  0  0
 32 33  1  0  0  0
 33 34  2  0  0  0
 33 35  1  0  0  0
 35 56  1  0  0  0
 36 37  2  0  0  0
 36 38  1  0  0  0
 38 57  1  0  0  0
 39 40  1  0  0  0
 40 41  2  0  0  0
 40 42  1  0  0  0
 42 43  1  0  0  0
 43 44  1  0  0  0
 43 48  1  0  0  0
 44 45  1  0  0  0
 45 46  2  0  0  0
 45 47  1  0  0  0
 47 58  1  0  0  0
 48 49  2  0  0  0
 48 50  1  0  0  0
 50 59  1  0  0  0
M  END
>  <AUTHOR>
    GENERATED BY OPEN BABEL 2.4.1

>  <CHROM.1>
-179.99086153,-99.94261865,-64.17845864,152.00468565,37.98695548,157.28158201
-78.03746551,167.96164468,-176.08997903,160.03106852,-69.31680692,82.09199056
-61.31173719,-73.29939097,109.75059164,56.87189499,75.84162739,-64.23095703
167.11123333,108.98251066,170.94366672,-58.27539299,-98.15125917,-10.99729826
-153.72702200,158.78495210,-116.70639701,-106.83744873,-15.10172883,174.77806291
-167.41534111,146.91020720,-137.00852100,-178.87077784,15.33586147,-59.80587036
-111.00149600,172.85283770,-170.81639169,1.82192157,-6.84273322,9.99659130
-1.29826799,0.11424594,2.59835387

>  <COMPND>
    UNNAMED

>  <MASTER>
        0    0    0    0    0    0    0    0  109    0  109    0

>  <Name>
FB1.pdb

>  <RI>
0

>  <Rbt.Current_Directory>
/cluster/tossine/FB1_39T3/p3/0_clust01

>  <Rbt.Executable>
rbdock/0.1.0

>  <Rbt.Library>
librxdock.so/0.1.0

>  <Rbt.Parameter_File>
/cluster/rxdock/data/scripts/dock.prm

>  <Rbt.Receptor>
rx_0.prm

>  <SCORE>
22.2268

>  <SCORE.INTER>
8.78603

>  <SCORE.INTER.CONST>
1

>  <SCORE.INTER.POLAR>
-2.37021

>  <SCORE.INTER.REPUL>
1.30621

>  <SCORE.INTER.ROT>
32

>  <SCORE.INTER.VDW>
-27.0863

>  <SCORE.INTER.norm>
0.175721

>  <SCORE.INTRA>
12.673

>  <SCORE.INTRA.DIHEDRAL>
18.5531

>  <SCORE.INTRA.DIHEDRAL.0>
47.3121

>  <SCORE.INTRA.POLAR>
1.47808

>  <SCORE.INTRA.POLAR.0>
-1.47808

>  <SCORE.INTRA.REPUL>
0

>  <SCORE.INTRA.REPUL.0>
0

>  <SCORE.INTRA.VDW>
-1.62902

>  <SCORE.INTRA.VDW.0>
-2.78316

>  <SCORE.INTRA.norm>
0.25346

>  <SCORE.RESTR>
0.767806

>  <SCORE.RESTR.CAVITY>
0.767806

>  <SCORE.RESTR.norm>
0.0153561

>  <SCORE.SYSTEM>
0

>  <SCORE.SYSTEM.CONST>
0

>  <SCORE.SYSTEM.DIHEDRAL>
0

>  <SCORE.SYSTEM.norm>
0

>  <SCORE.heavy>
50

>  <SCORE.norm>
0.444537

$$$$
