FB1.pdb
  RxDock  10062022243D
librxdock.so/0.1.0
 59 58  0  0  0  0  0  0  0  0999 V2000
    6.4454   -8.4203    8.5297 C   0  0  0  0  0  0
    6.5002   -7.5603    9.7901 C   0  0  0  0  0  0
    5.6260   -6.3021    9.6594 C   0  0  0  0  0  0
    6.1945   -5.2552    8.6692 C   0  0  0  0  0  0
    5.2784   -4.0045    8.4306 C   0  0  0  0  0  0
    6.0688   -2.9776    7.5872 C   0  0  0  0  0  0
    3.8924   -4.3568    7.7431 C   0  0  0  0  0  0
    2.6600   -3.3814    8.0530 C   0  0  0  0  0  0
    1.9528   -3.2218    9.4681 C   0  0  0  0  0  0
    1.1660   -4.5657   10.0124 C   0  0  0  0  0  0
    0.7973   -5.4324    8.8095 C   0  0  0  0  0  0
    1.9445   -5.4484   11.0892 C   0  0  0  0  0  0
    1.3453   -6.7900   11.7672 C   0  0  0  0  0  0
    2.0475   -7.5094   12.9695 C   0  0  0  0  0  0
    3.5584   -7.9916   12.7858 C   0  0  0  0  0  0
    4.0382   -9.0078   11.6759 C   0  0  0  0  0  0
    3.2310  -10.3101   11.4313 C   0  0  0  0  0  0
    3.7974  -11.2964   10.3380 C   0  0  0  0  0  0
    5.1908  -11.8792   10.6052 C   0  0  0  0  0  0
    5.3484  -12.9169   11.7526 C   0  0  0  0  0  0
    6.7630  -13.3481   12.2409 C   0  0  0  0  0  0
    7.7325  -13.8276   11.1697 C   0  0  0  0  0  0
    7.3753  -12.2949   13.0729 N   0  0  0  0  0  0
    4.7290  -12.2888   12.9040 O   0  0  0  0  0  0
    2.8711  -12.3789   10.1973 O   0  0  0  0  0  0
    0.0513   -6.4073   12.2628 O   0  0  0  0  0  0
    3.1106   -2.0397    7.7226 O   0  0  0  0  0  0
    3.2160   -1.7316    6.4037 C   0  0  0  0  0  0
    3.0629   -2.4978    5.4715 O   0  0  0  0  0  0
    3.4554   -0.2523    6.2782 C   0  0  0  0  0  0
    3.8253    0.1664    4.8462 C   0  0  0  0  0  0
    3.3764    1.5958    4.5164 C   0  0  0  0  0  0
    4.0153    2.5970    5.4507 C   0  0  0  0  0  0
    3.7997    2.6323    6.6573 O   0  0  0  0  0  0
    4.8474    3.4486    4.8333 O   0  0  0  0  0  0
    5.3541    0.0623    4.7579 C   0  0  0  0  0  0
    6.0690   -0.1019    5.7348 O   0  0  0  0  0  0
    5.8484    0.2163    3.5218 O   0  0  0  0  0  0
    4.0608   -4.5921    6.2884 O   0  0  0  0  0  0
    3.5047   -5.7343    5.7368 C   0  0  0  0  0  0
    2.9656   -6.6262    6.3788 O   0  0  0  0  0  0
    3.6355   -5.7678    4.2084 C   0  0  0  0  0  0
    2.9543   -4.5902    3.4443 C   0  0  0  0  0  0
    3.1397   -4.5150    1.9177 C   0  0  0  0  0  0
    4.5583   -4.2362    1.5122 C   0  0  0  0  0  0
    5.5539   -4.7595    1.9934 O   0  0  0  0  0  0
    4.6410   -3.3372    0.5196 O   0  0  0  0  0  0
    1.4555   -4.4290    3.7269 C   0  0  0  0  0  0
    1.0236   -3.7236    4.6173 O   0  0  0  0  0  0
    0.6315   -5.0406    2.8505 O   0  0  0  0  0  0
    8.0156  -12.7253   13.7387 H   0  0  0  0  0  0
    6.6457  -11.8674   13.6478 H   0  0  0  0  0  0
    3.7701  -12.4599   12.7922 H   0  0  0  0  0  0
    1.9759  -12.0392   10.3812 H   0  0  0  0  0  0
   -0.4930   -6.1364   11.5047 H   0  0  0  0  0  0
    5.3097    4.0779    5.4195 H   0  0  0  0  0  0
    6.8303    0.3316    3.4842 H   0  0  0  0  0  0
    5.5930   -3.2415    0.3054 H   0  0  0  0  0  0
   -0.3140   -5.0748    3.1170 H   0  0  0  0  0  0
  1  2  1  0  0  0
  2  3  1  0  0  0
  3  4  1  0  0  0
  4  5  1  0  0  0
  5  6  1  0  0  0
  5  7  1  0  0  0
  7  8  1  0  0  0
  7 39  1  0  0  0
  8  9  1  0  0  0
  8 27  1  0  0  0
  9 10  1  0  0  0
 10 11  1  0  0  0
 10 12  1  0  0  0
 12 13  1  0  0  0
 13 14  1  0  0  0
 13 26  1  0  0  0
 14 15  1  0  0  0
 15 16  1  0  0  0
 16 17  1  0  0  0
 17 18  1  0  0  0
 18 19  1  0  0  0
 18 25  1  0  0  0
 19 20  1  0  0  0
 20 21  1  0  0  0
 20 24  1  0  0  0
 21 22  1  0  0  0
 21 23  1  0  0  0
 23 51  1  0  0  0
 23 52  1  0  0  0
 24 53  1  0  0  0
 25 54  1  0  0  0
 26 55  1  0  0  0
 27 28  1  0  0  0
 28 29  2  0  0  0
 28 30  1  0  0  0
 30 31  1  0  0  0
 31 32  1  0  0  0
 31 36  1  0  0  0
 32 33  1  0  0  0
 33 34  2  0  0  0
 33 35  1  0  0  0
 35 56  1  0  0  0
 36 37  2  0  0  0
 36 38  1  0  0  0
 38 57  1  0  0  0
 39 40  1  0  0  0
 40 41  2  0  0  0
 40 42  1  0  0  0
 42 43  1  0  0  0
 43 44  1  0  0  0
 43 48  1  0  0  0
 44 45  1  0  0  0
 45 46  2  0  0  0
 45 47  1  0  0  0
 47 58  1  0  0  0
 48 49  2  0  0  0
 48 50  1  0  0  0
 50 59  1  0  0  0
M  END
>  <AUTHOR>
    GENERATED BY OPEN BABEL 2.4.1

>  <CHROM.1>
-70.70604111,175.76410206,172.11361114,152.42394522,-67.40800002,130.67534315
-65.31906867,73.96187356,-23.93452956,179.01565634,-170.76511012,-57.20430453
62.09447754,-59.02705942,-46.19236181,-178.14776055,61.76989498,70.17071289
31.01809726,-168.87154226,-52.40034943,81.98458441,151.49504636,-5.69045431
170.30533160,150.29316345,59.88027646,-10.96662904,-64.63534006,-177.00965860
168.31057734,-5.87306059,-59.94198728,175.61550167,-66.53265689,90.63946587
43.69028094,-178.25858107,169.50008750,3.89706068,-5.25321687,7.63527582
-1.35478395,1.28462886,-0.81971495

>  <COMPND>
    UNNAMED

>  <MASTER>
        0    0    0    0    0    0    0    0  109    0  109    0

>  <Name>
FB1.pdb

>  <RI>
0

>  <Rbt.Current_Directory>
/cluster/tossine/FB1_39T3/p3/0_clust01

>  <Rbt.Executable>
rbdock/0.1.0

>  <Rbt.Library>
librxdock.so/0.1.0

>  <Rbt.Parameter_File>
/cluster/rxdock/data/scripts/dock.prm

>  <Rbt.Receptor>
rx_0.prm

>  <SCORE>
8.20107

>  <SCORE.INTER>
9.11537

>  <SCORE.INTER.CONST>
1

>  <SCORE.INTER.POLAR>
-1.18948

>  <SCORE.INTER.REPUL>
0.436254

>  <SCORE.INTER.ROT>
32

>  <SCORE.INTER.VDW>
-26.4217

>  <SCORE.INTER.norm>
0.182307

>  <SCORE.INTRA>
-0.914305

>  <SCORE.INTRA.DIHEDRAL>
-6.30686

>  <SCORE.INTRA.DIHEDRAL.0>
47.3121

>  <SCORE.INTRA.POLAR>
1.24577

>  <SCORE.INTRA.POLAR.0>
-1.47808

>  <SCORE.INTRA.REPUL>
0

>  <SCORE.INTRA.REPUL.0>
0

>  <SCORE.INTRA.VDW>
-1.9965

>  <SCORE.INTRA.VDW.0>
-2.78316

>  <SCORE.INTRA.norm>
-0.0182861

>  <SCORE.RESTR>
0

>  <SCORE.RESTR.CAVITY>
0

>  <SCORE.RESTR.norm>
0

>  <SCORE.SYSTEM>
0

>  <SCORE.SYSTEM.CONST>
0

>  <SCORE.SYSTEM.DIHEDRAL>
0

>  <SCORE.SYSTEM.norm>
0

>  <SCORE.heavy>
50

>  <SCORE.norm>
0.164021

$$$$
