FB1.pdb
  RxDock  10072000283D
librxdock.so/0.1.0
 59 58  0  0  0  0  0  0  0  0999 V2000
   -3.2851   -2.1132    7.8413 C   0  0  0  0  0  0
   -2.2193   -1.5464    8.7763 C   0  0  0  0  0  0
   -0.7991   -1.8679    8.2822 C   0  0  0  0  0  0
    0.0794   -2.5739    9.3449 C   0  0  0  0  0  0
    1.4810   -3.0552    8.8308 C   0  0  0  0  0  0
    2.4805   -2.9850   10.0084 C   0  0  0  0  0  0
    1.4568   -4.5080    8.1929 C   0  0  0  0  0  0
    2.5795   -4.8392    7.0994 C   0  0  0  0  0  0
    2.8817   -3.9667    5.8049 C   0  0  0  0  0  0
    1.6269   -3.8339    4.7423 C   0  0  0  0  0  0
    0.6597   -2.7725    5.2639 C   0  0  0  0  0  0
    2.0173   -3.5053    3.2309 C   0  0  0  0  0  0
    3.5252   -3.2011    2.7285 C   0  0  0  0  0  0
    3.8966   -3.0794    1.2109 C   0  0  0  0  0  0
    5.1003   -2.1139    0.8008 C   0  0  0  0  0  0
    5.1671   -0.5765    1.1564 C   0  0  0  0  0  0
    6.4601    0.2240    0.8488 C   0  0  0  0  0  0
    6.9552    0.2161   -0.6492 C   0  0  0  0  0  0
    5.8676    0.3287   -1.7248 C   0  0  0  0  0  0
    6.2823    0.8060   -3.1455 C   0  0  0  0  0  0
    5.3753    0.5092   -4.3762 C   0  0  0  0  0  0
    3.9272    0.9682   -4.2771 C   0  0  0  0  0  0
    5.9998    0.9991   -5.6197 N   0  0  0  0  0  0
    6.3236    2.2527   -3.0499 O   0  0  0  0  0  0
    7.8743    1.3010   -0.8164 O   0  0  0  0  0  0
    3.8539   -1.9231    3.2989 O   0  0  0  0  0  0
    3.8449   -4.8735    7.8136 O   0  0  0  0  0  0
    4.9137   -5.3868    7.1508 C   0  0  0  0  0  0
    4.8795   -6.0278    6.1176 O   0  0  0  0  0  0
    6.1672   -4.9440    7.8536 C   0  0  0  0  0  0
    7.0480   -6.1255    8.2904 C   0  0  0  0  0  0
    6.7471   -6.5862    9.7224 C   0  0  0  0  0  0
    5.3232   -7.0758    9.8497 C   0  0  0  0  0  0
    4.3491   -6.3311    9.8702 O   0  0  0  0  0  0
    5.2228   -8.4104    9.9370 O   0  0  0  0  0  0
    6.7523   -7.2606    7.3004 C   0  0  0  0  0  0
    5.8699   -8.0868    7.4772 O   0  0  0  0  0  0
    7.5765   -7.3023    6.2445 O   0  0  0  0  0  0
    1.3806   -5.5526    9.2431 O   0  0  0  0  0  0
    0.9434   -6.8169    8.8846 C   0  0  0  0  0  0
   -0.1019   -7.0502    8.2919 O   0  0  0  0  0  0
    1.9230   -7.9170    9.3141 C   0  0  0  0  0  0
    1.7504   -8.4465   10.7716 C   0  0  0  0  0  0
    1.9844   -9.9463   11.0288 C   0  0  0  0  0  0
    0.9625  -10.5502   11.9484 C   0  0  0  0  0  0
    1.1785  -10.9722   13.0762 O   0  0  0  0  0  0
   -0.2656  -10.5702   11.4085 O   0  0  0  0  0  0
    2.5501   -7.6754   11.8290 C   0  0  0  0  0  0
    3.6039   -8.0766   12.2822 O   0  0  0  0  0  0
    2.0617   -6.4596   12.1522 O   0  0  0  0  0  0
    5.4673    0.6568   -6.4183 H   0  0  0  0  0  0
    6.9222    0.5681   -5.7138 H   0  0  0  0  0  0
    7.0817    2.4392   -2.4566 H   0  0  0  0  0  0
    8.6092    0.9934   -1.3783 H   0  0  0  0  0  0
    4.4826   -2.0708    4.0252 H   0  0  0  0  0  0
    4.3131   -8.7552   10.0208 H   0  0  0  0  0  0
    7.4306   -8.0721    5.6405 H   0  0  0  0  0  0
   -0.1628  -10.3189   10.4663 H   0  0  0  0  0  0
    2.6541   -5.9026   12.7046 H   0  0  0  0  0  0
  1  2  1  0  0  0
  2  3  1  0  0  0
  3  4  1  0  0  0
  4  5  1  0  0  0
  5  6  1  0  0  0
  5  7  1  0  0  0
  7  8  1  0  0  0
  7 39  1  0  0  0
  8  9  1  0  0  0
  8 27  1  0  0  0
  9 10  1  0  0  0
 10 11  1  0  0  0
 10 12  1  0  0  0
 12 13  1  0  0  0
 13 14  1  0  0  0
 13 26  1  0  0  0
 14 15  1  0  0  0
 15 16  1  0  0  0
 16 17  1  0  0  0
 17 18  1  0  0  0
 18 19  1  0  0  0
 18 25  1  0  0  0
 19 20  1  0  0  0
 20 21  1  0  0  0
 20 24  1  0  0  0
 21 22  1  0  0  0
 21 23  1  0  0  0
 23 51  1  0  0  0
 23 52  1  0  0  0
 24 53  1  0  0  0
 25 54  1  0  0  0
 26 55  1  0  0  0
 27 28  1  0  0  0
 28 29  2  0  0  0
 28 30  1  0  0  0
 30 31  1  0  0  0
 31 32  1  0  0  0
 31 36  1  0  0  0
 32 33  1  0  0  0
 33 34  2  0  0  0
 33 35  1  0  0  0
 35 56  1  0  0  0
 36 37  2  0  0  0
 36 38  1  0  0  0
 38 57  1  0  0  0
 39 40  1  0  0  0
 40 41  2  0  0  0
 40 42  1  0  0  0
 42 43  1  0  0  0
 43 44  1  0  0  0
 43 48  1  0  0  0
 44 45  1  0  0  0
 45 46  2  0  0  0
 45 47  1  0  0  0
 47 58  1  0  0  0
 48 49  2  0  0  0
 48 50  1  0  0  0
 50 59  1  0  0  0
M  END
>  <AUTHOR>
    GENERATED BY OPEN BABEL 2.4.1

>  <CHROM.1>
-125.86887203,173.75746152,148.75442181,153.67676398,-53.00230952,160.43520872
-61.44587395,167.69156130,79.82953168,-4.45931296,171.29861025,149.70046544
106.61348175,-56.72222214,172.95986739,56.83472877,40.24595964,159.54119512
139.69033647,159.92200478,54.60102220,67.91558980,170.57804201,-13.64607561
123.31940203,-92.48684553,61.92497544,-89.79496216,-74.28249867,179.96166562
175.67963120,-52.98916802,85.71202033,143.38053941,-137.63099682,-100.45673590
-112.74375346,9.62414304,-169.58010594,3.46179873,-4.38401895,6.01726850
1.81923471,-0.40593504,2.24238056

>  <COMPND>
    UNNAMED

>  <MASTER>
        0    0    0    0    0    0    0    0  109    0  109    0

>  <Name>
FB1.pdb

>  <RI>
0

>  <Rbt.Current_Directory>
/cluster/tossine/FB1_39T3/p3/0_clust01

>  <Rbt.Executable>
rbdock/0.1.0

>  <Rbt.Library>
librxdock.so/0.1.0

>  <Rbt.Parameter_File>
/cluster/rxdock/data/scripts/dock.prm

>  <Rbt.Receptor>
rx_3.prm

>  <SCORE>
19.5601

>  <SCORE.INTER>
-2.08301

>  <SCORE.INTER.CONST>
1

>  <SCORE.INTER.POLAR>
-3.32232

>  <SCORE.INTER.REPUL>
0.119703

>  <SCORE.INTER.ROT>
32

>  <SCORE.INTER.VDW>
-28.7857

>  <SCORE.INTER.norm>
-0.0416603

>  <SCORE.INTRA>
21.6225

>  <SCORE.INTRA.DIHEDRAL>
36.8157

>  <SCORE.INTRA.DIHEDRAL.0>
47.3121

>  <SCORE.INTRA.POLAR>
1.10521

>  <SCORE.INTRA.POLAR.0>
-1.47808

>  <SCORE.INTRA.REPUL>
0

>  <SCORE.INTRA.REPUL.0>
0

>  <SCORE.INTRA.VDW>
-0.543085

>  <SCORE.INTRA.VDW.0>
-2.78316

>  <SCORE.INTRA.norm>
0.43245

>  <SCORE.RESTR>
0.0206095

>  <SCORE.RESTR.CAVITY>
0.0206095

>  <SCORE.RESTR.norm>
0.00041219

>  <SCORE.SYSTEM>
0

>  <SCORE.SYSTEM.CONST>
0

>  <SCORE.SYSTEM.DIHEDRAL>
0

>  <SCORE.SYSTEM.norm>
0

>  <SCORE.heavy>
50

>  <SCORE.norm>
0.391202

$$$$
