FB1.pdb
  RxDock  09132010413D
librxdock.so/0.1.0
 59 58  0  0  0  0  0  0  0  0999 V2000
    2.5626   -7.9361   12.9039 C   0  0  0  0  0  0
    1.5072   -7.7615   11.8145 C   0  0  0  0  0  0
    0.9503   -6.3285   11.7856 C   0  0  0  0  0  0
    0.0147   -6.0537   10.5820 C   0  0  0  0  0  0
   -0.5069   -4.5784   10.4729 C   0  0  0  0  0  0
   -0.9777   -4.1250   11.8742 C   0  0  0  0  0  0
    0.5654   -3.5698    9.8807 C   0  0  0  0  0  0
    0.0397   -2.1162    9.4599 C   0  0  0  0  0  0
    0.6383   -1.2325    8.2814 C   0  0  0  0  0  0
    2.2644   -1.3850    8.0492 C   0  0  0  0  0  0
    2.5157   -2.6045    7.1639 C   0  0  0  0  0  0
    3.0091   -0.1152    7.4345 C   0  0  0  0  0  0
    4.2088   -0.2025    6.3521 C   0  0  0  0  0  0
    4.3462    0.8131    5.1665 C   0  0  0  0  0  0
    5.2611    0.4062    3.9229 C   0  0  0  0  0  0
    5.2847    1.1800    2.5462 C   0  0  0  0  0  0
    5.9910    0.5404    1.3216 C   0  0  0  0  0  0
    5.7847    1.2600   -0.0672 C   0  0  0  0  0  0
    6.4170    0.5775   -1.2866 C   0  0  0  0  0  0
    6.0817   -0.9178   -1.5510 C   0  0  0  0  0  0
    6.3245   -1.5470   -2.9548 C   0  0  0  0  0  0
    5.6874   -2.9063   -3.2073 C   0  0  0  0  0  0
    5.9755   -0.5939   -4.0254 N   0  0  0  0  0  0
    6.9520   -1.6539   -0.6540 O   0  0  0  0  0  0
    4.3767    1.3848   -0.2952 O   0  0  0  0  0  0
    5.4129   -0.0460    7.1217 O   0  0  0  0  0  0
   -1.3627   -2.2760    9.1132 O   0  0  0  0  0  0
   -1.6478   -3.0623    8.0429 C   0  0  0  0  0  0
   -1.2046   -4.1746    7.8289 O   0  0  0  0  0  0
   -2.6889   -2.3697    7.2074 C   0  0  0  0  0  0
   -4.1126   -2.5742    7.7494 C   0  0  0  0  0  0
   -4.6932   -1.2993    8.3746 C   0  0  0  0  0  0
   -4.5649   -0.1237    7.4340 C   0  0  0  0  0  0
   -5.4603    0.2434    6.6809 O   0  0  0  0  0  0
   -3.3724    0.4866    7.5011 O   0  0  0  0  0  0
   -4.9640   -3.0043    6.5468 C   0  0  0  0  0  0
   -5.4833   -4.1064    6.4573 O   0  0  0  0  0  0
   -5.0518   -2.0860    5.5747 O   0  0  0  0  0  0
    1.7665   -3.4953   10.7477 O   0  0  0  0  0  0
    2.7472   -4.4619   10.5996 C   0  0  0  0  0  0
    3.4837   -4.8500   11.4970 O   0  0  0  0  0  0
    2.8171   -5.0081    9.1674 C   0  0  0  0  0  0
    4.2520   -5.2113    8.5892 C   0  0  0  0  0  0
    5.4117   -4.4383    9.2435 C   0  0  0  0  0  0
    5.6884   -3.1214    8.5775 C   0  0  0  0  0  0
    6.4100   -2.9517    7.6043 O   0  0  0  0  0  0
    5.0315   -2.1051    9.1571 O   0  0  0  0  0  0
    4.6918   -6.6762    8.4747 C   0  0  0  0  0  0
    4.9791   -7.1985    7.4158 O   0  0  0  0  0  0
    4.8449   -7.3284    9.6462 O   0  0  0  0  0  0
    6.6839    0.1376   -4.0654 H   0  0  0  0  0  0
    5.1128   -0.1111   -3.7644 H   0  0  0  0  0  0
    7.8517   -1.5235   -1.0211 H   0  0  0  0  0  0
    3.9907    0.4896   -0.3114 H   0  0  0  0  0  0
    5.4885   -0.8080    7.7201 H   0  0  0  0  0  0
   -3.2810    1.2847    6.9460 H   0  0  0  0  0  0
   -5.5851   -2.3685    4.7907 H   0  0  0  0  0  0
    4.6330   -2.4603    9.9795 H   0  0  0  0  0  0
    4.6178   -6.8084   10.4489 H   0  0  0  0  0  0
  1  2  1  0  0  0
  2  3  1  0  0  0
  3  4  1  0  0  0
  4  5  1  0  0  0
  5  6  1  0  0  0
  5  7  1  0  0  0
  7  8  1  0  0  0
  7 39  1  0  0  0
  8  9  1  0  0  0
  8 27  1  0  0  0
  9 10  1  0  0  0
 10 11  1  0  0  0
 10 12  1  0  0  0
 12 13  1  0  0  0
 13 14  1  0  0  0
 13 26  1  0  0  0
 14 15  1  0  0  0
 15 16  1  0  0  0
 16 17  1  0  0  0
 17 18  1  0  0  0
 18 19  1  0  0  0
 18 25  1  0  0  0
 19 20  1  0  0  0
 20 21  1  0  0  0
 20 24  1  0  0  0
 21 22  1  0  0  0
 21 23  1  0  0  0
 23 51  1  0  0  0
 23 52  1  0  0  0
 24 53  1  0  0  0
 25 54  1  0  0  0
 26 55  1  0  0  0
 27 28  1  0  0  0
 28 29  2  0  0  0
 28 30  1  0  0  0
 30 31  1  0  0  0
 31 32  1  0  0  0
 31 36  1  0  0  0
 32 33  1  0  0  0
 33 34  2  0  0  0
 33 35  1  0  0  0
 35 56  1  0  0  0
 36 37  2  0  0  0
 36 38  1  0  0  0
 38 57  1  0  0  0
 39 40  1  0  0  0
 40 41  2  0  0  0
 40 42  1  0  0  0
 42 43  1  0  0  0
 43 44  1  0  0  0
 43 48  1  0  0  0
 44 45  1  0  0  0
 45 46  2  0  0  0
 45 47  1  0  0  0
 47 58  1  0  0  0
 48 49  2  0  0  0
 48 50  1  0  0  0
 50 59  1  0  0  0
M  END
>  <AUTHOR>
    GENERATED BY OPEN BABEL 2.4.1

>  <CHROM.1>
172.47648227,-176.62146767,-45.75295477,168.14787812,-148.80010739,83.20915380
-33.94814241,-63.90094063,84.19510941,-141.64273961,141.58897243,-161.63506121
64.79067924,167.79757879,-167.89628255,170.85530122,-176.53969173,53.39597656
-60.24302210,161.64014339,-166.80007396,-69.63324578,72.66854523,48.32018520
-81.60026561,108.52923048,51.16350891,114.80095558,95.56277565,-176.23809817
178.82439364,-150.43515681,137.73804654,-20.47340659,-92.54447350,119.01963337
-86.01198956,8.89189358,2.73317370,1.98107476,-2.60488910,6.59255949,-2.12887702
0.22867595,-1.07242430

>  <COMPND>
    UNNAMED

>  <MASTER>
        0    0    0    0    0    0    0    0  109    0  109    0

>  <Name>
FB1.pdb

>  <RI>
0

>  <Rbt.Current_Directory>
/home/fc/tossine/FB1_39T3/p3/0_clust01

>  <Rbt.Executable>
rbdock/0.1.0

>  <Rbt.Library>
librxdock.so/0.1.0

>  <Rbt.Parameter_File>
/cluster/rxdock/data/scripts/dock.prm

>  <Rbt.Receptor>
rx_1.prm

>  <SCORE>
17.8966

>  <SCORE.INTER>
2.34694

>  <SCORE.INTER.CONST>
1

>  <SCORE.INTER.POLAR>
-2.35498

>  <SCORE.INTER.REPUL>
0.294325

>  <SCORE.INTER.ROT>
32

>  <SCORE.INTER.VDW>
-28.5178

>  <SCORE.INTER.norm>
0.0469389

>  <SCORE.INTRA>
13.3698

>  <SCORE.INTRA.DIHEDRAL>
19.0863

>  <SCORE.INTRA.DIHEDRAL.0>
47.3121

>  <SCORE.INTRA.POLAR>
0.478077

>  <SCORE.INTRA.POLAR.0>
-1.47808

>  <SCORE.INTRA.REPUL>
0.00615464

>  <SCORE.INTRA.REPUL.0>
0

>  <SCORE.INTRA.VDW>
2.17043

>  <SCORE.INTRA.VDW.0>
-2.78316

>  <SCORE.INTRA.norm>
0.267396

>  <SCORE.RESTR>
2.17982

>  <SCORE.RESTR.CAVITY>
2.17982

>  <SCORE.RESTR.norm>
0.0435965

>  <SCORE.SYSTEM>
0

>  <SCORE.SYSTEM.CONST>
0

>  <SCORE.SYSTEM.DIHEDRAL>
0

>  <SCORE.SYSTEM.norm>
0

>  <SCORE.heavy>
50

>  <SCORE.norm>
0.357931

$$$$
