@<TRIPOS>MOLECULE
dna.pdb
 1573 1756 0 0 0
SMALL
GASTEIGER

@<TRIPOS>ATOM
      1  O5'       11.6260    2.9750    6.2200 O.3     1  DA1        -0.2176
      2  C5'       11.2540    1.6100    6.2940 C.3     1  DA1         0.2140
      3  C4'        9.8010    1.4210    5.9300 C.3     1  DA1         0.1776
      4  O4'        8.9550    1.8050    7.0430 O.3     1  DA1        -0.3326
      5  C3'        9.2970    2.2430    4.7560 C.3     1  DA1         0.1559
      6  O3'        9.6070    1.6170    3.5270 O.3     1  DA1        -0.3138
      7  C2'        7.8050    2.3140    5.0440 C.3     1  DA1         0.0865
      8  C1'        7.7790    2.4240    6.5690 C.3     1  DA1         0.2094
      9  N9         7.8260    3.7790    7.1200 N.ar    1  DA1        -0.2714
     10  C8         8.9330    4.5710    7.2840 C.ar    1  DA1         0.1815
     11  N7         8.6520    5.8150    7.5950 N.ar    1  DA1        -0.2193
     12  C5         7.2670    5.8410    7.6370 C.ar    1  DA1         0.1518
     13  C6         6.3490    6.8700    7.9130 C.ar    1  DA1         0.1919
     14  N6         6.7070    8.1210    8.2100 N.pl3   1  DA1        -0.1054
     15  N1         5.0340    6.5640    7.8710 N.ar    1  DA1        -0.2040
     16  C2         4.6760    5.3090    7.5730 C.ar    1  DA1         0.2016
     17  N3         5.4450    4.2580    7.2970 N.ar    1  DA1        -0.2048
     18  C4         6.7450    4.5960    7.3460 C.ar    1  DA1         0.1691
     19  P          9.2830    2.2420    2.0810 P.3     2  DT2         0.2141
     20  OP1        8.9920    3.6040    1.5850 O.2     2  DT2        -0.5172
     21  OP2        8.0760    1.6730    2.7430 O.3     2  DT2        -0.4373
     22  O5'        9.8020    1.1200    1.0170 O.3     2  DT2        -0.3114
     23  C5'       11.2530    1.2450    0.8770 C.3     2  DT2         0.1811
     24  C4'       11.7660   -0.1400    0.6300 C.3     2  DT2         0.1746
     25  O4'       11.6950   -0.9820    1.7400 O.3     2  DT2        -0.3327
     26  C3'       11.0800   -0.9400   -0.4870 C.3     2  DT2         0.1558
     27  O3'       11.4820   -0.4530   -1.7600 O.3     2  DT2        -0.3138
     28  C2'       11.7050   -2.3230   -0.2210 C.3     2  DT2         0.0866
     29  C1'       11.6490   -2.3450    1.2580 C.3     2  DT2         0.2106
     30  N1        10.6580   -3.1320    1.8360 N.ar    2  DT2        -0.2559
     31  C2        10.7730   -4.5080    1.7760 C.ar    2  DT2         0.3545
     32  O2        11.7650   -5.0740    1.3530 O.2     2  DT2        -0.2443
     33  N3         9.6780   -5.2020    2.2310 N.ar    2  DT2        -0.1533
     34  C4         8.5070   -4.6710    2.7280 C.ar    2  DT2         0.2804
     35  O4         7.6100   -5.4240    3.1000 O.2     2  DT2        -0.2654
     36  C5         8.4640   -3.2360    2.7570 C.ar    2  DT2         0.0534
     37  C6         9.5150   -2.5360    2.3210 C.ar    2  DT2         0.0824
     38  C7         7.2310   -2.5620    3.2810 C.3     2  DT2         0.0377
     39  P         10.4160   -0.5800   -2.9240 P.3     3  DA3         0.2141
     40  OP1       10.7330   -0.2140   -4.3160 O.2     3  DA3        -0.5172
     41  OP2        9.0070   -0.7340   -2.5050 O.3     3  DA3        -0.4373
     42  O5'       11.2000   -1.9250   -2.6840 O.3     3  DA3        -0.3114
     43  C5'       12.2620   -2.1540   -3.5330 C.3     3  DA3         0.1811
     44  C4'       12.2680   -3.6360   -3.8340 C.3     3  DA3         0.1746
     45  O4'       12.2190   -4.3960   -2.6020 O.3     3  DA3        -0.3327
     46  C3'       11.0550   -4.1310   -4.5860 C.3     3  DA3         0.1558
     47  O3'       11.2370   -3.7880   -5.9450 O.3     3  DA3        -0.3138
     48  C2'       11.2020   -5.6260   -4.3120 C.3     3  DA3         0.0865
     49  C1'       11.6180   -5.6500   -2.8470 C.3     3  DA3         0.2094
     50  N9        10.3680   -5.6380   -1.8970 N.ar    3  DA3        -0.2714
     51  C8         9.6970   -4.6010   -1.3020 C.ar    3  DA3         0.1815
     52  N7         8.6310   -4.9750   -0.6350 N.ar    3  DA3        -0.2193
     53  C5         8.6000   -6.3500   -0.8030 C.ar    3  DA3         0.1518
     54  C6         7.7140   -7.3390   -0.3420 C.ar    3  DA3         0.1919
     55  N6         6.6460   -7.0800    0.4170 N.pl3   3  DA3        -0.1054
     56  N1         7.9670   -8.6190   -0.6910 N.ar    3  DA3        -0.2040
     57  C2         9.0380   -8.8780   -1.4500 C.ar    3  DA3         0.2016
     58  N3         9.9420   -8.0350   -1.9430 N.ar    3  DA3        -0.2048
     59  C4         9.6620   -6.7720   -1.5800 C.ar    3  DA3         0.1691
     60  P         10.0400   -4.0250   -7.0060 P.3     4  DC4         0.2141
     61  OP1       11.0700   -3.0760   -7.5240 O.2     4  DC4        -0.5172
     62  OP2        8.7660   -3.5000   -6.4500 O.3     4  DC4        -0.4373
     63  O5'        9.5830   -4.9810   -8.1940 O.3     4  DC4        -0.3114
     64  C5'        9.9950   -6.3410   -8.2290 C.3     4  DC4         0.1811
     65  C4'        8.8020   -7.2620   -8.2100 C.3     4  DC4         0.1746
     66  O4'        8.7170   -7.9600   -6.9450 O.3     4  DC4        -0.3327
     67  C3'        7.4310   -6.6400   -8.4230 C.3     4  DC4         0.1558
     68  O3'        7.2050   -6.5540   -9.8090 O.3     4  DC4        -0.3138
     69  C2'        6.5270   -7.6990   -7.8290 C.3     4  DC4         0.0866
     70  C1'        7.3610   -8.2160   -6.6520 C.3     4  DC4         0.2106
     71  N1         6.9220   -7.7160   -5.3800 N.ar    4  DC4        -0.2556
     72  C2         5.8360   -8.3130   -4.7290 C.ar    4  DC4         0.3531
     73  O2         5.3330   -9.3370   -5.2220 O.2     4  DC4        -0.2443
     74  N3         5.3670   -7.7590   -3.5850 N.ar    4  DC4        -0.1739
     75  C4         5.9380   -6.6590   -3.0930 C.ar    4  DC4         0.1759
     76  N4         5.4410   -6.1490   -1.9640 N.pl3   4  DC4        -0.1070
     77  C5         7.0390   -6.0390   -3.7380 C.ar    4  DC4         0.0566
     78  C6         7.4990   -6.5890   -4.8670 C.ar    4  DC4         0.0849
     79  P          6.0490   -5.4890  -10.4500 P.3     5  DC5         0.2141
     80  OP1        6.1320   -5.0040  -11.8540 O.2     5  DC5        -0.5172
     81  OP2        6.5180   -4.6390   -9.3180 O.3     5  DC5        -0.4373
     82  O5'        4.5390   -5.9680  -10.1760 O.3     5  DC5        -0.3114
     83  C5'        3.9800   -6.9620  -11.0370 C.3     5  DC5         0.1811
     84  C4'        2.6520   -7.4750  -10.5350 C.3     5  DC5         0.1746
     85  O4'        2.7640   -7.9870   -9.1920 O.3     5  DC5        -0.3327
     86  C3'        1.6170   -6.3890  -10.4260 C.3     5  DC5         0.1558
     87  O3'        0.9640   -6.2320  -11.6430 O.3     5  DC5        -0.3138
     88  C2'        0.6590   -6.9550   -9.3940 C.3     5  DC5         0.0866
     89  C1'        1.5960   -7.6890   -8.4580 C.3     5  DC5         0.2106
     90  N1         1.9850   -6.8500   -7.2960 N.ar    5  DC5        -0.2556
     91  C2         1.1480   -6.8440   -6.1740 C.ar    5  DC5         0.3531
     92  O2         0.1270   -7.5540   -6.1850 O.2     5  DC5        -0.2443
     93  N3         1.4720   -6.0660   -5.1140 N.ar    5  DC5        -0.1739
     94  C4         2.5760   -5.3200   -5.1460 C.ar    5  DC5         0.1759
     95  N4         2.8550   -4.5690   -4.0780 N.pl3   5  DC5        -0.1070
     96  C5         3.4380   -5.3120   -6.2730 C.ar    5  DC5         0.0566
     97  C6         3.1140   -6.0820   -7.3180 C.ar    5  DC5         0.0849
     98  P          0.4990   -4.9460  -11.7480 P.3     6  DA6         0.2141
     99  OP1        0.1470   -4.7100  -13.1680 O.2     6  DA6        -0.5172
    100  OP2        1.1850   -3.8760  -10.9910 O.3     6  DA6        -0.4373
    101  O5'       -0.8620   -5.3660  -11.0840 O.3     6  DA6        -0.3114
    102  C5'       -1.1600   -4.6850   -9.9620 C.3     6  DA6         0.1811
    103  C4'       -2.5750   -4.9430   -9.5760 C.3     6  DA6         0.1746
    104  O4'       -2.4710   -5.6020   -8.3080 O.3     6  DA6        -0.3327
    105  C3'       -3.1250   -3.5700   -9.2860 C.3     6  DA6         0.1558
    106  O3'       -4.0160   -3.1560  -10.3080 O.3     6  DA6        -0.3138
    107  C2'       -3.6160   -3.6180   -7.8350 C.3     6  DA6         0.0865
    108  C1'       -2.6810   -4.6670   -7.2420 C.3     6  DA6         0.2094
    109  N9        -1.3380   -4.2330   -6.7140 N.ar    6  DA6        -0.2714
    110  C8        -0.1230   -4.0670   -7.3260 C.ar    6  DA6         0.1815
    111  N7         0.6980   -3.2840   -6.6670 N.ar    6  DA6        -0.2193
    112  C5        -0.0270   -2.9100   -5.5460 C.ar    6  DA6         0.1518
    113  C6         0.2830   -2.0860   -4.4500 C.ar    6  DA6         0.1919
    114  N6         1.4560   -1.4660   -4.3000 N.pl3   6  DA6        -0.1054
    115  N1        -0.6650   -1.9200   -3.5030 N.ar    6  DA6        -0.2040
    116  C2        -1.8390   -2.5430   -3.6540 C.ar    6  DA6         0.2016
    117  N3        -2.2470   -3.3420   -4.6370 N.ar    6  DA6        -0.2048
    118  C4        -1.2830   -3.4860   -5.5620 C.ar    6  DA6         0.1691
    119  P         -3.8340   -1.7830  -10.9210 P.3     7  DG7         0.2141
    120  OP1       -4.8710   -1.6800  -11.9710 O.2     7  DG7        -0.5172
    121  OP2       -2.4040   -1.5530  -11.2680 O.3     7  DG7        -0.4373
    122  O5'       -4.2190   -0.7760   -9.7460 O.3     7  DG7        -0.3114
    123  C5'       -5.5810   -0.5850   -9.3670 C.3     7  DG7         0.1811
    124  C4'       -5.6760    0.0780   -8.0090 C.3     7  DG7         0.1746
    125  O4'       -4.6680   -0.4820   -7.1220 O.3     7  DG7        -0.3327
    126  C3'       -5.4180    1.5740   -7.9060 C.3     7  DG7         0.1558
    127  O3'       -6.5600    2.3330   -8.3040 O.3     7  DG7        -0.3138
    128  C2'       -5.1740    1.7170   -6.4110 C.3     7  DG7         0.0865
    129  C1'       -4.3320    0.4730   -6.1320 C.3     7  DG7         0.2094
    130  N9        -2.9150    0.7860   -6.2550 N.ar    7  DG7        -0.2713
    131  C8        -2.0130    0.2010   -7.1110 C.ar    7  DG7         0.1816
    132  N7        -0.7820    0.5800   -6.8980 N.ar    7  DG7        -0.2173
    133  C5        -0.8730    1.4640   -5.8400 C.ar    7  DG7         0.1748
    134  C6         0.1330    2.2020   -5.1650 C.ar    7  DG7         0.3023
    135  O6         1.3510    2.2140   -5.3830 O.2     7  DG7        -0.2633
    136  N1        -0.3940    2.9870   -4.1430 N.ar    7  DG7        -0.1709
    137  C2        -1.7260    3.0520   -3.8120 C.ar    7  DG7         0.2606
    138  N2        -2.0440    3.8650   -2.7950 N.pl3   7  DG7        -0.0859
    139  N3        -2.6720    2.3740   -4.4310 N.ar    7  DG7        -0.1918
    140  C4        -2.1840    1.6050   -5.4270 C.ar    7  DG7         0.1722
    141  P         -6.3780    3.6460   -8.7240 P.3     8  DC8         0.2141
    142  OP1       -7.7990    3.8080   -9.1360 O.3     8  DC8        -0.4373
    143  OP2       -5.3070    3.6410   -9.7580 O.2     8  DC8        -0.5172
    144  O5'       -6.0410    4.7760   -7.6510 O.3     8  DC8        -0.3114
    145  C5'       -7.0160    5.1700   -6.6690 C.3     8  DC8         0.1811
    146  C4'       -6.4580    6.2530   -5.7800 C.3     8  DC8         0.1746
    147  O4'       -5.3280    5.7280   -5.0400 O.3     8  DC8        -0.3327
    148  C3'       -5.9200    7.4920   -6.4810 C.3     8  DC8         0.1558
    149  O3'       -6.9570    8.4310   -6.7560 O.3     8  DC8        -0.3138
    150  C2'       -4.9150    8.0420   -5.4750 C.3     8  DC8         0.0866
    151  C1'       -4.3820    6.7620   -4.8220 C.3     8  DC8         0.2106
    152  N1        -3.0640    6.2810   -5.2470 N.ar    8  DC8        -0.2556
    153  C2        -1.8990    6.8320   -4.7000 C.ar    8  DC8         0.3531
    154  O2        -2.0060    7.7190   -3.8360 O.2     8  DC8        -0.2443
    155  N3        -0.6940    6.3850   -5.1270 N.ar    8  DC8        -0.1739
    156  C4        -0.6280    5.4320   -6.0570 C.ar    8  DC8         0.1759
    157  N4         0.5810    5.0230   -6.4470 N.pl3   8  DC8        -0.1070
    158  C5        -1.7960    4.8610   -6.6240 C.ar    8  DC8         0.0566
    159  C6        -2.9840    5.3050   -6.1990 C.ar    8  DC8         0.0849
    160  P         -6.7800    9.5750   -8.0040 P.3     9  DT9         0.2141
    161  OP1       -8.0160   10.4020   -8.1600 O.3     9  DT9        -0.4373
    162  OP2       -6.1390    8.9660   -9.2090 O.2     9  DT9        -0.5172
    163  O5'       -5.6940   10.3940   -7.1590 O.3     9  DT9        -0.3114
    164  C5'       -6.0250   10.9390   -5.8790 C.3     9  DT9         0.1811
    165  C4'       -4.8980   11.7860   -5.3480 C.3     9  DT9         0.1746
    166  O4'       -3.8850   10.9480   -4.7510 O.3     9  DT9        -0.3327
    167  C3'       -4.1430   12.6420   -6.3430 C.3     9  DT9         0.1558
    168  O3'       -4.8230   13.8530   -6.6280 O.3     9  DT9        -0.3138
    169  C2'       -2.8250   12.8860   -5.6200 C.3     9  DT9         0.0866
    170  C1'       -2.6140   11.5640   -4.8860 C.3     9  DT9         0.2106
    171  N1        -1.6680   10.6070   -5.7030 N.ar    9  DT9        -0.2559
    172  C2        -0.3160   10.8320   -5.5230 C.ar    9  DT9         0.3545
    173  O2         0.1200   11.7370   -4.8330 O.2     9  DT9        -0.2443
    174  N3         0.5120    9.9570   -6.1840 N.ar    9  DT9        -0.1533
    175  C4         0.1330    8.9030   -6.9880 C.ar    9  DT9         0.2804
    176  O4         0.9950    8.2030   -7.5140 O.2     9  DT9        -0.2654
    177  C5        -1.2870    8.7350   -7.1260 C.ar    9  DT9         0.0534
    178  C6        -2.1150    9.5710   -6.4950 C.ar    9  DT9         0.0824
    179  C7        -1.8000    7.6150   -7.9820 C.3     9  DT9         0.0377
    180  P         -4.8380   14.5760   -8.2850 P.3    10  DT10        0.2141
    181  OP1       -5.9980   15.4030   -7.8680 O.3    10  DT10       -0.4373
    182  OP2       -5.0740   13.2720   -8.9540 O.2    10  DT10       -0.5172
    183  O5'       -3.8880   15.4590   -9.2120 O.3    10  DT10       -0.3114
    184  C5'       -3.1040   16.5080   -8.6460 C.3    10  DT10        0.1811
    185  C4'       -1.9310   16.8410   -9.5400 C.3    10  DT10        0.1746
    186  O4'       -1.0550   15.6900   -9.6700 O.3    10  DT10       -0.3327
    187  C3'       -2.2750   17.1940  -10.9740 C.3    10  DT10        0.1558
    188  O3'       -2.6770   18.5520  -11.0760 O.3    10  DT10       -0.3138
    189  C2'       -0.9530   16.9390  -11.6910 C.3    10  DT10        0.0866
    190  C1'       -0.4300   15.7090  -10.9430 C.3    10  DT10        0.2106
    191  N1        -0.6820   14.4750  -11.6580 N.ar   10  DT10       -0.2559
    192  C2         0.1010   14.1380  -12.7460 C.ar   10  DT10        0.3545
    193  O2         1.0500   14.8080  -13.1150 O.2    10  DT10       -0.2443
    194  N3        -0.2670   12.9820  -13.3910 N.ar   10  DT10       -0.1533
    195  C4        -1.3170   12.1490  -13.0660 C.ar   10  DT10        0.2804
    196  O4        -1.5230   11.1430  -13.7410 O.2    10  DT10       -0.2654
    197  C5        -2.0830   12.5670  -11.9260 C.ar   10  DT10        0.0534
    198  C6        -1.7470   13.6870  -11.2800 C.ar   10  DT10        0.0824
    199  C7        -3.2470   11.7260  -11.4930 C.3    10  DT10        0.0377
    200  P         -3.1100   19.0700  -12.5210 P.3    11  DA11        0.2141
    201  OP1       -3.6220   20.4560  -12.4470 O.3    11  DA11       -0.4373
    202  OP2       -4.0380   17.9360  -12.7260 O.2    11  DA11       -0.5172
    203  O5'       -2.0190   18.9780  -13.6840 O.3    11  DA11       -0.3114
    204  C5'       -1.0070   19.9820  -13.7840 C.3    11  DA11        0.1811
    205  C4'        0.0870   19.5720  -14.7530 C.3    11  DA11        0.1746
    206  O4'        0.5360   18.2310  -14.4430 O.3    11  DA11       -0.3327
    207  C3'       -0.3330   19.5110  -16.2160 C.3    11  DA11        0.1558
    208  O3'       -0.2380   20.7930  -16.8300 O.3    11  DA11       -0.3138
    209  C2'        0.6600   18.5050  -16.7900 C.3    11  DA11        0.0865
    210  C1'        0.7590   17.5080  -15.6420 C.3    11  DA11        0.2094
    211  N9        -0.1400   16.3790  -15.6900 N.ar   11  DA11       -0.2714
    212  C8        -1.3200   16.2140  -15.0120 C.ar   11  DA11        0.1815
    213  N7        -1.9530   15.1060  -15.3150 N.ar   11  DA11       -0.2193
    214  C5        -1.1350   14.5020  -16.2560 C.ar   11  DA11        0.1518
    215  C6        -1.2450   13.2970  -16.9720 C.ar   11  DA11        0.1919
    216  N6        -2.2680   12.4500  -16.8400 N.pl3  11  DA11       -0.1054
    217  N1        -0.2540   12.9890  -17.8360 N.ar   11  DA11       -0.2040
    218  C2         0.7720   13.8380  -17.9660 C.ar   11  DA11        0.2016
    219  N3         0.9860   14.9980  -17.3500 N.ar   11  DA11       -0.2048
    220  C4        -0.0150   15.2750  -16.4990 C.ar   11  DA11        0.1691
    221  P         -1.5000   21.4040  -17.8330 P.3    12  DT12        0.2141
    222  OP1       -1.3920   22.8540  -17.8930 O.2    12  DT12       -0.5172
    223  OP2       -2.6890   20.6480  -17.4540 O.3    12  DT12       -0.4373
    224  O5'       -0.9590   20.6020  -19.0670 O.3    12  DT12       -0.3114
    225  C5'        0.3900   20.7210  -19.4170 C.3    12  DT12        0.1811
    226  C4'        0.6640   19.5850  -20.3810 C.3    12  DT12        0.1746
    227  O4'        0.4980   18.4380  -19.5500 O.3    12  DT12       -0.3327
    228  C3'       -0.3090   19.2600  -21.5240 C.3    12  DT12        0.1558
    229  O3'       -0.1230   19.9850  -22.7810 O.3    12  DT12       -0.3138
    230  C2'        0.1580   17.8650  -21.7850 C.3    12  DT12        0.0866
    231  C1'        0.2100   17.3250  -20.3990 C.3    12  DT12        0.2106
    232  N1        -0.9760   16.6700  -20.0150 N.ar   12  DT12       -0.2559
    233  C2        -1.3460   15.4390  -20.5230 C.ar   12  DT12        0.3545
    234  O2        -0.7020   14.8510  -21.3730 O.2    12  DT12       -0.2443
    235  N3        -2.5050   14.9190  -19.9990 N.ar   12  DT12       -0.1533
    236  C4        -3.3120   15.4920  -19.0390 C.ar   12  DT12        0.2804
    237  O4        -4.3230   14.9020  -18.6680 O.2    12  DT12       -0.2654
    238  C5        -2.8610   16.7690  -18.5620 C.ar   12  DT12        0.0534
    239  C6        -1.7380   17.2990  -19.0540 C.ar   12  DT12        0.0824
    240  C7        -3.6720   17.4740  -17.5160 C.3    12  DT12        0.0377
    241  P         -1.3480   20.4790  -23.7070 P.3    13  DT13        0.2141
    242  OP1       -1.1320   21.6920  -24.5300 O.2    13  DT13       -0.5172
    243  OP2       -2.6560   20.2010  -23.0640 O.3    13  DT13       -0.4373
    244  O5'       -1.0270   19.1600  -24.5620 O.3    13  DT13       -0.3114
    245  C5'        0.2730   19.0010  -25.1170 C.3    13  DT13        0.1811
    246  C4'        0.6170   17.5620  -25.4260 C.3    13  DT13        0.1746
    247  O4'        0.6860   16.7860  -24.2000 O.3    13  DT13       -0.3327
    248  C3'       -0.3730   16.7830  -26.2800 C.3    13  DT13        0.1558
    249  O3'       -0.3270   17.0870  -27.6640 O.3    13  DT13       -0.3138
    250  C2'        0.0150   15.3510  -25.9600 C.3    13  DT13        0.0866
    251  C1'        0.2590   15.4630  -24.4540 C.3    13  DT13        0.2106
    252  N1        -1.0380   15.1630  -23.6820 N.ar   13  DT13       -0.2559
    253  C2        -1.5110   13.8690  -23.5790 C.ar   13  DT13        0.3545
    254  O2        -1.0480   12.9400  -24.2150 O.2    13  DT13       -0.2443
    255  N3        -2.5530   13.7000  -22.6990 N.ar   13  DT13       -0.1533
    256  C4        -3.1560   14.6740  -21.9300 C.ar   13  DT13        0.2804
    257  O4        -4.0830   14.3670  -21.1840 O.2    13  DT13       -0.2654
    258  C5        -2.6090   15.9910  -22.0940 C.ar   13  DT13        0.0534
    259  C6        -1.5960   16.1840  -22.9430 C.ar   13  DT13        0.0824
    260  C7        -3.1980   17.1200  -21.3000 C.3    13  DT13        0.0377
    261  P         -1.6760   17.4520  -28.2530 P.3    14  DC14        0.2141
    262  OP1       -1.4780   18.1000  -29.5710 O.2    14  DC14       -0.5172
    263  OP2       -2.8580   17.7920  -27.4360 O.3    14  DC14       -0.4373
    264  O5'       -1.7060   15.8740  -28.4460 O.3    14  DC14       -0.3114
    265  C5'       -0.8210   15.2340  -29.3600 C.3    14  DC14        0.1811
    266  C4'       -1.1270   13.7480  -29.4410 C.3    14  DC14        0.1746
    267  O4'       -1.0300   13.1900  -28.0980 O.3    14  DC14       -0.3327
    268  C3'       -2.5340   13.3530  -29.9060 C.3    14  DC14        0.1558
    269  O3'       -2.6900   13.2810  -31.3390 O.3    14  DC14       -0.3138
    270  C2'       -2.6980   11.9690  -29.2890 C.3    14  DC14        0.0866
    271  C1'       -1.9860   12.1530  -27.9460 C.3    14  DC14        0.2106
    272  N1        -2.9090   12.4550  -26.8460 N.ar   14  DC14       -0.2556
    273  C2        -3.5290   11.3860  -26.1870 C.ar   14  DC14        0.3531
    274  O2        -3.2490   10.2270  -26.5360 O.2    14  DC14       -0.2443
    275  N3        -4.4120   11.6470  -25.1940 N.ar   14  DC14       -0.1739
    276  C4        -4.6820   12.9080  -24.8550 C.ar   14  DC14        0.1759
    277  N4        -5.5590   13.1160  -23.8700 N.pl3  14  DC14       -0.1070
    278  C5        -4.0650   14.0050  -25.5100 C.ar   14  DC14        0.0566
    279  C6        -3.1930   13.7430  -26.4900 C.ar   14  DC14        0.0849
    280  P         -4.2130   13.5000  -32.0740 P.3    15  DA15        0.2141
    281  OP1       -4.5090   13.3280  -33.5240 O.2    15  DA15       -0.5172
    282  OP2       -5.0070   14.4670  -31.2790 O.3    15  DA15       -0.4373
    283  O5'       -4.4360   12.1110  -31.3420 O.3    15  DA15       -0.3114
    284  C5'       -4.1830   10.8910  -32.0000 C.3    15  DA15        0.1811
    285  C4'       -5.1250    9.8450  -31.4840 C.3    15  DA15        0.1746
    286  O4'       -4.9010    9.6950  -30.0620 O.3    15  DA15       -0.3327
    287  C3'       -6.5880   10.2370  -31.5820 C.3    15  DA15        0.1558
    288  O3'       -7.1780    9.8990  -32.8160 O.3    15  DA15       -0.3138
    289  C2'       -7.2330    9.4510  -30.4620 C.3    15  DA15        0.0865
    290  C1'       -6.1390    9.4960  -29.3970 C.3    15  DA15        0.2094
    291  N9        -6.3560   10.5570  -28.4720 N.ar   15  DA15       -0.2714
    292  C8        -5.9480   11.8620  -28.5670 C.ar   15  DA15        0.1815
    293  N7        -6.4040   12.6310  -27.6070 N.ar   15  DA15       -0.2193
    294  C5        -7.1660   11.7730  -26.8290 C.ar   15  DA15        0.1518
    295  C6        -7.9170   11.9740  -25.6570 C.ar   15  DA15        0.1919
    296  N6        -8.0260   13.1540  -25.0420 N.pl3  15  DA15       -0.1054
    297  N1        -8.5590   10.9080  -25.1340 N.ar   15  DA15       -0.2040
    298  C2        -8.4480    9.7250  -25.7510 C.ar   15  DA15        0.2016
    299  N3        -7.7720    9.4120  -26.8540 N.ar   15  DA15       -0.2048
    300  C4        -7.1460   10.4930  -27.3490 C.ar   15  DA15        0.1691
    301  P         -8.8630   10.8640  -33.6260 P.3    16  DA16        0.2141
    302  OP1       -8.5130   10.4250  -34.9910 O.2    16  DA16       -0.5172
    303  OP2       -8.9690   12.3170  -33.3420 O.3    16  DA16       -0.4373
    304  O5'      -10.2480   10.1780  -33.2590 O.3    16  DA16       -0.3114
    305  C5'      -10.2770    8.7720  -32.9980 C.3    16  DA16        0.1811
    306  C4'      -10.9070    8.4630  -31.6530 C.3    16  DA16        0.1746
    307  O4'      -10.0140    8.7030  -30.5340 O.3    16  DA16       -0.3327
    308  C3'      -12.1420    9.2380  -31.2550 C.3    16  DA16        0.1558
    309  O3'      -13.2670    8.8040  -31.9840 O.3    16  DA16       -0.3138
    310  C2'      -12.2630    8.8620  -29.7850 C.3    16  DA16        0.0865
    311  C1'      -10.7970    8.8680  -29.3560 C.3    16  DA16        0.2094
    312  N9       -10.4570   10.1920  -28.8260 N.ar   16  DA16       -0.2714
    313  C8        -9.8840   11.2720  -29.4450 C.ar   16  DA16        0.1815
    314  N7        -9.6990   12.3000  -28.6520 N.ar   16  DA16       -0.2193
    315  C5       -10.1840   11.8660  -27.4280 C.ar   16  DA16        0.1518
    316  C6       -10.2730   12.4890  -26.1710 C.ar   16  DA16        0.1919
    317  N6        -9.8580   13.7360  -25.9330 N.pl3  16  DA16       -0.1054
    318  N1       -10.8100   11.7790  -25.1560 N.ar   16  DA16       -0.2040
    319  C2       -11.2250   10.5300  -25.3960 C.ar   16  DA16        0.2016
    320  N3       -11.1930    9.8360  -26.5310 N.ar   16  DA16       -0.2048
    321  C4       -10.6550   10.5700  -27.5200 C.ar   16  DA16        0.1691
    322  P        -14.5210    9.7790  -32.1150 P.3    17  DT17        0.2141
    323  OP1      -15.4310    9.1460  -33.0980 O.2    17  DT17       -0.5172
    324  OP2      -14.2740   11.2390  -32.1190 O.3    17  DT17       -0.4373
    325  O5'      -15.0890    9.4620  -30.6490 O.3    17  DT17       -0.3114
    326  C5'      -15.9270    8.3380  -30.4000 C.3    17  DT17        0.1811
    327  C4'      -16.6370    8.4190  -29.0630 C.3    17  DT17        0.1746
    328  O4'      -15.7240    8.8750  -28.0310 O.3    17  DT17       -0.3327
    329  C3'      -17.8430    9.3490  -28.9680 C.3    17  DT17        0.1558
    330  O3'      -19.0310    8.6920  -29.3850 O.3    17  DT17       -0.3138
    331  C2'      -17.8650    9.7520  -27.4980 C.3    17  DT17        0.0866
    332  C1'      -16.3850    9.7270  -27.1200 C.3    17  DT17        0.2106
    333  N1       -15.7710   11.0900  -27.2690 N.ar   17  DT17       -0.2559
    334  C2       -15.6610   11.8550  -26.1240 C.ar   17  DT17        0.3545
    335  O2       -15.9890   11.4520  -25.0220 O.2    17  DT17       -0.2443
    336  N3       -15.1520   13.1170  -26.3140 N.ar   17  DT17       -0.1533
    337  C4       -14.7510   13.6780  -27.5090 C.ar   17  DT17        0.2804
    338  O4       -14.3120   14.8250  -27.5210 O.2    17  DT17       -0.2654
    339  C5       -14.8970   12.8220  -28.6520 C.ar   17  DT17        0.0534
    340  C6       -15.3890   11.5900  -28.4950 C.ar   17  DT17        0.0824
    341  C7       -14.4880   13.3420  -29.9980 C.3    17  DT17        0.0377
    342  P        -20.2040    9.2850  -29.5260 P.3    18  DT18        0.2141
    343  OP1      -21.0160    8.6720  -30.6100 O.2    18  DT18       -0.5172
    344  OP2      -19.7120   10.6720  -29.6790 O.3    18  DT18       -0.4373
    345  O5'      -20.9860    9.2230  -28.1470 O.3    18  DT18       -0.3114
    346  C5'      -22.1230   10.0120  -27.9850 C.3    18  DT18        0.1811
    347  C4'      -22.0870   10.7500  -26.6800 C.3    18  DT18        0.1746
    348  O4'      -20.7460   11.1000  -26.2200 O.3    18  DT18       -0.3327
    349  C3'      -22.7500   12.0950  -26.8280 C.3    18  DT18        0.1558
    350  O3'      -24.1370   11.9910  -27.0300 O.3    18  DT18       -0.3138
    351  C2'      -22.2490   12.8490  -25.6080 C.3    18  DT18        0.0866
    352  C1'      -20.7970   12.3570  -25.5340 C.3    18  DT18        0.2106
    353  N1       -19.9810   13.3670  -26.2550 N.ar   18  DT18       -0.2559
    354  C2       -19.8180   14.6560  -25.7830 C.ar   18  DT18        0.3545
    355  O2       -20.4950   15.1260  -24.8860 O.2    18  DT18       -0.2443
    356  N3       -18.8290   15.3810  -26.4040 N.ar   18  DT18       -0.1533
    357  C4       -18.0060   14.9560  -27.4250 C.ar   18  DT18        0.2804
    358  O4       -17.1610   15.7230  -27.8800 O.2    18  DT18       -0.2654
    359  C5       -18.2370   13.6070  -27.8600 C.ar   18  DT18        0.0534
    360  C6       -19.1930   12.8800  -27.2740 C.ar   18  DT18        0.0824
    361  C7       -17.3920   13.0520  -28.9680 C.3    18  DT18        0.0377
    362  P        -24.7530   12.8760  -28.1920 P.3    19  DA19        0.2141
    363  OP1      -26.1230   12.3190  -28.2720 O.3    19  DA19       -0.4373
    364  OP2      -23.9600   13.0440  -29.4300 O.2    19  DA19       -0.5172
    365  O5'      -24.8280   14.3010  -27.4590 O.3    19  DA19       -0.3114
    366  C5'      -25.7260   14.5210  -26.3680 C.3    19  DA19        0.1811
    367  C4'      -25.6820   15.9590  -25.8700 C.3    19  DA19        0.1746
    368  O4'      -24.3530   16.2600  -25.3690 O.3    19  DA19       -0.3327
    369  C3'      -25.9770   17.0280  -26.9190 C.3    19  DA19        0.1558
    370  O3'      -27.3670   17.3490  -26.9470 O.3    19  DA19       -0.3138
    371  C2'      -25.1490   18.2220  -26.4450 C.3    19  DA19        0.0865
    372  C1'      -23.9460   17.5490  -25.7880 C.3    19  DA19        0.2094
    373  N9       -22.8000   17.4610  -26.6350 N.ar   19  DA19       -0.2714
    374  C8       -22.3290   16.3570  -27.2960 C.ar   19  DA19        0.1815
    375  N7       -21.2470   16.5850  -28.0030 N.ar   19  DA19       -0.2193
    376  C5       -20.9920   17.9310  -27.7930 C.ar   19  DA19        0.1518
    377  C6       -19.9820   18.7870  -28.2660 C.ar   19  DA19        0.1919
    378  N6       -19.0010   18.3930  -29.0810 N.pl3  19  DA19       -0.1054
    379  N1       -20.0160   20.0770  -27.8670 N.ar   19  DA19       -0.2040
    380  C2       -20.9990   20.4700  -27.0490 C.ar   19  DA19        0.2016
    381  N3       -22.0020   19.7600  -26.5380 N.ar   19  DA19       -0.2048
    382  C4       -21.9410   18.4840  -26.9540 C.ar   19  DA19        0.1691
    383  P        -28.0940   18.2690  -28.3720 P.3    20  DA20        0.2141
    384  OP1      -29.4450   18.8860  -28.3390 O.3    20  DA20       -0.4373
    385  OP2      -27.7350   17.3540  -29.4860 O.2    20  DA20       -0.5172
    386  O5'      -27.0330   19.4500  -28.2980 O.3    20  DA20       -0.3114
    387  C5'      -27.2970   20.6050  -27.5070 C.3    20  DA20        0.1811
    388  C4'      -26.3800   21.7300  -27.9100 C.3    20  DA20        0.1746
    389  O4'      -25.0070   21.3910  -27.5660 O.3    20  DA20       -0.3327
    390  C3'      -26.3000   22.0350  -29.4000 C.3    20  DA20        0.1558
    391  O3'      -27.4040   22.8020  -29.8430 O.3    20  DA20       -0.3138
    392  C2'      -24.9930   22.8060  -29.4710 C.3    20  DA20        0.0865
    393  C1'      -24.1290   21.9990  -28.5000 C.3    20  DA20        0.2094
    394  N9       -23.3250   20.9410  -29.1860 N.ar   20  DA20       -0.2714
    395  C8       -23.5430   19.5890  -29.2330 C.ar   20  DA20        0.1815
    396  N7       -22.6450   18.9320  -29.9280 N.ar   20  DA20       -0.2193
    397  C5       -21.7790   19.9200  -30.3690 C.ar   20  DA20        0.1518
    398  C6       -20.6140   19.8750  -31.1550 C.ar   20  DA20        0.1919
    399  N6       -20.1030   18.7480  -31.6550 N.pl3  20  DA20       -0.1054
    400  N1       -19.9860   21.0420  -31.4110 N.ar   20  DA20       -0.2040
    401  C2       -20.4990   22.1710  -30.9090 C.ar   20  DA20        0.2016
    402  N3       -21.5840   22.3400  -30.1570 N.ar   20  DA20       -0.2048
    403  C4       -22.1850   21.1620  -29.9210 C.ar   20  DA20        0.1691
    404  P        -28.1240   22.4710  -31.3010 P.3    21  DT21        0.2141
    405  OP1      -29.4430   22.9960  -31.7460 O.2    21  DT21       -0.5172
    406  OP2      -27.9070   21.0030  -31.2550 O.3    21  DT21       -0.4373
    407  O5'      -26.9870   23.0870  -32.2260 O.3    21  DT21       -0.3114
    408  C5'      -26.7650   24.4980  -32.2620 C.3    21  DT21        0.1811
    409  C4'      -25.5210   24.8110  -33.0470 C.3    21  DT21        0.1746
    410  O4'      -24.3560   24.3730  -32.3130 O.3    21  DT21       -0.3327
    411  C3'      -25.3950   24.1800  -34.4290 C.3    21  DT21        0.1558
    412  O3'      -26.0790   25.0120  -35.3630 O.3    21  DT21       -0.3138
    413  C2'      -23.8790   24.1750  -34.6410 C.3    21  DT21        0.0866
    414  C1'      -23.3580   23.9420  -33.2180 C.3    21  DT21        0.2106
    415  N1       -23.0090   22.5870  -32.9280 N.ar   21  DT21       -0.2559
    416  C2       -21.6920   22.2190  -33.1250 C.ar   21  DT21        0.3545
    417  O2       -20.7960   23.0250  -33.3020 O.2    21  DT21       -0.2443
    418  N3       -21.4590   20.8650  -33.1100 N.ar   21  DT21       -0.1533
    419  C4       -22.3900   19.8650  -32.9220 C.ar   21  DT21        0.2804
    420  O4       -22.0280   18.6910  -32.9340 O.2    21  DT21       -0.2654
    421  C5       -23.7350   20.3280  -32.7250 C.ar   21  DT21        0.0534
    422  C6       -23.9890   21.6390  -32.7350 C.ar   21  DT21        0.0824
    423  C7       -24.8220   19.3160  -32.5120 C.3    21  DT21        0.0377
    424  P        -26.5270   24.4120  -36.8770 P.3    22  DC22        0.2141
    425  OP1      -27.7720   24.8420  -37.5510 O.2    22  DC22       -0.5172
    426  OP2      -26.2250   22.9690  -36.7300 O.3    22  DC22       -0.4373
    427  O5'      -25.2600   25.0140  -37.6510 O.3    22  DC22       -0.3114
    428  C5'      -24.8510   24.4760  -38.9020 C.3    22  DC22        0.1811
    429  C4'      -23.3480   24.3800  -39.0180 C.3    22  DC22        0.1746
    430  O4'      -22.7860   23.9410  -37.7540 O.3    22  DC22       -0.3327
    431  C3'      -22.8320   23.3770  -40.0400 C.3    22  DC22        0.1558
    432  O3'      -22.7470   23.9290  -41.3400 O.3    22  DC22       -0.3138
    433  C2'      -21.4760   22.9680  -39.4870 C.3    22  DC22        0.0866
    434  C1'      -21.7040   23.0630  -37.9790 C.3    22  DC22        0.2106
    435  N1       -21.9330   21.8240  -37.2270 N.ar   22  DC22       -0.2556
    436  C2       -20.9330   20.8460  -37.1860 C.ar   22  DC22        0.3531
    437  O2       -19.8520   21.0720  -37.7560 O.2    22  DC22       -0.2443
    438  N3       -21.1720   19.6860  -36.5290 N.ar   22  DC22       -0.1739
    439  C4       -22.3480   19.4870  -35.9310 C.ar   22  DC22        0.1759
    440  N4       -22.5370   18.3280  -35.2960 N.pl3  22  DC22       -0.1070
    441  C5       -23.3740   20.4660  -35.9610 C.ar   22  DC22        0.0566
    442  C6       -23.1340   21.6100  -36.6110 C.ar   22  DC22        0.0849
    443  P        -22.9960   22.8980  -42.7540 P.3    23  DG23        0.2141
    444  OP1      -23.1740   23.8800  -43.8620 O.2    23  DG23       -0.5172
    445  OP2      -23.9790   21.8290  -42.5500 O.3    23  DG23       -0.4373
    446  O5'      -21.5360   22.2590  -42.8180 O.3    23  DG23       -0.3114
    447  C5'      -21.3040   21.0630  -43.5610 C.3    23  DG23        0.1811
    448  C4'      -19.9190   21.0470  -44.2040 C.3    23  DG23        0.1746
    449  O4'      -19.5590   22.3570  -44.7030 O.3    23  DG23       -0.3327
    450  C3'      -18.7040   20.5820  -43.4130 C.3    23  DG23        0.1558
    451  O3'      -18.6800   19.1440  -43.4070 O.3    23  DG23       -0.3138
    452  C2'      -17.5470   21.1580  -44.2380 C.3    23  DG23        0.0865
    453  C1'      -18.1530   22.4330  -44.8570 C.3    23  DG23        0.2094
    454  N9       -17.7690   23.2800  -43.5680 N.ar   23  DG23       -0.2713
    455  C8       -18.8570   23.9410  -43.0510 C.ar   23  DG23        0.1816
    456  N7       -18.5350   24.9980  -42.3560 N.ar   23  DG23       -0.2173
    457  C5       -17.1550   25.0420  -42.4170 C.ar   23  DG23        0.1748
    458  C6       -16.2340   25.9620  -41.8520 C.ar   23  DG23        0.3023
    459  O6       -16.4750   26.9590  -41.1600 O.2    23  DG23       -0.2633
    460  N1       -14.9160   25.6350  -42.1600 N.ar   23  DG23       -0.1709
    461  C2       -14.5330   24.5550  -42.9180 C.ar   23  DG23        0.2606
    462  N2       -13.2150   24.4040  -43.1070 N.pl3  23  DG23       -0.0859
    463  N3       -15.3760   23.6910  -43.4480 N.ar   23  DG23       -0.1918
    464  C4       -16.6610   23.9880  -43.1620 C.ar   23  DG23        0.1722
    465  P        -17.8790   18.3390  -42.2220 P.3    24  DC24        0.2141
    466  OP1      -17.9300   16.8530  -42.2160 O.2    24  DC24       -0.5172
    467  OP2      -18.7490   19.1160  -41.2950 O.3    24  DC24       -0.4373
    468  O5'      -16.3740   18.7800  -41.9160 O.3    24  DC24       -0.3114
    469  C5'      -15.3650   17.8250  -41.5910 C.3    24  DC24        0.1812
    470  C4'      -13.9980   18.4750  -41.6310 C.3    24  DC24        0.1775
    471  O4'      -14.1170   19.8320  -42.1100 O.3    24  DC24       -0.3326
    472  C3'      -13.3220   18.5940  -40.2790 C.3    24  DC24        0.1859
    473  O3'      -12.6020   17.4070  -40.0350 O.3    24  DC24       -0.2203
    474  C2'      -12.4370   19.8230  -40.4280 C.3    24  DC24        0.0895
    475  C1'      -13.2830   20.6900  -41.3580 C.3    24  DC24        0.2107
    476  N1       -14.1390   21.6020  -40.4770 N.ar   24  DC24       -0.2556
    477  C2       -13.4890   22.4690  -39.5910 C.ar   24  DC24        0.3531
    478  O2       -12.2480   22.4340  -39.5240 O.2    24  DC24       -0.2443
    479  N3       -14.2280   23.3160  -38.8360 N.ar   24  DC24       -0.1739
    480  C4       -15.5570   23.3170  -38.9410 C.ar   24  DC24        0.1759
    481  N4       -16.2430   24.1690  -38.1760 N.pl3  24  DC24       -0.1070
    482  C5       -16.2350   22.4470  -39.8320 C.ar   24  DC24        0.0566
    483  C6       -15.5020   21.6120  -40.5770 C.ar   24  DC24        0.0849
    484  P        -12.7120   16.4480  -38.4170 P.3    25  DA25        0.5411
    485  OP1      -11.8990   15.5180  -37.5970 O.2    25  DA25       -0.2272
    486  OP2      -14.0790   16.7600  -38.0000 O.2    25  DA25       -0.2272
    487  O5'      -11.9200   17.8220  -38.5150 O.3    25  DA25       -0.2722
    488  C5'      -11.7250   18.6400  -37.3560 C.3    25  DA25        0.1850
    489  C4'      -12.1920   20.0380  -37.6400 C.3    25  DA25        0.1748
    490  O4'      -13.5320   19.9660  -38.1750 O.3    25  DA25       -0.3327
    491  C3'      -12.3120   20.9110  -36.4070 C.3    25  DA25        0.1558
    492  O3'      -11.0850   21.5450  -36.0960 O.3    25  DA25       -0.3138
    493  C2'      -13.4340   21.8750  -36.7750 C.3    25  DA25        0.0865
    494  C1'      -14.3500   20.9630  -37.5790 C.3    25  DA25        0.2094
    495  N9       -15.3120   20.0620  -36.4360 N.ar   25  DA25       -0.2714
    496  C8       -15.2740   18.7020  -36.2770 C.ar   25  DA25        0.1815
    497  N7       -16.2810   18.2210  -35.5860 N.ar   25  DA25       -0.2193
    498  C5       -17.0310   19.3420  -35.2700 C.ar   25  DA25        0.1518
    499  C6       -18.2270   19.5080  -34.5490 C.ar   25  DA25        0.1919
    500  N6       -18.9020   18.4980  -33.9950 N.pl3  25  DA25       -0.1054
    501  N1       -18.7090   20.7620  -34.4150 N.ar   25  DA25       -0.2040
    502  C2       -18.0320   21.7730  -34.9710 C.ar   25  DA25        0.2016
    503  N3       -16.9010   21.7430  -35.6710 N.ar   25  DA25       -0.2048
    504  C4       -16.4460   20.4840  -35.7850 C.ar   25  DA25        0.1691
    505  P        -10.7470   21.9460  -34.7400 P.3    26  DT26        0.2141
    506  OP1       -9.4840   22.6500  -34.4210 O.2    26  DT26       -0.5172
    507  OP2      -11.0730   20.6470  -34.1080 O.3    26  DT26       -0.4373
    508  O5'      -12.0050   22.8590  -34.3530 O.3    26  DT26       -0.3114
    509  C5'      -12.2120   24.1530  -34.9100 C.3    26  DT26        0.1811
    510  C4'      -13.4760   24.7910  -34.3770 C.3    26  DT26        0.1746
    511  O4'      -14.6340   24.0090  -34.7780 O.3    26  DT26       -0.3327
    512  C3'      -13.5900   24.8580  -32.8620 C.3    26  DT26        0.1558
    513  O3'      -12.8720   25.9370  -32.2830 O.3    26  DT26       -0.3138
    514  C2'      -15.0970   24.9100  -32.6260 C.3    26  DT26        0.0866
    515  C1'      -15.6100   24.0110  -33.7510 C.3    26  DT26        0.2106
    516  N1       -15.9340   22.6150  -33.2950 N.ar   26  DT26       -0.2559
    517  C2       -17.1290   22.3620  -32.6470 C.ar   26  DT26        0.3545
    518  O2       -17.9270   23.2370  -32.3620 O.2    26  DT26       -0.2443
    519  N3       -17.3560   21.0420  -32.3410 N.ar   26  DT26       -0.1533
    520  C4       -16.5280   19.9730  -32.6120 C.ar   26  DT26        0.2804
    521  O4       -16.8700   18.8420  -32.2760 O.2    26  DT26       -0.2654
    522  C5       -15.3070   20.3170  -33.2860 C.ar   26  DT26        0.0534
    523  C6       -15.0600   21.5920  -33.5940 C.ar   26  DT26        0.0824
    524  C7       -14.3380   19.2230  -33.6250 C.3    26  DT26        0.0377
    525  P        -12.0390   25.7160  -30.8220 P.3    27  DT27        0.2141
    526  OP1      -11.0130   26.7800  -30.9060 O.3    27  DT27       -0.4373
    527  OP2      -11.6700   24.2840  -30.9200 O.2    27  DT27       -0.5172
    528  O5'      -12.8290   25.8070  -29.4390 O.3    27  DT27       -0.3114
    529  C5'      -13.5440   27.0040  -29.2030 C.3    27  DT27        0.1811
    530  C4'      -14.8600   26.7470  -28.5200 C.3    27  DT27        0.1746
    531  O4'      -15.7210   25.9110  -29.3360 O.3    27  DT27       -0.3327
    532  C3'      -14.8010   25.9900  -27.2080 C.3    27  DT27        0.1558
    533  O3'      -14.3080   26.7730  -26.1410 O.3    27  DT27       -0.3138
    534  C2'      -16.2620   25.6050  -27.0600 C.3    27  DT27        0.0866
    535  C1'      -16.5780   25.1750  -28.4920 C.3    27  DT27        0.2106
    536  N1       -16.3720   23.7130  -28.7320 N.ar   27  DT27       -0.2559
    537  C2       -17.3890   22.8210  -28.4490 C.ar   27  DT27        0.3545
    538  O2       -18.4270   23.1480  -27.9020 O.2    27  DT27       -0.2443
    539  N3       -17.1450   21.5230  -28.8300 N.ar   27  DT27       -0.1533
    540  C4       -16.0130   21.0400  -29.4510 C.ar   27  DT27        0.2804
    541  O4       -15.9400   19.8460  -29.7320 O.2    27  DT27       -0.2654
    542  C5       -15.0030   22.0270  -29.7100 C.ar   27  DT27        0.0534
    543  C6       -15.2140   23.2960  -29.3500 C.ar   27  DT27        0.0824
    544  C7       -13.7320   21.5990  -30.3820 C.3    27  DT27        0.0377
    545  P        -13.7410   26.0420  -24.7760 P.3    28  DA28        0.2141
    546  OP1      -13.1260   26.9000  -23.7310 O.3    28  DA28       -0.4373
    547  OP2      -12.8990   25.0660  -25.5100 O.2    28  DA28       -0.5172
    548  O5'      -14.9540   25.2570  -24.1080 O.3    28  DA28       -0.3114
    549  C5'      -15.9030   25.9410  -23.2820 C.3    28  DA28        0.1811
    550  C4'      -16.9040   24.9640  -22.7090 C.3    28  DA28        0.1746
    551  O4'      -17.6580   24.3660  -23.7900 O.3    28  DA28       -0.3327
    552  C3'      -16.3310   23.7880  -21.9370 C.3    28  DA28        0.1558
    553  O3'      -16.0950   24.1190  -20.5810 O.3    28  DA28       -0.3138
    554  C2'      -17.4260   22.7350  -22.0650 C.3    28  DA28        0.0865
    555  C1'      -17.9660   23.0150  -23.4710 C.3    28  DA28        0.2094
    556  N9       -17.3370   22.1490  -24.4590 N.ar   28  DA28       -0.2714
    557  C8       -16.4930   22.5940  -25.4430 C.ar   28  DA28        0.1815
    558  N7       -16.1540   21.6680  -26.3080 N.ar   28  DA28       -0.2193
    559  C5       -16.8200   20.5370  -25.8610 C.ar   28  DA28        0.1518
    560  C6       -16.8750   19.2190  -26.3450 C.ar   28  DA28        0.1919
    561  N6       -16.2220   18.8030  -27.4330 N.pl3  28  DA28       -0.1054
    562  N1       -17.6330   18.3320  -25.6650 N.ar   28  DA28       -0.2040
    563  C2       -18.2880   18.7500  -24.5750 C.ar   28  DA28        0.2016
    564  N3       -18.3150   19.9620  -24.0240 N.ar   28  DA28       -0.2048
    565  C4       -17.5510   20.8180  -24.7230 C.ar   28  DA28        0.1691
    566  P        -14.8980   23.2270  -19.6410 P.3    29  DC29        0.2141
    567  OP1      -14.7530   23.9390  -18.3480 O.3    29  DC29       -0.4373
    568  OP2      -13.7570   23.1880  -20.5890 O.2    29  DC29       -0.5172
    569  O5'      -15.3510   21.7280  -19.3540 O.3    29  DC29       -0.3114
    570  C5'      -16.4790   21.4420  -18.5120 C.3    29  DC29        0.1811
    571  C4'      -16.8140   19.9690  -18.5710 C.3    29  DC29        0.1746
    572  O4'      -17.3190   19.6320  -19.8890 O.3    29  DC29       -0.3327
    573  C3'      -15.6640   19.0000  -18.3440 C.3    29  DC29        0.1558
    574  O3'      -15.4320   18.7350  -16.9740 O.3    29  DC29       -0.3138
    575  C2'      -16.1540   17.7370  -19.0320 C.3    29  DC29        0.0866
    576  C1'      -16.9470   18.3040  -20.2120 C.3    29  DC29        0.2106
    577  N1       -16.1780   18.3320  -21.4700 N.ar   29  DC29       -0.2556
    578  C2       -16.2090   17.1750  -22.2570 C.ar   29  DC29        0.3531
    579  O2       -16.9250   16.2260  -21.8960 O.2    29  DC29       -0.2443
    580  N3       -15.4590   17.1240  -23.3840 N.ar   29  DC29       -0.1739
    581  C4       -14.7040   18.1670  -23.7320 C.ar   29  DC29        0.1759
    582  N4       -13.9830   18.0710  -24.8510 N.pl3  29  DC29       -0.1070
    583  C5       -14.6590   19.3480  -22.9480 C.ar   29  DC29        0.0566
    584  C6       -15.4010   19.3950  -21.8360 C.ar   29  DC29        0.0849
    585  P        -13.9810   18.0580  -16.4860 P.3    30  DC30        0.2141
    586  OP1      -13.7770   17.7060  -15.0650 O.3    30  DC30       -0.4373
    587  OP2      -12.8010   18.3470  -17.3310 O.2    30  DC30       -0.5172
    588  O5'      -14.7850   16.8620  -17.1920 O.3    30  DC30       -0.3114
    589  C5'      -15.6380   15.9480  -16.4870 C.3    30  DC30        0.1812
    590  C4'      -15.9080   14.6910  -17.3210 C.3    30  DC30        0.1775
    591  O4'      -16.3280   15.1020  -18.6350 O.3    30  DC30       -0.3326
    592  C3'      -14.6490   13.8880  -17.6100 C.3    30  DC30        0.1864
    593  O3'      -14.0590   13.1370  -16.5210 O.3    30  DC30       -0.2133
    594  C2'      -14.9850   13.1660  -18.9060 C.3    30  DC30        0.0895
    595  C1'      -15.8000   14.2190  -19.6550 C.3    30  DC30        0.2107
    596  N1       -14.5730   14.8940  -20.4440 N.ar   30  DC30       -0.2556
    597  C2       -14.1850   14.1930  -21.5920 C.ar   30  DC30        0.3531
    598  O2       -14.7450   13.1150  -21.8530 O.2    30  DC30       -0.2443
    599  N3       -13.2130   14.7090  -22.3820 N.ar   30  DC30       -0.1739
    600  C4       -12.6390   15.8690  -22.0630 C.ar   30  DC30        0.1759
    601  N4       -11.6860   16.3390  -22.8710 N.pl3  30  DC30       -0.1070
    602  C5       -13.0180   16.5940  -20.9040 C.ar   30  DC30        0.0566
    603  C6       -13.9780   16.0820  -20.1260 C.ar   30  DC30        0.0849
    604  P        -14.3720   11.6890  -16.1950 P.3    31  DT31        0.3939
    605  OP1      -15.0550   10.8370  -15.1870 O.3    31  DT31       -0.1425
    606  OP2      -13.1880   12.4910  -15.8000 O.3    31  DT31       -0.1496
    607  O5'      -13.9680   10.7790  -17.4400 O.3    31  DT31       -0.2926
    608  C5'      -14.8880    9.8130  -17.9770 C.3    31  DT31        0.1828
    609  C4'      -14.2690    9.0870  -19.1510 C.3    31  DT31        0.1747
    610  O4'      -14.1310    9.9850  -20.2800 O.3    31  DT31       -0.3327
    611  C3'      -12.8740    8.5120  -18.9440 C.3    31  DT31        0.1558
    612  O3'      -12.9360    7.2410  -18.2950 O.3    31  DT31       -0.3138
    613  C2'      -12.3320    8.4060  -20.3710 C.3    31  DT31        0.0866
    614  C1'      -13.0400    9.5650  -21.0790 C.3    31  DT31        0.2106
    615  N1       -12.2270   10.6460  -21.3700 N.ar   31  DT31       -0.2559
    616  C2       -11.5000   10.6490  -22.5460 C.ar   31  DT31        0.3545
    617  O2       -11.6480    9.8130  -23.4200 O.2    31  DT31       -0.2443
    618  N3       -10.5880   11.6700  -22.6630 N.ar   31  DT31       -0.1533
    619  C4       -10.3360   12.6660  -21.7430 C.ar   31  DT31        0.2804
    620  O4        -9.4850   13.5170  -21.9900 O.2    31  DT31       -0.2654
    621  C5       -11.1300   12.5940  -20.5480 C.ar   31  DT31        0.0534
    622  C6       -12.0240   11.6110  -20.4090 C.ar   31  DT31        0.0824
    623  C7       -10.9290   13.6330  -19.4850 C.3    31  DT31        0.0377
    624  P        -11.5800    6.5500  -17.7040 P.3    32  DT32        0.2141
    625  OP1      -11.9200    6.0700  -16.3390 O.3    32  DT32       -0.4373
    626  OP2      -10.4610    7.4650  -18.0070 O.2    32  DT32       -0.5172
    627  O5'      -11.4670    5.2780  -18.6850 O.3    32  DT32       -0.3114
    628  C5'      -10.1450    4.8640  -19.0370 C.3    32  DT32        0.1811
    629  C4'       -9.8060    5.1480  -20.4840 C.3    32  DT32        0.1746
    630  O4'      -10.1210    6.4970  -20.8970 O.3    32  DT32       -0.3327
    631  C3'       -8.3220    5.1940  -20.6890 C.3    32  DT32        0.1558
    632  O3'       -7.7530    3.9680  -20.6130 O.3    32  DT32       -0.3138
    633  C2'       -8.2400    5.6900  -22.0890 C.3    32  DT32        0.0866
    634  C1'       -9.3540    6.6950  -22.0590 C.3    32  DT32        0.2106
    635  N1        -8.5930    8.0610  -21.9550 N.ar   32  DT32       -0.2559
    636  C2        -7.7430    8.5870  -22.9100 C.ar   32  DT32        0.3545
    637  O2        -7.3420    7.9480  -23.8660 O.2    32  DT32       -0.2443
    638  N3        -7.3750    9.8940  -22.7030 N.ar   32  DT32       -0.1533
    639  C4        -7.7630   10.7100  -21.6610 C.ar   32  DT32        0.2804
    640  O4        -7.3500   11.8660  -21.6120 O.2    32  DT32       -0.2654
    641  C5        -8.6450   10.0920  -20.7110 C.ar   32  DT32        0.0534
    642  C6        -9.0180    8.8210  -20.8880 C.ar   32  DT32        0.0824
    643  C7        -9.1230   10.8980  -19.5400 C.3    32  DT32        0.0377
    644  P         -6.2490    3.8930  -19.6450 P.3    33  DA33        0.2141
    645  OP1       -6.2830    2.5000  -19.1340 O.2    33  DA33       -0.5172
    646  OP2       -5.6870    4.9980  -18.8300 O.3    33  DA33       -0.4373
    647  O5'       -5.4760    3.9840  -21.0450 O.3    33  DA33       -0.3114
    648  C5'       -4.1730    3.4810  -21.2620 C.3    33  DA33        0.1811
    649  C4'       -3.5540    4.1470  -22.4570 C.3    33  DA33        0.1746
    650  O4'       -4.3340    5.3080  -22.8340 O.3    33  DA33       -0.3327
    651  C3'       -2.1840    4.7270  -22.1860 C.3    33  DA33        0.1558
    652  O3'       -1.1620    3.7570  -22.2180 O.3    33  DA33       -0.3138
    653  C2'       -2.0480    5.8120  -23.2380 C.3    33  DA33        0.0865
    654  C1'       -3.4750    6.3490  -23.2590 C.3    33  DA33        0.2094
    655  N9        -3.7530    7.5010  -22.4050 N.ar   33  DA33       -0.2714
    656  C8        -4.5490    7.5510  -21.2910 C.ar   33  DA33        0.1815
    657  N7        -4.6480    8.7490  -20.7640 N.ar   33  DA33       -0.2193
    658  C5        -3.8620    9.5390  -21.5880 C.ar   33  DA33        0.1518
    659  C6        -3.5520   10.9110  -21.5690 C.ar   33  DA33        0.1919
    660  N6        -4.0190   11.7610  -20.6520 N.pl3  33  DA33       -0.1054
    661  N1        -2.7370   11.3820  -22.5360 N.ar   33  DA33       -0.2040
    662  C2        -2.2700   10.5290  -23.4560 C.ar   33  DA33        0.2016
    663  N3        -2.4910    9.2220  -23.5790 N.ar   33  DA33       -0.2048
    664  C4        -3.3040    8.7850  -22.6020 C.ar   33  DA33        0.1691
    665  P         -0.4470    3.9910  -21.3040 P.3    34  DT34        0.2141
    666  OP1        0.2850    2.8490  -21.8960 O.2    34  DT34       -0.5172
    667  OP2       -0.6030    4.0670  -19.8280 O.3    34  DT34       -0.4373
    668  O5'        0.2570    5.3400  -21.7740 O.3    34  DT34       -0.3114
    669  C5'        0.7160    5.5030  -23.1160 C.3    34  DT34        0.1811
    670  C4'        1.3780    6.8500  -23.2850 C.3    34  DT34        0.1746
    671  O4'        0.3710    7.8890  -23.2130 O.3    34  DT34       -0.3327
    672  C3'        2.3840    7.2070  -22.1980 C.3    34  DT34        0.1558
    673  O3'        3.6780    6.6980  -22.4720 O.3    34  DT34       -0.3138
    674  C2'        2.3550    8.7290  -22.1750 C.3    34  DT34        0.0866
    675  C1'        0.8940    9.0140  -22.5230 C.3    34  DT34        0.2106
    676  N1         0.1020    9.2420  -21.2810 N.ar   34  DT34       -0.2559
    677  C2         0.1610   10.5150  -20.7460 C.ar   34  DT34        0.3545
    678  O2         0.7880   11.4240  -21.2610 O.2    34  DT34       -0.2443
    679  N3        -0.5420   10.6880  -19.5780 N.ar   34  DT34       -0.1533
    680  C4        -1.2820    9.7370  -18.9070 C.ar   34  DT34        0.2804
    681  O4        -1.8600   10.0430  -17.8670 O.2    34  DT34       -0.2654
    682  C5        -1.2940    8.4410  -19.5250 C.ar   34  DT34        0.0534
    683  C6        -0.6190    8.2450  -20.6610 C.ar   34  DT34        0.0824
    684  C7        -2.0710    7.3380  -18.8700 C.3    34  DT34        0.0377
    685  P          4.8780    6.6750  -21.1790 P.3    35  DA35        0.2141
    686  OP1        6.1440    6.0220  -21.5580 O.2    35  DA35       -0.5172
    687  OP2        3.9460    5.9890  -20.2680 O.3    35  DA35       -0.4373
    688  O5'        5.1980    8.0570  -20.4450 O.3    35  DA35       -0.3114
    689  C5'        6.3820    8.7650  -20.7690 C.3    35  DA35        0.1811
    690  C4'        6.2980   10.1970  -20.3130 C.3    35  DA35        0.1746
    691  O4'        4.9120   10.6140  -20.3310 O.3    35  DA35       -0.3327
    692  C3'        6.7010   10.4780  -18.8770 C.3    35  DA35        0.1558
    693  O3'        8.0950   10.5020  -18.6610 O.3    35  DA35       -0.3138
    694  C2'        6.0090   11.8070  -18.6090 C.3    35  DA35        0.0865
    695  C1'        4.6750   11.5230  -19.2770 C.3    35  DA35        0.2094
    696  N9         3.8030   11.0020  -18.2500 N.ar   35  DA35       -0.2714
    697  C8         3.2360    9.7680  -18.4360 C.ar   35  DA35        0.1815
    698  N7         2.2210    9.5280  -17.6400 N.ar   35  DA35       -0.2193
    699  C5         2.1150   10.6810  -16.8800 C.ar   35  DA35        0.1518
    700  C6         1.2330   11.0590  -15.8520 C.ar   35  DA35        0.1919
    701  N6         0.2490   10.2790  -15.3980 N.pl3  35  DA35       -0.1054
    702  N1         1.3990   12.2800  -15.3010 N.ar   35  DA35       -0.2040
    703  C2         2.3840   13.0620  -15.7580 C.ar   35  DA35        0.2016
    704  N3         3.2740   12.8190  -16.7170 N.ar   35  DA35       -0.2048
    705  C4         3.0830   11.5980  -17.2430 C.ar   35  DA35        0.1691
    706  P          8.5150    9.6070  -17.7880 P.3    36  DC36        0.2141
    707  OP1        9.7440    9.1000  -18.4390 O.2    36  DC36       -0.5172
    708  OP2        7.4210    8.6750  -17.4280 O.3    36  DC36       -0.4373
    709  O5'        8.9340   10.4110  -16.4730 O.3    36  DC36       -0.3114
    710  C5'        9.6250   11.6420  -16.5930 C.3    36  DC36        0.1811
    711  C4'        9.4150   12.4610  -15.3380 C.3    36  DC36        0.1746
    712  O4'        8.0610   12.9730  -15.3090 O.3    36  DC36       -0.3327
    713  C3'        9.5200   11.6680  -14.0480 C.3    36  DC36        0.1558
    714  O3'       10.8790   11.4790  -13.6820 O.3    36  DC36       -0.3138
    715  C2'        8.7880   12.5980  -13.0880 C.3    36  DC36        0.0866
    716  C1'        7.6370   13.0840  -13.9630 C.3    36  DC36        0.2106
    717  N1         6.4250   12.2960  -13.8100 N.ar   36  DC36       -0.2556
    718  C2         5.6000   12.5300  -12.7040 C.ar   36  DC36        0.3531
    719  O2         5.9150   13.4260  -11.9020 O.2    36  DC36       -0.2443
    720  N3         4.4860   11.7770  -12.5400 N.ar   36  DC36       -0.1739
    721  C4         4.1870   10.8260  -13.4260 C.ar   36  DC36        0.1759
    722  N4         3.0800   10.1090  -13.2230 N.pl3  36  DC36       -0.1070
    723  C5         5.0100   10.5730  -14.5530 C.ar   36  DC36        0.0566
    724  C6         6.1090   11.3190  -14.7110 C.ar   36  DC36        0.0849
    725  P         11.3030   10.1810  -12.6300 P.3    37  DC37        0.2141
    726  OP1       12.7060    9.8110  -12.8980 O.2    37  DC37       -0.5172
    727  OP2       10.2370    9.1710  -12.7920 O.3    37  DC37       -0.4373
    728  O5'       11.1430   10.8020  -11.1790 O.3    37  DC37       -0.3114
    729  C5'       11.9190   11.9100  -10.7760 C.3    37  DC37        0.1811
    730  C4'       11.2490   12.6320   -9.6380 C.3    37  DC37        0.1746
    731  O4'        9.9460   13.0910  -10.0670 O.3    37  DC37       -0.3327
    732  C3'       10.9000   11.8160   -8.4150 C.3    37  DC37        0.1558
    733  O3'       12.0050   11.5710   -7.5770 O.3    37  DC37       -0.3138
    734  C2'        9.8900   12.7250   -7.7500 C.3    37  DC37        0.0866
    735  C1'        9.0700   13.1430   -8.9590 C.3    37  DC37        0.2106
    736  N1         7.9670   12.1390   -9.2430 N.ar   37  DC37       -0.2556
    737  C2         6.7350   12.3290   -8.6050 C.ar   37  DC37        0.3531
    738  O2         6.5920   13.3170   -7.8650 O.2    37  DC37       -0.2443
    739  N3         5.7400   11.4340   -8.8120 N.ar   37  DC37       -0.1739
    740  C4         5.9400   10.3870   -9.6140 C.ar   37  DC37        0.1759
    741  N4         4.9300    9.5320   -9.7880 N.pl3  37  DC37       -0.1070
    742  C5         7.1810   10.1770  -10.2690 C.ar   37  DC37        0.0566
    743  C6         8.1610   11.0630  -10.0620 C.ar   37  DC37        0.0849
    744  P         12.0540   10.3010   -6.8490 P.3    38  DA38        0.2141
    745  OP1       13.3250   10.2750   -6.0640 O.3    38  DA38       -0.4373
    746  OP2       11.5300    9.1990   -7.7310 O.2    38  DA38       -0.5172
    747  O5'       10.8250   10.7480   -5.9090 O.3    38  DA38       -0.3114
    748  C5'       11.1500   11.6360   -4.8370 C.3    38  DA38        0.1811
    749  C4'        9.9440   12.1750   -4.1130 C.3    38  DA38        0.1746
    750  O4'        8.9870   12.6050   -5.0910 O.3    38  DA38       -0.3327
    751  C3'        9.1020   11.2000   -3.3430 C.3    38  DA38        0.1558
    752  O3'        9.6360   11.0240   -2.0940 O.3    38  DA38       -0.3138
    753  C2'        7.7990   11.9300   -3.1800 C.3    38  DA38        0.0865
    754  C1'        7.6650   12.3900   -4.6190 C.3    38  DA38        0.2094
    755  N9         7.0620   11.3160   -5.4180 N.ar   38  DA38       -0.2714
    756  C8         7.6760   10.4310   -6.2650 C.ar   38  DA38        0.1815
    757  N7         6.8410    9.6660   -6.9270 N.ar   38  DA38       -0.2193
    758  C5         5.5930   10.0760   -6.4830 C.ar   38  DA38        0.1518
    759  C6         4.2910    9.6550   -6.8020 C.ar   38  DA38        0.1919
    760  N6         4.0210    8.6870   -7.6820 N.pl3  38  DA38       -0.1054
    761  N1         3.2630   10.2700   -6.1790 N.ar   38  DA38       -0.2040
    762  C2         3.5340   11.2400   -5.2980 C.ar   38  DA38        0.2016
    763  N3         4.7140   11.7230   -4.9160 N.ar   38  DA38       -0.2048
    764  C4         5.7140   11.0900   -5.5520 C.ar   38  DA38        0.1691
    765  P          9.6810    9.6730   -1.8100 P.3    39  DG39        0.2141
    766  OP1       10.9100    9.6450   -0.9840 O.3    39  DG39       -0.4373
    767  OP2        9.4500    8.6390   -2.8340 O.2    39  DG39       -0.5172
    768  O5'        8.4270    9.7030   -0.8250 O.3    39  DG39       -0.3114
    769  C5'        7.9490   10.9510   -0.3890 C.3    39  DG39        0.1811
    770  C4'        6.4520   10.8800   -0.2130 C.3    39  DG39        0.1746
    771  O4'        5.7830   11.1430   -1.4680 O.3    39  DG39       -0.3327
    772  C3'        5.9480    9.5070    0.1590 C.3    39  DG39        0.1558
    773  O3'        6.1750    9.2580    1.5390 O.3    39  DG39       -0.3138
    774  C2'        4.4700    9.6570   -0.1850 C.3    39  DG39        0.0865
    775  C1'        4.5330   10.4800   -1.4700 C.3    39  DG39        0.2094
    776  N9         4.5330    9.6570   -2.6060 N.ar   39  DG39       -0.2713
    777  C8         5.5980    9.1840   -3.3350 C.ar   39  DG39        0.1816
    778  N7         5.2500    8.3360   -4.2640 N.ar   39  DG39       -0.2173
    779  C5         3.8750    8.2420   -4.1460 C.ar   39  DG39        0.1748
    780  C6         2.9360    7.4740   -4.8810 C.ar   39  DG39        0.3023
    781  O6         3.1490    6.6960   -5.8190 O.2    39  DG39       -0.2633
    782  N1         1.6340    7.6750   -4.4310 N.ar   39  DG39       -0.1709
    783  C2         1.2810    8.5130   -3.4000 C.ar   39  DG39        0.2606
    784  N2        -0.0260    8.5750   -3.1110 N.pl3  39  DG39       -0.0859
    785  N3         2.1420    9.2310   -2.7080 N.ar   39  DG39       -0.1918
    786  C4         3.4130    9.0520   -3.1260 C.ar   39  DG39        0.1722
    787  P          6.5000    7.8670    1.9010 P.3    40  DC40        0.2141
    788  OP1        7.0340    7.8150    3.2850 O.3    40  DC40       -0.4373
    789  OP2        7.1610    7.0830    0.8320 O.2    40  DC40       -0.5172
    790  O5'        4.9700    7.4340    1.9550 O.3    40  DC40       -0.3114
    791  C5'        4.0050    8.2530    2.6330 C.3    40  DC40        0.1811
    792  C4'        2.6140    7.9690    2.1200 C.3    40  DC40        0.1746
    793  O4'        2.5940    8.0830    0.6700 O.3    40  DC40       -0.3327
    794  C3'        2.0640    6.5720    2.3500 C.3    40  DC40        0.1558
    795  O3'        1.5960    6.4140    3.6870 O.3    40  DC40       -0.3138
    796  C2'        0.9290    6.5260    1.3330 C.3    40  DC40        0.0866
    797  C1'        1.5580    7.2620    0.1500 C.3    40  DC40        0.2106
    798  N1         2.0250    6.4280   -0.8420 N.ar   40  DC40       -0.2556
    799  C2         1.1540    5.6990   -1.6610 C.ar   40  DC40        0.3531
    800  O2        -0.0710    5.8260   -1.4920 O.2    40  DC40       -0.2443
    801  N3         1.6710    4.8800   -2.6080 N.ar   40  DC40       -0.1739
    802  C4         2.9920    4.7760   -2.7510 C.ar   40  DC40        0.1759
    803  N4         3.4550    3.9560   -3.6980 N.pl3  40  DC40       -0.1070
    804  C5         3.8910    5.5060   -1.9320 C.ar   40  DC40        0.0566
    805  C6         3.3770    6.3130   -0.9980 C.ar   40  DC40        0.0849
    806  P          1.1500    5.1650    4.0060 P.3    41  DT41        0.2141
    807  OP1        0.8680    5.1240    5.4810 O.3    41  DT41       -0.4373
    808  OP2        2.3690    4.4760    3.4660 O.2    41  DT41       -0.5172
    809  O5'       -0.0940    4.5020    3.2860 O.3    41  DT41       -0.3114
    810  C5'       -1.3950    4.9940    3.5180 C.3    41  DT41        0.1811
    811  C4'       -2.3560    3.9800    3.0420 C.3    41  DT41        0.1746
    812  O4'       -2.3320    3.9810    1.5930 O.3    41  DT41       -0.3327
    813  C3'       -1.8350    2.6140    3.4130 C.3    41  DT41        0.1558
    814  O3'       -2.0310    2.2360    4.7690 O.3    41  DT41       -0.3138
    815  C2'       -2.4100    1.7130    2.3360 C.3    41  DT41        0.0866
    816  C1'       -2.3700    2.6450    1.1210 C.3    41  DT41        0.2106
    817  N1        -1.2050    2.4200    0.3230 N.ar   41  DT41       -0.2559
    818  C2        -1.2320    1.3780   -0.5840 C.ar   41  DT41        0.3545
    819  O2        -2.2270    0.7070   -0.7950 O.2    41  DT41       -0.2443
    820  N3        -0.0470    1.1460   -1.2390 N.ar   41  DT41       -0.1533
    821  C4         1.1370    1.8370   -1.0820 C.ar   41  DT41        0.2804
    822  O4         2.1200    1.5120   -1.7430 O.2    41  DT41       -0.2654
    823  C5         1.0850    2.9040   -0.1220 C.ar   41  DT41        0.0534
    824  C6        -0.0550    3.1510    0.5290 C.ar   41  DT41        0.0824
    825  C7         2.3230    3.7150    0.1210 C.3    41  DT41        0.0377
    826  P         -0.6500    1.3950    5.5590 P.3    42  DT42        0.2141
    827  OP1       -0.8090    1.2780    7.0290 O.3    42  DT42       -0.4373
    828  OP2        0.6900    1.6890    4.9910 O.2    42  DT42       -0.5172
    829  O5'       -1.2120    0.0680    4.8770 O.3    42  DT42       -0.3114
    830  C5'       -2.6170   -0.1800    4.8370 C.3    42  DT42        0.1811
    831  C4'       -2.9570   -1.1540    3.7320 C.3    42  DT42        0.1746
    832  O4'       -2.5960   -0.5960    2.4410 O.3    42  DT42       -0.3327
    833  C3'       -2.2180   -2.4770    3.7700 C.3    42  DT42        0.1558
    834  O3'       -2.8350   -3.3730    4.6840 O.3    42  DT42       -0.3138
    835  C2'       -2.3510   -2.9580    2.3290 C.3    42  DT42        0.0866
    836  C1'       -2.2360   -1.6430    1.5540 C.3    42  DT42        0.2106
    837  N1        -0.8950   -1.4310    1.0550 N.ar   42  DT42       -0.2559
    838  C2        -0.5640   -1.9820   -0.1690 C.ar   42  DT42        0.3545
    839  O2        -1.3360   -2.6630   -0.8210 O.2    42  DT42       -0.2443
    840  N3         0.7100   -1.7070   -0.6040 N.ar   42  DT42       -0.1533
    841  C4         1.6640   -0.9530    0.0460 C.ar   42  DT42        0.2804
    842  O4         2.7660   -0.7940   -0.4730 O.2    42  DT42       -0.2654
    843  C5         1.2450   -0.4170    1.3100 C.ar   42  DT42        0.0534
    844  C6         0.0120   -0.6680    1.7580 C.ar   42  DT42        0.0824
    845  C7         2.2130    0.4170    2.0950 C.3    42  DT42        0.0377
    846  P         -2.2540   -4.7920    4.8390 P.3    43  DA43        0.2141
    847  OP1       -3.1780   -4.9730    5.9810 O.3    43  DA43       -0.4373
    848  OP2       -0.8740   -5.3250    4.8940 O.2    43  DA43       -0.5172
    849  O5'       -2.8840   -5.4650    3.5350 O.3    43  DA43       -0.3114
    850  C5'       -4.1210   -6.1510    3.5720 C.3    43  DA43        0.1811
    851  C4'       -3.9340   -7.5740    3.1160 C.3    43  DA43        0.1746
    852  O4'       -3.4230   -7.5880    1.7570 O.3    43  DA43       -0.3327
    853  C3'       -2.9060   -8.3770    3.8930 C.3    43  DA43        0.1558
    854  O3'       -3.4080   -8.8770    5.1180 O.3    43  DA43       -0.3138
    855  C2'       -2.5480   -9.4630    2.8940 C.3    43  DA43        0.0865
    856  C1'       -2.5380   -8.6730    1.5880 C.3    43  DA43        0.2094
    857  N9        -1.2840   -8.2660    1.1770 N.ar   43  DA43       -0.2714
    858  C8        -0.5970   -7.1100    1.4400 C.ar   43  DA43        0.1815
    859  N7         0.6710   -7.1590    1.1040 N.ar   43  DA43       -0.2193
    860  C5         0.8270   -8.4360    0.5870 C.ar   43  DA43        0.1518
    861  C6         1.9400   -9.1110    0.0560 C.ar   43  DA43        0.1919
    862  N6         3.1550   -8.5680   -0.0460 N.pl3  43  DA43       -0.1054
    863  N1         1.7570  -10.3780   -0.3720 N.ar   43  DA43       -0.2040
    864  C2         0.5390  -10.9220   -0.2710 C.ar   43  DA43        0.2016
    865  N3        -0.5820  -10.3880    0.2090 N.ar   43  DA43       -0.2048
    866  C4        -0.3680   -9.1290    0.6270 C.ar   43  DA43        0.1691
    867  P         -2.4250   -8.7160    6.2520 P.3    44  DT44        0.2141
    868  OP1       -3.4080   -8.6840    7.3600 O.3    44  DT44       -0.4373
    869  OP2       -1.3150   -7.7380    6.1670 O.2    44  DT44       -0.5172
    870  O5'       -1.6920  -10.1350    6.2660 O.3    44  DT44       -0.3114
    871  C5'       -2.4680  -11.3100    6.1080 C.3    44  DT44        0.1811
    872  C4'       -1.6270  -12.4410    5.5790 C.3    44  DT44        0.1746
    873  O4'       -1.1970  -12.1540    4.2210 O.3    44  DT44       -0.3327
    874  C3'       -0.3090  -12.6830    6.2970 C.3    44  DT44        0.1558
    875  O3'       -0.4360  -13.3030    7.5640 O.3    44  DT44       -0.3138
    876  C2'        0.4510  -13.5060    5.2670 C.3    44  DT44        0.0866
    877  C1'        0.0710  -12.7440    3.9960 C.3    44  DT44        0.2106
    878  N1         1.0880  -11.7320    3.7010 N.ar   44  DT44       -0.2559
    879  C2         2.3020  -12.0520    3.1230 C.ar   44  DT44        0.3545
    880  O2         2.6620  -13.1990    2.9270 O.2    44  DT44       -0.2443
    881  N3         3.0840  -10.9760    2.7810 N.ar   44  DT44       -0.1533
    882  C4         2.7820   -9.6420    2.9560 C.ar   44  DT44        0.2804
    883  O4         3.5870   -8.7870    2.5960 O.2    44  DT44       -0.2654
    884  C5         1.5050   -9.3910    3.5630 C.ar   44  DT44        0.0534
    885  C6         0.7240  -10.4190    3.9060 C.ar   44  DT44        0.0824
    886  C7         1.0840   -7.9700    3.7960 C.3    44  DT44        0.0377
    887  P          0.0690  -12.4520    8.5960 P.3    45  DT45        0.2141
    888  OP1       -0.2520  -13.0910    9.9030 O.3    45  DT45       -0.4373
    889  OP2        0.3750  -10.9920    8.5360 O.2    45  DT45       -0.5172
    890  O5'        1.2870  -13.2810    7.9970 O.3    45  DT45       -0.3114
    891  C5'        1.1150  -14.6730    7.8120 C.3    45  DT45        0.1811
    892  C4'        2.4270  -15.3510    7.5960 C.3    45  DT45        0.1746
    893  O4'        2.9690  -14.9530    6.3250 O.3    45  DT45       -0.3327
    894  C3'        3.4940  -15.0910    8.6350 C.3    45  DT45        0.1558
    895  O3'        4.1280  -16.3530    8.7590 O.3    45  DT45       -0.3138
    896  C2'        4.3460  -14.0150    7.9750 C.3    45  DT45        0.0866
    897  C1'        4.2530  -14.4120    6.5090 C.3    45  DT45        0.2106
    898  N1         4.6380  -13.4550    5.8910 N.ar   45  DT45       -0.2559
    899  C2         5.7530  -13.2480    5.1020 C.ar   45  DT45        0.3545
    900  O2         6.3340  -14.1490    4.5240 O.2    45  DT45       -0.2443
    901  N3         6.1680  -11.9410    5.0140 N.ar   45  DT45       -0.1533
    902  C4         5.5920  -10.8450    5.6230 C.ar   45  DT45        0.2804
    903  O4         6.0790   -9.7310    5.4480 O.2    45  DT45       -0.2654
    904  C5         4.4390  -11.1420    6.4250 C.ar   45  DT45        0.0534
    905  C6         4.0150  -12.4040    6.5280 C.ar   45  DT45        0.0824
    906  C7         3.7410  -10.0160    7.1290 C.3    45  DT45        0.0377
    907  P          5.2820  -16.4550    9.8360 P.3    46  DC46        0.2141
    908  OP1        5.1190  -17.7870   10.4790 O.2    46  DC46       -0.5172
    909  OP2        5.0770  -15.2190   10.6430 O.3    46  DC46       -0.4373
    910  O5'        6.6840  -16.3960    9.0530 O.3    46  DC46       -0.3114
    911  C5'        6.9990  -17.3590    8.0310 C.3    46  DC46        0.1811
    912  C4'        8.3780  -17.1240    7.4360 C.3    46  DC46        0.1746
    913  O4'        8.3680  -16.0690    6.4380 O.3    46  DC46       -0.3327
    914  C3'        9.4970  -16.7480    8.3860 C.3    46  DC46        0.1558
    915  O3'        9.9940  -17.8930    9.0720 O.3    46  DC46       -0.3138
    916  C2'       10.5170  -16.0990    7.4490 C.3    46  DC46        0.0866
    917  C1'        9.6140  -15.3830    6.4400 C.3    46  DC46        0.2106
    918  N1         9.4600  -14.0910    6.8220 N.ar   46  DC46       -0.2556
    919  C2        10.3460  -13.0670    6.4700 C.ar   46  DC46        0.3531
    920  O2        11.4020  -13.3640    5.8860 O.2    46  DC46       -0.2443
    921  N3        10.0290  -11.7860    6.7770 N.ar   46  DC46       -0.1739
    922  C4         8.8850  -11.5150    7.4060 C.ar   46  DC46        0.1759
    923  N4         8.6150  -10.2380    7.6870 N.pl3  46  DC46       -0.1070
    924  C5         7.9740  -12.5380    7.7710 C.ar   46  DC46        0.0566
    925  C6         8.2910  -13.8010    7.4660 C.ar   46  DC46        0.0849
    926  P         10.8130  -17.7340   10.5290 P.3    47  DA47        0.2141
    927  OP1       11.1450  -18.9470    9.7440 O.2    47  DA47       -0.5172
    928  OP2        9.9550  -17.8570   11.7350 O.3    47  DA47       -0.4373
    929  O5'       12.1710  -17.0150   10.9520 O.3    47  DA47       -0.3114
    930  C5'       13.4310  -17.4550   10.4190 C.3    47  DA47        0.1811
    931  C4'       14.3090  -16.2720   10.0740 C.3    47  DA47        0.1746
    932  O4'       13.6420  -15.4260    9.0990 O.3    47  DA47       -0.3327
    933  C3'       14.6460  -15.2880   11.1820 C.3    47  DA47        0.1558
    934  O3'       15.6640  -15.7610   12.0520 O.3    47  DA47       -0.3138
    935  C2'       15.1330  -14.0930   10.3760 C.3    47  DA47        0.0865
    936  C1'       14.1480  -14.1040    9.2070 C.3    47  DA47        0.2094
    937  N9        13.0940  -13.2080    9.4550 N.ar   47  DA47       -0.2714
    938  C8        11.7880  -13.6130    9.5430 C.ar   47  DA47        0.1815
    939  N7        10.9340  -12.6240    9.6570 N.ar   47  DA47       -0.2193
    940  C5        11.7340  -11.4920    9.6450 C.ar   47  DA47        0.1518
    941  C6        11.4350  -10.1210    9.7320 C.ar   47  DA47        0.1919
    942  N6        10.1940   -9.6410    9.8530 N.pl3  47  DA47       -0.1054
    943  N1        12.4660   -9.2510    9.6900 N.ar   47  DA47       -0.2040
    944  C2        13.7080   -9.7320    9.5680 C.ar   47  DA47        0.2016
    945  N3        14.1140  -10.9960    9.4760 N.ar   47  DA47       -0.2048
    946  C4        13.0670  -11.8360    9.5220 C.ar   47  DA47        0.1691
    947  P         15.7090  -15.2620   13.7350 P.3    48  DA48        0.2141
    948  OP1       16.7340  -16.0870   14.4290 O.3    48  DA48       -0.4373
    949  OP2       14.2830  -15.3770   14.1320 O.2    48  DA48       -0.5172
    950  O5'       16.1470  -13.7340   13.8530 O.3    48  DA48       -0.3114
    951  C5'       17.5330  -13.3610   13.7740 C.3    48  DA48        0.1811
    952  C4'       17.6910  -11.8850   14.0380 C.3    48  DA48        0.1746
    953  O4'       17.0250  -11.1360   12.9880 O.3    48  DA48       -0.3327
    954  C3'       17.0450  -11.3720   15.3150 C.3    48  DA48        0.1558
    955  O3'       17.8500  -11.6080   16.4640 O.3    48  DA48       -0.3138
    956  C2'       16.8680   -9.8920   15.0040 C.3    48  DA48        0.0865
    957  C1'       16.4530   -9.9560   13.5340 C.3    48  DA48        0.2094
    958  N9        14.9990  -10.0430   13.3840 N.ar   48  DA48       -0.2714
    959  C8        14.2370  -11.1700   13.2160 C.ar   48  DA48        0.1815
    960  N7        12.9520  -10.9290   13.1090 N.ar   48  DA48       -0.2193
    961  C5        12.8640   -9.5500   13.2140 C.ar   48  DA48        0.1518
    962  C6        11.7700   -8.6670   13.1780 C.ar   48  DA48        0.1919
    963  N6        10.5050   -9.0620   13.0190 N.pl3  48  DA48       -0.1054
    964  N1        12.0260   -7.3480   13.3130 N.ar   48  DA48       -0.2040
    965  C2        13.2940   -6.9520   13.4720 C.ar   48  DA48        0.2016
    966  N3        14.4030   -7.6860   13.5210 N.ar   48  DA48       -0.2048
    967  C4        14.1160   -8.9910   13.3850 C.ar   48  DA48        0.1691
    968  P         17.1320  -12.1630   17.8350 P.3    49  DT49        0.2141
    969  OP1       18.1000  -12.6240   18.8660 O.3    49  DT49       -0.4373
    970  OP2       15.7950  -12.8100   17.7430 O.2    49  DT49       -0.5172
    971  O5'       16.9080  -10.6000   18.0210 O.3    49  DT49       -0.3114
    972  C5'       18.0190   -9.6890   17.9650 C.3    49  DT49        0.1811
    973  C4'       17.5270   -8.2700   18.0820 C.3    49  DT49        0.1746
    974  O4'       16.6870   -7.9580   16.9400 O.3    49  DT49       -0.3327
    975  C3'       16.6270   -8.0120   19.2740 C.3    49  DT49        0.1558
    976  O3'       17.3740   -7.7850   20.4580 O.3    49  DT49       -0.3138
    977  C2'       15.8380   -6.7930   18.8250 C.3    49  DT49        0.0866
    978  C1'       15.6150   -7.1200   17.3480 C.3    49  DT49        0.2106
    979  N1        14.3140   -7.8370   17.1210 N.ar   49  DT49       -0.2559
    980  C2        13.1950   -7.0310   17.0410 C.ar   49  DT49        0.3545
    981  O2        13.2520   -5.8140   17.0230 O.2    49  DT49       -0.2443
    982  N3        11.9980   -7.7040   16.9850 N.ar   49  DT49       -0.1533
    983  C4        11.8130   -9.0700   17.0000 C.ar   49  DT49        0.2804
    984  O4        10.6740   -9.5270   16.9420 O.2    49  DT49       -0.2654
    985  C5        13.0230   -9.8380   17.0850 C.ar   49  DT49        0.0534
    986  C6        14.2000   -9.2100   17.1410 C.ar   49  DT49        0.0824
    987  C7        12.9270  -11.3350   17.1080 C.3    49  DT49        0.0377
    988  P         16.6690   -8.1810   22.0400 P.3    50  DT50        0.2141
    989  OP1       17.7190   -8.1570   23.0930 O.3    50  DT50       -0.4373
    990  OP2       15.5160   -9.1010   22.1660 O.2    50  DT50       -0.5172
    991  O5'       16.0430   -6.7110   21.8240 O.3    50  DT50       -0.3114
    992  C5'       16.7230   -5.5110   22.2090 C.3    50  DT50        0.1811
    993  C4'       15.8460   -4.3040   21.9610 C.3    50  DT50        0.1746
    994  O4'       15.1350   -4.4680   20.7170 O.3    50  DT50       -0.3327
    995  C3'       14.6720   -4.1630   22.9000 C.3    50  DT50        0.1558
    996  O3'       15.0330   -3.6890   24.1620 O.3    50  DT50       -0.3138
    997  C2'       13.7820   -3.1900   22.1500 C.3    50  DT50        0.0866
    998  C1'       13.8490   -3.8650   20.7950 C.3    50  DT50        0.2106
    999  N1        12.8530   -4.8570   20.4220 N.ar   50  DT50       -0.2559
   1000  C2        11.7130   -4.4450   19.7590 C.ar   50  DT50        0.3545
   1001  O2        11.4510   -3.2720   19.5550 O.2    50  DT50       -0.2443
   1002  N3        10.8850   -5.4580   19.3410 N.ar   50  DT50       -0.1533
   1003  C4        11.0780   -6.8130   19.5160 C.ar   50  DT50        0.2804
   1004  O4        10.2430   -7.6030   19.0830 O.2    50  DT50       -0.2654
   1005  C5        12.2830   -7.1610   20.2140 C.ar   50  DT50        0.0534
   1006  C6        13.1070   -6.1960   20.6310 C.ar   50  DT50        0.0824
   1007  C7        12.5830   -8.6110   20.4550 C.3    50  DT50        0.0377
   1008  P         14.3340   -4.2770   25.1470 P.3    51  DA51        0.2141
   1009  OP1       15.3820   -3.6090   25.9560 O.3    51  DA51       -0.4373
   1010  OP2       13.9760   -5.6960   25.3800 O.2    51  DA51       -0.5172
   1011  O5'       12.9460   -3.4860   25.2710 O.3    51  DA51       -0.3114
   1012  C5'       12.9580   -2.0850   25.0120 C.3    51  DA51        0.1811
   1013  C4'       11.5870   -1.4810   24.7980 C.3    51  DA51        0.1746
   1014  O4'       11.1150   -1.8700   23.4780 O.3    51  DA51       -0.3327
   1015  C3'       10.5010   -1.9080   25.7830 C.3    51  DA51        0.1558
   1016  O3'       10.1450   -0.9170   26.7380 O.3    51  DA51       -0.3138
   1017  C2'        9.2730   -2.2170   24.9360 C.3    51  DA51        0.0865
   1018  C1'        9.7600   -2.2630   23.5040 C.3    51  DA51        0.2094
   1019  N9         9.6830   -3.5980   23.0450 N.ar   51  DA51       -0.2714
   1020  C8        10.3620   -4.6790   23.5440 C.ar   51  DA51        0.1815
   1021  N7         9.9540   -5.8290   23.0620 N.ar   51  DA51       -0.2193
   1022  C5         8.9370   -5.4800   22.1870 C.ar   51  DA51        0.1518
   1023  C6         8.0990   -6.2450   21.3570 C.ar   51  DA51        0.1919
   1024  N6         8.1580   -7.5760   21.2720 N.pl3  51  DA51       -0.1054
   1025  N1         7.1880   -5.5860   20.6090 N.ar   51  DA51       -0.2040
   1026  C2         7.1300   -4.2520   20.6940 C.ar   51  DA51        0.2016
   1027  N3         7.8640   -3.4250   21.4350 N.ar   51  DA51       -0.2048
   1028  C4         8.7580   -4.1100   22.1670 C.ar   51  DA51        0.1691
   1029  P         10.0900   -1.6520   27.9220 P.3    52  DC52        0.2141
   1030  OP1       10.0540   -0.8360   29.1560 O.3    52  DC52       -0.4373
   1031  OP2       10.9360   -2.8630   27.8590 O.2    52  DC52       -0.5172
   1032  O5'        8.6090   -2.1250   27.5500 O.3    52  DC52       -0.3114
   1033  C5'        7.5740   -1.2390   27.9330 C.3    52  DC52        0.1811
   1034  C4'        6.2930   -1.4660   27.1760 C.3    52  DC52        0.1746
   1035  O4'        6.5810   -1.9390   25.8360 O.3    52  DC52       -0.3327
   1036  C3'        5.3560   -2.5390   27.7080 C.3    52  DC52        0.1558
   1037  O3'        4.6480   -2.1550   28.8710 O.3    52  DC52       -0.3138
   1038  C2'        4.4560   -2.7500   26.5010 C.3    52  DC52        0.0866
   1039  C1'        5.4870   -2.7140   25.3720 C.3    52  DC52        0.2106
   1040  N1         5.9240   -4.0890   24.9220 N.ar   52  DC52       -0.2556
   1041  C2         5.0530   -4.8640   24.1480 C.ar   52  DC52        0.3531
   1042  O2         3.9020   -4.4440   23.9410 O.2    52  DC52       -0.2443
   1043  N3         5.4880   -6.0450   23.6480 N.ar   52  DC52       -0.1739
   1044  C4         6.7320   -6.4560   23.8970 C.ar   52  DC52        0.1759
   1045  N4         7.1170   -7.6270   23.3840 N.pl3  52  DC52       -0.1070
   1046  C5         7.6300   -5.6860   24.6790 C.ar   52  DC52        0.0566
   1047  C6         7.1960   -4.5200   25.1700 C.ar   52  DC52        0.0849
   1048  P          4.4640   -3.2110   30.0570 P.3    53  DG53        0.2141
   1049  OP1        3.7990   -2.0010   30.5880 O.2    53  DG53       -0.5172
   1050  OP2        4.7920   -4.3430   30.9510 O.3    53  DG53       -0.4373
   1051  O5'        3.5560   -3.8690   28.9110 O.3    53  DG53       -0.3114
   1052  C5'        2.5900   -3.0950   28.2080 C.3    53  DG53        0.1811
   1053  C4'        1.4740   -3.9390   27.6340 C.3    53  DG53        0.1746
   1054  O4'        1.9240   -4.6320   26.4410 O.3    53  DG53       -0.3327
   1055  C3'        0.9270   -5.0430   28.5290 C.3    53  DG53        0.1558
   1056  O3'       -0.0250   -4.5640   29.4650 O.3    53  DG53       -0.3138
   1057  C2'        0.3480   -6.0460   27.5350 C.3    53  DG53        0.0865
   1058  C1'        1.2920   -5.8930   26.3390 C.3    53  DG53        0.2094
   1059  N9         2.5320   -6.8570   26.2030 N.ar   53  DG53       -0.2713
   1060  C8         3.8100   -6.8010   26.7030 C.ar   53  DG53        0.1816
   1061  N7         4.4830   -7.9060   26.5240 N.ar   53  DG53       -0.2173
   1062  C5         3.6000   -8.7420   25.8650 C.ar   53  DG53        0.1748
   1063  C6         3.7590  -10.0750   25.4060 C.ar   53  DG53        0.3023
   1064  O6         4.7550  -10.8020   25.4980 O.2    53  DG53       -0.2633
   1065  N1         2.6070  -10.5530   24.7880 N.ar   53  DG53       -0.1709
   1066  C2         1.4460   -9.8350   24.6300 C.ar   53  DG53        0.2606
   1067  N2         0.4420  -10.4660   24.0060 N.pl3  53  DG53       -0.0859
   1068  N3         1.2830   -8.5970   25.0520 N.ar   53  DG53       -0.1918
   1069  C4         2.3880   -8.1120   25.6570 C.ar   53  DG53        0.1722
   1070  P         -0.3810   -5.2120   30.6810 P.3    54  DT54        0.2141
   1071  OP1       -0.9510   -4.5100   31.8610 O.3    54  DT54       -0.4373
   1072  OP2        0.6240   -6.2790   30.8830 O.2    54  DT54       -0.5172
   1073  O5'       -1.5400   -5.8330   29.7930 O.3    54  DT54       -0.3114
   1074  C5'       -2.2720   -6.9040   30.3000 C.3    54  DT54        0.1812
   1075  C4'       -2.3960   -8.0020   29.2860 C.3    54  DT54        0.1775
   1076  O4'       -1.2620   -8.1130   28.3730 O.3    54  DT54       -0.3326
   1077  C3'       -2.4040   -9.3430   29.9740 C.3    54  DT54        0.1859
   1078  O3'       -3.5700   -9.5540   30.7280 O.3    54  DT54       -0.2203
   1079  C2'       -2.0920  -10.3010   28.8360 C.3    54  DT54        0.0895
   1080  C1'       -1.0550   -9.4930   28.0460 C.3    54  DT54        0.2107
   1081  N1         0.1990   -9.8950   28.3810 N.ar   54  DT54       -0.2559
   1082  C2         0.7710  -11.1140   28.0720 C.ar   54  DT54        0.3545
   1083  O2         0.1360  -12.0510   27.6220 O.2    54  DT54       -0.2443
   1084  N3         2.1220  -11.1990   28.3110 N.ar   54  DT54       -0.1533
   1085  C4         2.9380  -10.2090   28.8160 C.ar   54  DT54        0.2804
   1086  O4         4.1360  -10.4350   28.9740 O.2    54  DT54       -0.2654
   1087  C5         2.2700   -8.9730   29.1130 C.ar   54  DT54        0.0534
   1088  C6         0.9570   -8.8640   28.8900 C.ar   54  DT54        0.0824
   1089  C7         3.0730   -7.8340   29.6680 C.3    54  DT54        0.0377
   1090  P         -3.3940  -10.1770   32.2630 P.3    55  DC55        0.5411
   1091  OP1       -3.8280  -10.0600   33.6740 O.2    55  DC55       -0.2272
   1092  OP2       -2.2090  -11.0070   31.9540 O.2    55  DC55       -0.2272
   1093  O5'       -4.6140  -10.6800   31.3550 O.3    55  DC55       -0.2722
   1094  C5'       -4.9340  -12.0540   31.3640 C.3    55  DC55        0.1851
   1095  C4'       -4.7540  -12.7170   30.0090 C.3    55  DC55        0.1776
   1096  O4'       -3.8350  -12.0200   29.1310 O.3    55  DC55       -0.3326
   1097  C3'       -4.1110  -14.0930   30.0370 C.3    55  DC55        0.1859
   1098  O3'       -4.9270  -15.0410   30.6960 O.3    55  DC55       -0.2202
   1099  C2'       -3.9240  -14.3100   28.5360 C.3    55  DC55        0.0895
   1100  C1'       -3.2500  -12.9730   28.2480 C.3    55  DC55        0.2107
   1101  N1        -1.7350  -13.1790   28.6000 N.ar   55  DC55       -0.2556
   1102  C2        -0.8560  -13.9880   27.8700 C.ar   55  DC55        0.3531
   1103  O2        -1.3200  -14.7270   26.9850 O.2    55  DC55       -0.2443
   1104  N3         0.4680  -13.9430   28.1490 N.ar   55  DC55       -0.1739
   1105  C4         0.9210  -13.1350   29.1090 C.ar   55  DC55        0.1759
   1106  N4         2.2340  -13.1240   29.3490 N.pl3  55  DC55       -0.1070
   1107  C5         0.0470  -12.3070   29.8600 C.ar   55  DC55        0.0566
   1108  C6        -1.2600  -12.3550   29.5810 C.ar   55  DC55        0.0849
   1109  P         -4.4860  -15.5510   32.0280 P.3    56  DT56        0.4149
   1110  OP1       -5.0450  -16.5660   32.9650 O.3    56  DT56       -0.1481
   1111  OP2       -3.2680  -14.8090   32.4110 O.2    56  DT56       -0.2668
   1112  O5'       -4.2330  -16.2520   30.6190 O.3    56  DT56       -0.2177
   1113  C5'       -5.0830  -17.3170   30.1430 C.3    56  DT56        0.2140
   1114  C4'       -4.2440  -18.5190   29.7580 C.3    56  DT56        0.1776
   1115  O4'       -3.3480  -18.1620   28.6750 O.3    56  DT56       -0.3326
   1116  C3'       -3.3390  -19.0440   30.8600 C.3    56  DT56        0.1559
   1117  O3'       -4.0910  -19.9740   31.6360 O.3    56  DT56       -0.3138
   1118  C2'       -2.2080  -19.7120   30.0840 C.3    56  DT56        0.0866
   1119  C1'       -2.1070  -18.8240   28.8410 C.3    56  DT56        0.2106
   1120  N1        -1.0520  -17.7620   29.1240 N.ar   56  DT56       -0.2559
   1121  C2         0.2130  -18.1590   28.7310 C.ar   56  DT56        0.3545
   1122  O2         0.4100  -19.0910   27.9720 O.2    56  DT56       -0.2443
   1123  N3         1.2440  -17.4250   29.2640 N.ar   56  DT56       -0.1533
   1124  C4         1.1410  -16.3560   30.1300 C.ar   56  DT56        0.2804
   1125  O4         2.1600  -15.7950   30.5230 O.2    56  DT56       -0.2654
   1126  C5        -0.2040  -16.0050   30.4910 C.ar   56  DT56        0.0534
   1127  C6        -1.2260  -16.7030   29.9870 C.ar   56  DT56        0.0824
   1128  C7        -0.4210  -14.8550   31.4300 C.3    56  DT56        0.0377
   1129  P         -3.7740  -20.2100   33.3410 P.3    57  DG57        0.2141
   1130  OP1       -4.8240  -20.7810   34.2220 O.3    57  DG57       -0.4373
   1131  OP2       -2.9470  -19.0850   33.8350 O.2    57  DG57       -0.5172
   1132  O5'       -2.7230  -21.3000   32.8370 O.3    57  DG57       -0.3114
   1133  C5'       -3.1070  -22.3110   31.9270 C.3    57  DG57        0.1811
   1134  C4'       -1.8890  -22.9500   31.2830 C.3    57  DG57        0.1746
   1135  O4'       -1.1240  -21.9510   30.5660 O.3    57  DG57       -0.3327
   1136  C3'       -0.8440  -23.6400   32.1510 C.3    57  DG57        0.1558
   1137  O3'       -1.2040  -24.9420   32.5860 O.3    57  DG57       -0.3138
   1138  C2'        0.3440  -23.6970   31.2050 C.3    57  DG57        0.0865
   1139  C1'        0.2270  -22.3560   30.4950 C.3    57  DG57        0.2094
   1140  N9         1.1000  -21.3990   31.2610 N.ar   57  DG57       -0.2713
   1141  C8         0.6450  -20.3080   31.9610 C.ar   57  DG57        0.1816
   1142  N7         1.6040  -19.5320   32.3870 N.ar   57  DG57       -0.2173
   1143  C5         2.7620  -20.1420   31.9430 C.ar   57  DG57        0.1748
   1144  C6         4.1220  -19.7680   32.0990 C.ar   57  DG57        0.3023
   1145  O6         4.5810  -18.7810   32.6870 O.2    57  DG57       -0.2633
   1146  N1         4.9850  -20.6740   31.4890 N.ar   57  DG57       -0.1709
   1147  C2         4.5870  -21.8020   30.8120 C.ar   57  DG57        0.2606
   1148  N2         5.5660  -22.5540   30.2890 N.pl3  57  DG57       -0.0859
   1149  N3         3.3280  -22.1630   30.6580 N.ar   57  DG57       -0.1918
   1150  C4         2.4720  -21.2980   31.2430 C.ar   57  DG57        0.1722
   1151  P         -1.0690  -25.2730   34.0430 P.3    58  DC58        0.2141
   1152  OP1       -2.0630  -26.3530   34.2180 O.2    58  DC58       -0.5172
   1153  OP2       -1.3030  -23.9390   34.6830 O.3    58  DC58       -0.4373
   1154  O5'        0.3320  -25.8520   34.5370 O.3    58  DC58       -0.3114
   1155  C5'        0.9220  -26.9630   33.8760 C.3    58  DC58        0.1811
   1156  C4'        2.4220  -26.9410   34.0320 C.3    58  DC58        0.1746
   1157  O4'        3.0230  -25.8580   33.2660 O.3    58  DC58       -0.3327
   1158  C3'        2.9470  -26.6670   35.4230 C.3    58  DC58        0.1558
   1159  O3'        2.8360  -27.7850   36.2690 O.3    58  DC58       -0.3138
   1160  C2'        4.3950  -26.3650   35.1120 C.3    58  DC58        0.0866
   1161  C1'        4.2280  -25.4480   33.9040 C.3    58  DC58        0.2106
   1162  N1         4.0900  -24.0290   34.3860 N.ar   58  DC58       -0.2556
   1163  C2         5.2210  -23.3030   34.7770 C.ar   58  DC58        0.3531
   1164  O2         6.3100  -23.8960   34.8670 O.2    58  DC58       -0.2443
   1165  N3         5.0960  -21.9820   35.0470 N.ar   58  DC58       -0.1739
   1166  C4         3.9070  -21.3880   34.9380 C.ar   58  DC58        0.1759
   1167  N4         3.8320  -20.0840   35.2140 N.pl3  58  DC58       -0.1070
   1168  C5         2.7490  -22.1060   34.5430 C.ar   58  DC58        0.0566
   1169  C6         2.8770  -23.4100   34.2780 C.ar   58  DC58        0.0849
   1170  P          2.5320  -27.5140   37.6230 P.3    59  DA59        0.2141
   1171  OP1        2.0790  -28.7740   38.2530 O.3    59  DA59       -0.4373
   1172  OP2        1.6340  -26.3290   37.6230 O.2    59  DA59       -0.5172
   1173  O5'        3.8880  -27.0880   38.3350 O.3    59  DA59       -0.3114
   1174  C5'        5.0170  -27.9680   38.3080 C.3    59  DA59        0.1811
   1175  C4'        6.1120  -27.4560   39.2040 C.3    59  DA59        0.1746
   1176  O4'        6.7310  -26.2800   38.6230 O.3    59  DA59       -0.3327
   1177  C3'        5.6940  -27.0030   40.5870 C.3    59  DA59        0.1558
   1178  O3'        5.4830  -28.0710   41.4960 O.3    59  DA59       -0.3138
   1179  C2'        6.8590  -26.1110   40.9830 C.3    59  DA59        0.0865
   1180  C1'        7.1750  -25.4210   39.6570 C.3    59  DA59        0.2094
   1181  N9         6.4870  -24.1240   39.6030 N.ar   59  DA59       -0.2714
   1182  C8         5.3860  -23.7860   38.8600 C.ar   59  DA59        0.1815
   1183  N7         5.0070  -22.5400   39.0130 N.ar   59  DA59       -0.2193
   1184  C5         5.9200  -22.0240   39.9190 C.ar   59  DA59        0.1518
   1185  C6         6.0650  -20.7490   40.4940 C.ar   59  DA59        0.1919
   1186  N6         5.2560  -19.7210   40.2270 N.pl3  59  DA59       -0.1054
   1187  N1         7.0820  -20.5660   41.3620 N.ar   59  DA59       -0.2040
   1188  C2         7.8930  -21.5960   41.6290 C.ar   59  DA59        0.2016
   1189  N3         7.8590  -22.8380   41.1510 N.ar   59  DA59       -0.2048
   1190  C4         6.8370  -22.9880   40.2920 C.ar   59  DA59        0.1691
   1191  P          4.3970  -27.8430   42.5240 P.3    60  DC60        0.2141
   1192  OP1        3.6430  -29.0190   43.0220 O.3    60  DC60       -0.4373
   1193  OP2        3.8050  -26.9690   41.4850 O.2    60  DC60       -0.5172
   1194  O5'        4.7810  -26.8870   43.7490 O.3    60  DC60       -0.3115
   1195  C5'        5.7920  -27.2370   44.6950 C.3    60  DC60        0.1785
   1196  C4'        6.6580  -26.0370   44.9930 C.3    60  DC60        0.1473
   1197  O4'        6.7240  -25.2200   43.7930 O.3    60  DC60       -0.3372
   1198  C3'        6.1490  -25.0560   46.0240 C.3    60  DC60        0.0404
   1199  O3'        6.4660  -25.5160   47.3310 O.3    60  DC60       -0.1229
   1200  C2'        6.9420  -23.8000   45.6680 C.3    60  DC60        0.0942
   1201  C1'        6.9410  -23.8650   44.1490 C.3    60  DC60        0.2010
   1202  N1         5.8500  -23.0550   43.5820 N.pl3  60  DC60       -0.2149
   1203  C2         5.8120  -21.6580   43.6640 C.2    60  DC60        0.4075
   1204  O2         6.6180  -21.0810   44.4140 O.2    60  DC60       -0.4300
   1205  N3         4.9000  -20.9790   42.9280 N.2    60  DC60        0.0217
   1206  C4         4.0540  -21.6410   42.1380 C.2    60  DC60        0.4171
   1207  N4         3.1730  -20.9290   41.4310 N.pl3  60  DC60        0.2162
   1208  C5         4.0770  -23.0560   42.0400 C.2    60  DC60        0.0937
   1209  C6         4.9780  -23.7230   42.7690 C.3    60  DC60        0.1339
   1210  P          5.8660  -24.9650   48.2080 P.3    61  DA61        0.4174
   1211  OP1        6.9160  -25.7990   47.5840 O.3    61  DA61       -0.0277
   1212  OP2        5.5290  -25.1610   49.6340 O.2    61  DA61       -0.2667
   1213  O5'        6.3630  -23.4420   48.1460 O.3    61  DA61       -0.2176
   1214  C5'        6.2120  -22.6390   49.3110 C.3    61  DA61        0.2140
   1215  C4'        7.1670  -21.4690   49.3710 C.3    61  DA61        0.1776
   1216  O4'        8.5210  -21.9550   49.5890 O.3    61  DA61       -0.3326
   1217  C3'        7.2070  -20.5860   48.1240 C.3    61  DA61        0.1559
   1218  O3'        6.6950  -19.2750   48.3400 O.3    61  DA61       -0.3138
   1219  C2'        8.6800  -20.4680   47.7430 C.3    61  DA61        0.0865
   1220  C1'        9.4540  -21.2540   48.7910 C.3    61  DA61        0.2094
   1221  N9         9.9920  -22.1580   47.7050 N.ar   61  DA61       -0.2714
   1222  C8         9.6240  -23.4450   47.4110 C.ar   61  DA61        0.1815
   1223  N7        10.3840  -24.0210   46.5110 N.ar   61  DA61       -0.2193
   1224  C5        11.3150  -23.0460   46.1900 C.ar   61  DA61        0.1518
   1225  C6        12.4000  -23.0310   45.2950 C.ar   61  DA61        0.1919
   1226  N6        12.7410  -24.0700   44.5300 N.pl3  61  DA61       -0.1054
   1227  N1        13.1290  -21.8980   45.2140 N.ar   61  DA61       -0.2040
   1228  C2        12.7870  -20.8570   45.9820 C.ar   61  DA61        0.2016
   1229  N3        11.7920  -20.7510   46.8600 N.ar   61  DA61       -0.2048
   1230  C4        11.0860  -21.8930   46.9160 C.ar   61  DA61        0.1691
   1231  P          5.8540  -18.5720   46.9880 P.3    62  DT62        0.2141
   1232  OP1        4.8040  -17.5520   47.2090 O.3    62  DT62       -0.4373
   1233  OP2        5.4990  -19.9280   46.5160 O.2    62  DT62       -0.5172
   1234  O5'        6.8810  -18.0210   45.8880 O.3    62  DT62       -0.3114
   1235  C5'        7.5910  -16.8110   46.1050 C.3    62  DT62        0.1811
   1236  C4'        8.9620  -16.8280   45.4660 C.3    62  DT62        0.1746
   1237  O4'        9.6410  -18.0720   45.7640 O.3    62  DT62       -0.3327
   1238  C3'        9.0230  -16.7430   43.9470 C.3    62  DT62        0.1558
   1239  O3'        8.8560  -15.4190   43.4670 O.3    62  DT62       -0.3138
   1240  C2'       10.3990  -17.3240   43.6430 C.3    62  DT62        0.0866
   1241  C1'       10.5250  -18.4000   44.7150 C.3    62  DT62        0.2106
   1242  N1        10.2040  -19.5980   44.2030 N.ar   62  DT62       -0.2557
   1243  C2        10.9990  -20.2230   43.2610 C.ar   62  DT62        0.3545
   1244  O2        11.9830  -19.7000   42.7690 O.2    62  DT62       -0.2443
   1245  N3        10.5970  -21.4900   42.9110 N.ar   62  DT62       -0.1532
   1246  C4         9.5060  -22.1790   43.3970 C.ar   62  DT62        0.2838
   1247  O4         9.2740  -23.3130   42.9870 O.2    62  DT62       -0.2652
   1248  C5         8.7310  -21.4620   44.3710 C.ar   62  DT62        0.0928
   1249  C6         9.0980  -20.2290   44.7290 C.ar   62  DT62        0.0859
   1250  C7         7.5220  -22.1270   44.9600 C.3    62  DT62        0.2033
   1251  P          8.3110  -15.0510   41.8360 P.3    63  DA63        0.2141
   1252  OP1        8.0460  -13.6350   41.4910 O.3    63  DA63       -0.4373
   1253  OP2        7.5360  -16.1550   41.2240 O.2    63  DA63       -0.5172
   1254  O5'        9.8390  -15.3660   41.4650 O.3    63  DA63       -0.3114
   1255  C5'       10.8170  -14.3340   41.3880 C.3    63  DA63        0.1811
   1256  C4'       12.0840  -14.7760   40.6830 C.3    63  DA63        0.1746
   1257  O4'       12.4750  -16.1020   41.1270 O.3    63  DA63       -0.3327
   1258  C3'       12.0430  -14.8610   39.1600 C.3    63  DA63        0.1558
   1259  O3'       12.3360  -13.6050   38.5680 O.3    63  DA63       -0.3138
   1260  C2'       13.0780  -15.9330   38.8370 C.3    63  DA63        0.0865
   1261  C1'       13.0020  -16.8530   40.0550 C.3    63  DA63        0.2094
   1262  N9        11.9220  -18.0010   39.7770 N.ar   63  DA63       -0.2714
   1263  C8        10.6380  -18.1170   40.2430 C.ar   63  DA63        0.1815
   1264  N7        10.0250  -19.2050   39.8410 N.ar   63  DA63       -0.2193
   1265  C5        10.9700  -19.8470   39.0560 C.ar   63  DA63        0.1518
   1266  C6        10.9400  -21.0550   38.3370 C.ar   63  DA63        0.1919
   1267  N6         9.8790  -21.8630   38.2940 N.pl3  63  DA63       -0.1054
   1268  N1        12.0520  -21.4070   37.6570 N.ar   63  DA63       -0.2040
   1269  C2        13.1160  -20.5970   37.7010 C.ar   63  DA63        0.2016
   1270  N3        13.2640  -19.4390   38.3410 N.ar   63  DA63       -0.2048
   1271  C4        12.1430  -19.1170   39.0060 C.ar   63  DA63        0.1691
   1272  P         12.3800  -13.2850   36.9430 P.3    64  DC64        0.2141
   1273  OP1       13.2070  -12.1430   36.4810 O.2    64  DC64       -0.5172
   1274  OP2       10.9170  -13.0910   37.0740 O.3    64  DC64       -0.4373
   1275  O5'       12.6880  -14.5590   36.0220 O.3    64  DC64       -0.3114
   1276  C5'       14.0380  -14.9940   35.7910 C.3    64  DC64        0.1811
   1277  C4'       14.0720  -16.4390   35.3280 C.3    64  DC64        0.1746
   1278  O4'       13.3110  -17.2640   36.2410 O.3    64  DC64       -0.3327
   1279  C3'       13.3880  -16.6660   33.9920 C.3    64  DC64        0.1558
   1280  O3'       14.2790  -16.4460   32.9300 O.3    64  DC64       -0.3138
   1281  C2'       12.9650  -18.1280   34.0570 C.3    64  DC64        0.0866
   1282  C1'       12.5920  -18.2500   35.5190 C.3    64  DC64        0.2106
   1283  N1        11.1220  -18.0750   35.7440 N.ar   64  DC64       -0.2556
   1284  C2        10.2550  -19.0860   35.3140 C.ar   64  DC64        0.3531
   1285  O2        10.7400  -20.1170   34.8170 O.2    64  DC64       -0.2443
   1286  N3         8.9190  -18.9120   35.4500 N.ar   64  DC64       -0.1739
   1287  C4         8.4440  -17.7880   35.9880 C.ar   64  DC64        0.1759
   1288  N4         7.1200  -17.6610   36.1020 N.pl3  64  DC64       -0.1070
   1289  C5         9.3050  -16.7510   36.4300 C.ar   64  DC64        0.0566
   1290  C6        10.6240  -16.9280   36.2940 C.ar   64  DC64        0.0849
   1291  P         13.6840  -15.7550   31.6120 P.3    65  DC65        0.2141
   1292  OP1       14.8320  -15.4810   30.7110 O.2    65  DC65       -0.5172
   1293  OP2       12.4670  -14.9040   31.5310 O.3    65  DC65       -0.4373
   1294  O5'       13.2200  -17.2700   31.4520 O.3    65  DC65       -0.3114
   1295  C5'       14.1630  -18.3120   31.1380 C.3    65  DC65        0.1811
   1296  C4'       13.4360  -19.5170   30.5930 C.3    65  DC65        0.1746
   1297  O4'       12.6560  -20.1410   31.6490 O.3    65  DC65       -0.3327
   1298  C3'       12.4000  -19.1840   29.5350 C.3    65  DC65        0.1558
   1299  O3'       12.9660  -18.9890   28.2540 O.3    65  DC65       -0.3138
   1300  C2'       11.4690  -20.3790   29.6070 C.3    65  DC65        0.0866
   1301  C1'       11.4170  -20.6020   31.1180 C.3    65  DC65        0.2106
   1302  N1        10.3010  -19.8730   31.8070 N.ar   65  DC65       -0.2556
   1303  C2         9.0270  -20.4470   31.7240 C.ar   65  DC65        0.3531
   1304  O2         8.9110  -21.5730   31.2130 O.2    65  DC65       -0.2443
   1305  N3         7.9620  -19.7590   32.2010 N.ar   65  DC65       -0.1739
   1306  C4         8.1350  -18.5520   32.7410 C.ar   65  DC65        0.1759
   1307  N4         7.0560  -17.9120   33.1980 N.pl3  65  DC65       -0.1070
   1308  C5         9.4170  -17.9530   32.8340 C.ar   65  DC65        0.0566
   1309  C6        10.4660  -18.6360   32.3620 C.ar   65  DC65        0.0849
   1310  P         12.4080  -17.7970   27.3380 P.3    66  DA66        0.2141
   1311  OP1       13.0060  -17.6270   25.9980 O.2    66  DA66       -0.5172
   1312  OP2       11.7980  -16.6260   28.0090 O.3    66  DA66       -0.4373
   1313  O5'       11.2240  -18.8770   27.2120 O.3    66  DA66       -0.3114
   1314  C5'       11.3920  -20.0760   26.4540 C.3    66  DA66        0.1811
   1315  C4'       10.0810  -20.6690   25.9940 C.3    66  DA66        0.1746
   1316  O4'        9.2870  -20.9490   27.1780 O.3    66  DA66       -0.3327
   1317  C3'        9.2380  -19.7670   25.0870 C.3    66  DA66        0.1558
   1318  O3'        8.8780  -20.3510   23.8280 O.3    66  DA66       -0.3138
   1319  C2'        7.9680  -19.4720   25.8800 C.3    66  DA66        0.0865
   1320  C1'        7.9890  -20.3950   27.0840 C.3    66  DA66        0.2094
   1321  N9         7.7990  -19.8580   28.2730 N.ar   66  DA66       -0.2714
   1322  C8         8.5150  -18.8740   28.9030 C.ar   66  DA66        0.1815
   1323  N7         7.7690  -17.9880   29.5190 N.ar   66  DA66       -0.2193
   1324  C5         6.4740  -18.4190   29.2770 C.ar   66  DA66        0.1518
   1325  C6         5.2200  -17.9110   29.6610 C.ar   66  DA66        0.1919
   1326  N6         5.0640  -16.8110   30.4010 N.pl3  66  DA66       -0.1054
   1327  N1         4.1210  -18.5800   29.2520 N.ar   66  DA66       -0.2040
   1328  C2         4.2800  -19.6830   28.5110 C.ar   66  DA66        0.2016
   1329  N3         5.4030  -20.2580   28.0890 N.ar   66  DA66       -0.2048
   1330  C4         6.4770  -19.5690   28.5100 C.ar   66  DA66        0.1691
   1331  P          8.4920  -19.3530   22.5870 P.3    67  DG67        0.2141
   1332  OP1        8.9150  -19.7950   21.2360 O.2    67  DG67       -0.5172
   1333  OP2        8.7630  -17.9630   23.0200 O.3    67  DG67       -0.4373
   1334  O5'        6.9260  -19.5940   22.7730 O.3    67  DG67       -0.3114
   1335  C5'        6.3250  -20.8910   22.5470 C.3    67  DG67        0.1811
   1336  C4'        4.8680  -20.8590   22.9460 C.3    67  DG67        0.1746
   1337  O4'        4.7790  -20.5650   24.3650 O.3    67  DG67       -0.3327
   1338  C3'        4.0460  -19.7610   22.2820 C.3    67  DG67        0.1558
   1339  O3'        3.5500  -20.1840   21.0150 O.3    67  DG67       -0.3138
   1340  C2'        2.9290  -19.5120   23.2910 C.3    67  DG67        0.0865
   1341  C1'        3.6620  -19.7280   24.6170 C.3    67  DG67        0.2094
   1342  N9         4.1470  -18.4500   25.2270 N.ar   67  DG67       -0.2713
   1343  C8         5.4370  -17.9940   25.3430 C.ar   67  DG67        0.1816
   1344  N7         5.5240  -16.8470   25.9600 N.ar   67  DG67       -0.2173
   1345  C5         4.2170  -16.5250   26.2730 C.ar   67  DG67        0.1748
   1346  C6         3.6780  -15.3970   26.9430 C.ar   67  DG67        0.3023
   1347  O6         4.2830  -14.4230   27.4110 O.2    67  DG67       -0.2633
   1348  N1         2.2920  -15.4660   27.0490 N.ar   67  DG67       -0.1709
   1349  C2         1.5190  -16.4970   26.5690 C.ar   67  DG67        0.2606
   1350  N2         0.1990  -16.3870   26.7670 N.pl3  67  DG67       -0.0859
   1351  N3         2.0050  -17.5510   25.9430 N.ar   67  DG67       -0.1918
   1352  C4         3.3490  -17.5040   25.8280 C.ar   67  DG67        0.1722
   1353  P          3.4050  -19.0730   19.7630 P.3    68  DC68        0.2141
   1354  OP1        3.3060  -19.8630   18.5110 O.2    68  DC68       -0.5172
   1355  OP2        4.6960  -18.4330   20.1530 O.3    68  DC68       -0.4373
   1356  O5'        2.3000  -17.9370   19.7190 O.3    68  DC68       -0.3114
   1357  C5'        0.9410  -18.3020   19.7980 C.3    68  DC68        0.1811
   1358  C4'        0.1310  -17.1670   20.3210 C.3    68  DC68        0.1746
   1359  O4'        0.4010  -16.9440   21.7270 O.3    68  DC68       -0.3327
   1360  C3'        0.3970  -15.8380   19.6590 C.3    68  DC68        0.1558
   1361  O3'       -0.2730  -15.7400   18.4070 O.3    68  DC68       -0.3138
   1362  C2'       -0.1330  -14.8640   20.7020 C.3    68  DC68        0.0866
   1363  C1'        0.2440  -15.5680   22.0080 C.3    68  DC68        0.2106
   1364  N1         1.5260  -15.0820   22.6470 N.ar   68  DC68       -0.2556
   1365  C2         1.4960  -13.8280   23.2680 C.ar   68  DC68        0.3531
   1366  O2         0.4180  -13.2120   23.3180 O.2    68  DC68       -0.2443
   1367  N3         2.6380  -13.3250   23.7950 N.ar   68  DC68       -0.1739
   1368  C4         3.7720  -14.0220   23.7170 C.ar   68  DC68        0.1759
   1369  N4         4.8720  -13.4860   24.2500 N.pl3  68  DC68       -0.1070
   1370  C5         3.8240  -15.2940   23.0920 C.ar   68  DC68        0.0566
   1371  C6         2.6940  -15.7870   22.5730 C.ar   68  DC68        0.0849
   1372  P          0.3460  -14.7680   17.1870 P.3    69  DT69        0.2141
   1373  OP1       -0.3710  -15.0620   15.9320 O.2    69  DT69       -0.5172
   1374  OP2        1.7370  -15.2980   17.2260 O.3    69  DT69       -0.4373
   1375  O5'        0.2470  -13.1830   17.5510 O.3    69  DT69       -0.3114
   1376  C5'       -1.0540  -12.6010   17.7170 C.3    69  DT69        0.1811
   1377  C4'       -1.0910  -11.2300   18.3530 C.3    69  DT69        0.1746
   1378  O4'       -0.6680  -11.2950   19.7420 O.3    69  DT69       -0.3327
   1379  C3'       -0.1300  -10.2040   17.7780 C.3    69  DT69        0.1558
   1380  O3'       -0.5850   -9.6070   16.5610 O.3    69  DT69       -0.3138
   1381  C2'       -0.0700   -9.2040   18.9340 C.3    69  DT69        0.0866
   1382  C1'        0.1370  -10.1690   20.1030 C.3    69  DT69        0.2106
   1383  N1         1.5180  -10.6180   20.4770 N.ar   69  DT69       -0.2559
   1384  C2         2.2770   -9.7260   21.2100 C.ar   69  DT69        0.3545
   1385  O2         1.9150   -8.5890   21.4540 O.2    69  DT69       -0.2443
   1386  N3         3.4840  -10.2150   21.6500 N.ar   69  DT69       -0.1533
   1387  C4         3.9950  -11.4770   21.4340 C.ar   69  DT69        0.2804
   1388  O4         5.0960  -11.7710   21.8950 O.2    69  DT69       -0.2654
   1389  C5         3.1480  -12.3440   20.6640 C.ar   69  DT69        0.0534
   1390  C6         1.9700  -11.8940   20.2240 C.ar   69  DT69        0.0824
   1391  C7         3.6160  -13.7390   20.3750 C.3    69  DT69        0.0377
   1392  P          0.1180   -9.8870   15.8020 P.3    70  DT70        0.2141
   1393  OP1       -0.5430   -9.6920   14.4800 O.2    70  DT70       -0.5172
   1394  OP2        1.2480  -10.8530   15.9340 O.3    70  DT70       -0.4373
   1395  O5'        0.5890   -8.4420   16.2680 O.3    70  DT70       -0.3114
   1396  C5'       -0.3910   -7.4260   16.3760 C.3    70  DT70        0.1811
   1397  C4'        0.2420   -6.0780   16.4640 C.3    70  DT70        0.1746
   1398  O4'        0.9310   -5.9520   17.7200 O.3    70  DT70       -0.3327
   1399  C3'        1.2330   -5.7320   15.3770 C.3    70  DT70        0.1558
   1400  O3'        0.9690   -4.3600   15.1340 O.3    70  DT70       -0.3138
   1401  C2'        2.5730   -6.0100   16.0470 C.3    70  DT70        0.0866
   1402  C1'        2.2770   -5.6220   17.4880 C.3    70  DT70        0.2106
   1403  N1         2.9890   -6.4390   18.3610 N.ar   70  DT70       -0.2559
   1404  C2         4.0460   -5.9170   19.0830 C.ar   70  DT70        0.3545
   1405  O2         4.0550   -4.7790   19.5170 O.2    70  DT70       -0.2443
   1406  N3         5.0970   -6.7790   19.2790 N.ar   70  DT70       -0.1533
   1407  C4         5.1970   -8.0820   18.8360 C.ar   70  DT70        0.2804
   1408  O4         6.2070   -8.7330   19.0930 O.2    70  DT70       -0.2654
   1409  C5         4.0610   -8.5500   18.0940 C.ar   70  DT70        0.0534
   1410  C6         3.0240   -7.7330   17.8880 C.ar   70  DT70        0.0824
   1411  C7         4.0740   -9.9550   17.5690 C.3    70  DT70        0.0377
   1412  P          1.8080   -3.4250   14.3730 P.3    71  DA71        0.2141
   1413  OP1        1.0770   -2.4290   13.5580 O.2    71  DA71       -0.5172
   1414  OP2        3.0020   -4.0990   13.8160 O.3    71  DA71       -0.4373
   1415  O5'        2.3390   -2.7360   15.7200 O.3    71  DA71       -0.3114
   1416  C5'        2.4210   -1.3240   15.8460 C.3    71  DA71        0.1811
   1417  C4'        3.8200   -0.8780   16.1820 C.3    71  DA71        0.1746
   1418  O4'        4.3290   -1.6440   17.3070 O.3    71  DA71       -0.3327
   1419  C3'        4.8680   -1.1120   15.1070 C.3    71  DA71        0.1558
   1420  O3'        4.8130   -0.1870   14.0330 O.3    71  DA71       -0.3138
   1421  C2'        6.1510   -1.0580   15.9230 C.3    71  DA71        0.0865
   1422  C1'        5.7180   -1.8610   17.1480 C.3    71  DA71        0.2094
   1423  N9         6.0770   -3.2040   17.0910 N.ar   71  DA71       -0.2714
   1424  C8         5.1830   -4.2400   17.0170 C.ar   71  DA71        0.1815
   1425  N7         5.7470   -5.4240   16.9770 N.ar   71  DA71       -0.2193
   1426  C5         7.1040   -5.1460   17.0280 C.ar   71  DA71        0.1518
   1427  C6         8.2400   -5.9740   17.0210 C.ar   71  DA71        0.1919
   1428  N6         8.1830   -7.3070   16.9590 N.pl3  71  DA71       -0.1054
   1429  N1         9.4500   -5.3790   17.0810 N.ar   71  DA71       -0.2040
   1430  C2         9.5060   -4.0430   17.1450 C.ar   71  DA71        0.2016
   1431  N3         8.5110   -3.1600   17.1590 N.ar   71  DA71       -0.2048
   1432  C4         7.3220   -3.7830   17.0970 C.ar   71  DA71        0.1691
   1433  P          4.6840   -0.9410   12.5990 P.3    72  DT72        0.2141
   1434  OP1        3.9120    0.2620   12.1870 O.3    72  DT72       -0.4373
   1435  OP2        4.4020   -2.2910   12.0530 O.2    72  DT72       -0.5172
   1436  O5'        6.2280   -0.7050   12.2690 O.3    72  DT72       -0.3114
   1437  C5'        6.9030    0.4600   12.7140 C.3    72  DT72        0.1811
   1438  C4'        8.3630    0.1500   12.9050 C.3    72  DT72        0.1746
   1439  O4'        8.4900   -0.9100   13.8910 O.3    72  DT72       -0.3327
   1440  C3'        9.0700   -0.4130   11.6800 C.3    72  DT72        0.1558
   1441  O3'        9.4760    0.5770   10.7480 O.3    72  DT72       -0.3138
   1442  C2'       10.2150   -1.2120   12.2900 C.3    72  DT72        0.0866
   1443  C1'        9.5460   -1.7760   13.5420 C.3    72  DT72        0.2106
   1444  N1         9.1900   -3.1210   13.3480 N.ar   72  DT72       -0.2559
   1445  C2        10.1100   -4.1440   13.2140 C.ar   72  DT72        0.3545
   1446  O2        11.3140   -3.9630   13.2540 O.2    72  DT72       -0.2443
   1447  N3         9.5680   -5.3930   13.0310 N.ar   72  DT72       -0.1533
   1448  C4         8.2280   -5.7150   12.9680 C.ar   72  DT72        0.2804
   1449  O4         7.8940   -6.8850   12.8000 O.2    72  DT72       -0.2654
   1450  C5         7.3360   -4.5990   13.1140 C.ar   72  DT72        0.0534
   1451  C6         7.8370   -3.3740   13.2940 C.ar   72  DT72        0.0824
   1452  C7         5.8580   -4.8460   13.0590 C.3    72  DT72        0.0377
   1453  P          9.4320    0.1740    9.2910 P.3    73  DT73        0.2141
   1454  OP1        9.4840    1.4180    8.4940 O.2    73  DT73       -0.5172
   1455  OP2        8.3910   -0.8410    8.9860 O.3    73  DT73       -0.4373
   1456  O5'       10.8610   -0.5460    9.2240 O.3    73  DT73       -0.3114
   1457  C5'       12.0680    0.1660    9.5300 C.3    73  DT73        0.1811
   1458  C4'       13.2380   -0.7870    9.7200 C.3    73  DT73        0.1746
   1459  O4'       12.9260   -1.7160   10.7930 O.3    73  DT73       -0.3327
   1460  C3'       13.5990   -1.7070    8.5690 C.3    73  DT73        0.1558
   1461  O3'       14.3510   -1.0980    7.5530 O.3    73  DT73       -0.3138
   1462  C2'       14.3500   -2.8360    9.2550 C.3    73  DT73        0.0866
   1463  C1'       13.5380   -2.9850   10.5410 C.3    73  DT73        0.2106
   1464  N1        12.4680   -4.0790   10.3310 N.ar   73  DT73       -0.2559
   1465  C2        12.8380   -5.4100   10.3420 C.ar   73  DT73        0.3545
   1466  O2        13.9990   -5.7780   10.3140 O.2    73  DT73       -0.2443
   1467  N3        11.7940   -6.3020   10.3860 N.ar   73  DT73       -0.1533
   1468  C4        10.4480   -6.0030   10.4190 C.ar   73  DT73        0.2804
   1469  O4         9.6260   -6.9160   10.4580 O.2    73  DT73       -0.2654
   1470  C5        10.1450   -4.6000   10.4040 C.ar   73  DT73        0.0534
   1471  C6        11.1410   -3.7110   10.3620 C.ar   73  DT73        0.0824
   1472  C7         8.7080   -4.1730   10.4370 C.3    73  DT73        0.0377
   1473  P         13.9290   -1.3550    6.1460 P.3    74  DC74        0.2141
   1474  OP1       14.8610   -0.2990    5.6930 O.2    74  DC74       -0.5172
   1475  OP2       12.4870   -1.2370    5.8300 O.3    74  DC74       -0.4373
   1476  O5'       14.3590   -2.7820    5.5520 O.3    74  DC74       -0.3114
   1477  C5'       15.7280   -3.0320    5.2680 C.3    74  DC74        0.1811
   1478  C4'       16.0950   -4.5000    5.2650 C.3    74  DC74        0.1746
   1479  O4'       15.4970   -5.1860    6.4000 O.3    74  DC74       -0.3327
   1480  C3'       15.6450   -5.3520    4.0820 C.3    74  DC74        0.1558
   1481  O3'       16.3620   -5.1360    2.8750 O.3    74  DC74       -0.3138
   1482  C2'       15.8370   -6.7530    4.6490 C.3    74  DC74        0.0866
   1483  C1'       15.3420   -6.5560    6.0800 C.3    74  DC74        0.2106
   1484  N1        13.9220   -6.9700    6.2060 N.ar   74  DC74       -0.2556
   1485  C2        13.6300   -8.3390    6.2240 C.ar   74  DC74        0.3531
   1486  O2        14.5640   -9.1510    6.1140 O.2    74  DC74       -0.2443
   1487  N3        12.3420   -8.7360    6.3580 N.ar   74  DC74       -0.1739
   1488  C4        11.3720   -7.8280    6.4720 C.ar   74  DC74        0.1759
   1489  N4        10.1180   -8.2670    6.6030 N.pl3  74  DC74       -0.1070
   1490  C5        11.6470   -6.4370    6.4570 C.ar   74  DC74        0.0566
   1491  C6        12.9200   -6.0480    6.3230 C.ar   74  DC74        0.0849
   1492  P         15.7040   -5.8020    1.2630 P.3    75  DA75        0.2141
   1493  OP1       16.8740   -5.4640    0.4610 O.2    75  DA75       -0.5172
   1494  OP2       14.4500   -4.9980    1.2490 O.3    75  DA75       -0.4373
   1495  O5'       15.2440   -7.3180    1.1010 O.3    75  DA75       -0.3114
   1496  C5'       16.1960   -8.1910    0.5970 C.3    75  DA75        0.1811
   1497  C4'       15.8360   -9.5600    1.1060 C.3    75  DA75        0.1746
   1498  O4'       15.1780   -9.3140    2.3300 O.3    75  DA75       -0.3327
   1499  C3'       14.7740  -10.3200    0.3710 C.3    75  DA75        0.1558
   1500  O3'       15.2650  -11.0330   -0.7770 O.3    75  DA75       -0.3138
   1501  C2'       14.4200  -11.2450    1.4940 C.3    75  DA75        0.0865
   1502  C1'       14.1990  -10.2960    2.5760 C.3    75  DA75        0.2094
   1503  N9        12.8100   -9.8160    2.6300 N.ar   75  DA75       -0.2714
   1504  C8        12.5220   -8.4770    2.5790 C.ar   75  DA75        0.1815
   1505  N7        11.2900   -8.1880    2.9260 N.ar   75  DA75       -0.2193
   1506  C5        10.7310   -9.4200    3.2240 C.ar   75  DA75        0.1518
   1507  C6         9.4470   -9.7970    3.6560 C.ar   75  DA75        0.1919
   1508  N6         8.4560   -8.9300    3.8720 N.pl3  75  DA75       -0.1054
   1509  N1         9.2160  -11.1110    3.8610 N.ar   75  DA75       -0.2040
   1510  C2        10.2100  -11.9800    3.6450 C.ar   75  DA75        0.2016
   1511  N3        11.4570  -11.7470    3.2400 N.ar   75  DA75       -0.2048
   1512  C4        11.6540  -10.4330    3.0450 C.ar   75  DA75        0.1691
   1513  P         14.5900  -10.6670   -2.0330 P.3    76  DA76        0.2141
   1514  OP1       15.6090  -11.3370   -2.9080 O.2    76  DA76       -0.5172
   1515  OP2       13.8690   -9.4520   -2.5300 O.3    76  DA76       -0.4373
   1516  O5'       13.5270  -11.7970   -1.6670 O.3    76  DA76       -0.3114
   1517  C5'       13.9630  -13.0990   -1.2640 C.3    76  DA76        0.1811
   1518  C4'       12.8140  -13.9180   -0.7090 C.3    76  DA76        0.1746
   1519  O4'       12.3120  -13.2840    0.4900 O.3    76  DA76       -0.3327
   1520  C3'       11.5840  -14.1300   -1.5850 C.3    76  DA76        0.1558
   1521  O3'       11.7250  -15.2490   -2.4640 O.3    76  DA76       -0.3138
   1522  C2'       10.5000  -14.4220   -0.5580 C.3    76  DA76        0.0865
   1523  C1'       10.9280  -13.5470    0.6230 C.3    76  DA76        0.2094
   1524  N9        10.2440  -12.1900    0.6530 N.ar   76  DA76       -0.2714
   1525  C8        10.6830  -10.9410    0.2990 C.ar   76  DA76        0.1815
   1526  N7         9.7750  -10.0030    0.4360 N.ar   76  DA76       -0.2193
   1527  C5         8.6640  -10.6840    0.9100 C.ar   76  DA76        0.1518
   1528  C6         7.3710  -10.2570    1.2580 C.ar   76  DA76        0.1919
   1529  N6         6.9650   -8.9880    1.1770 N.pl3  76  DA76       -0.1054
   1530  N1         6.5000  -11.1900    1.6970 N.ar   76  DA76       -0.2040
   1531  C2         6.9080  -12.4620    1.7780 C.ar   76  DA76        0.2016
   1532  N3         8.0960  -12.9840    1.4810 N.ar   76  DA76       -0.2048
   1533  C4         8.9380  -12.0310    1.0480 C.ar   76  DA76        0.1691
   1534  P         10.7150  -15.4210   -3.7550 P.3    77  DT77        0.2141
   1535  OP1       11.4110  -16.6480   -4.2060 O.3    77  DT77       -0.4373
   1536  OP2        9.7440  -14.7510   -4.6480 O.2    77  DT77       -0.5172
   1537  O5'        9.9770  -15.7170   -2.3660 O.3    77  DT77       -0.3113
   1538  C5'        9.5390  -17.0310   -2.0570 C.3    77  DT77        0.1836
   1539  C4'        8.1690  -17.0300   -1.3990 C.3    77  DT77        0.1992
   1540  O4'        7.9640  -15.8190   -0.6280 O.3    77  DT77       -0.3301
   1541  C3'        6.9900  -17.0240   -2.3580 C.3    77  DT77        0.2381
   1542  O3'        6.7790  -18.3260   -2.8900 O.3    77  DT77       -0.2491
   1543  C2'        5.8660  -16.6080   -1.4140 C.3    77  DT77        0.1137
   1544  C1'        6.5700  -15.5870   -0.5220 C.3    77  DT77        0.2132
   1545  N1         6.2460  -14.3510   -0.8200 N.ar   77  DT77       -0.2558
   1546  C2         5.0530  -13.7870   -0.4090 C.ar   77  DT77        0.3545
   1547  O2         4.1870  -14.4160    0.1730 O.2    77  DT77       -0.2443
   1548  N3         4.9080  -12.4540   -0.7070 N.ar   77  DT77       -0.1533
   1549  C4         5.8160  -11.6460   -1.3590 C.ar   77  DT77        0.2804
   1550  O4         5.5430  -10.4640   -1.5530 O.2    77  DT77       -0.2654
   1551  C5         7.0290  -12.3040   -1.7540 C.ar   77  DT77        0.0534
   1552  C6         7.1960  -13.6000   -1.4780 C.ar   77  DT77        0.0824
   1553  C7         8.0800  -11.5090   -2.4710 C.3    77  DT77        0.0377
   1554  P          6.2840  -18.3700   -3.8910 P.3    78  DT78        0.4833
   1555  OP1        6.0330  -18.8430   -5.2800 O.2    78  DT78       -0.2269
   1556  OP2        7.0610  -17.1210   -3.6590 O.3    78  DT78       -0.2491
   1557  O5'        4.9020  -18.1560   -3.1510 O.3    78  DT78       -0.2704
   1558  C5'        4.0240  -19.2330   -2.9480 C.3    78  DT78        0.1857
   1559  C4'        2.8230  -18.7230   -2.2330 C.3    78  DT78        0.1775
   1560  O4'        3.1780  -18.4390   -0.8610 O.3    78  DT78       -0.3489
   1561  C3'        2.3380  -17.3990   -2.7870 C.3    78  DT78        0.2045
   1562  O3'        1.5070  -17.6110   -3.9250 O.3    78  DT78       -0.2183
   1563  C2'        1.6310  -16.7690   -1.5920 C.3    78  DT78        0.1521
   1564  C1'        2.4480  -17.3190   -0.4170 C.3    78  DT78        0.1675
   1565  N1         2.8280  -15.3790   -1.7800 N.ar   78  DT78       -0.2754
   1566  C2         2.2600  -14.2000   -1.3370 C.ar   78  DT78        0.3529
   1567  O2         1.2870  -14.1650   -0.6040 O.2    78  DT78       -0.2443
   1568  N3         2.8730  -13.0550   -1.7860 N.ar   78  DT78       -0.1534
   1569  C4         3.9720  -12.9730   -2.6150 C.ar   78  DT78        0.2804
   1570  O4         4.4110  -11.8700   -2.9310 O.2    78  DT78       -0.2654
   1571  C5         4.5040  -14.2400   -3.0320 C.ar   78  DT78        0.0534
   1572  C6         3.9270  -15.3680   -2.6110 C.ar   78  DT78        0.0803
   1573  C7         5.7010  -14.2570   -3.9360 C.3    78  DT78        0.0377
@<TRIPOS>BOND
     1   453   449    1
     2   453   452    1
     3   453   454    1
     4   449   448    1
     5   452   450    1
     6   448   447    1
     7   448   450    1
     8   444   443    2
     9   454   464   ar
    10   454   455   ar
    11   447   446    1
    12   463   464   ar
    13   463   461   ar
    14   450   451    1
    15   451   465    1
    16   464   457   ar
    17   462   461    1
    18   455   456   ar
    19   461   460   ar
    20   446   443    1
    21   443   445    1
    22   443   432    1
    23   457   456   ar
    24   457   458   ar
    25   465   466    2
    26   465   468    1
    27   465   467    1
    28   460   458   ar
    29   471   470    1
    30   471   475    1
    31   468   469    1
    32   458   459    2
    33   470   469    1
    34   470   472    1
    35   475   476    1
    36   475   474    1
    37   432   431    1
    38   483   476   ar
    39   483   482   ar
    40   476   477   ar
    41   474   472    1
    42   472   473    1
    43   431   433    1
    44   431   429    1
    45   482   480   ar
    46   477   478    2
    47   477   479   ar
    48   433   434    1
    49   429   428    1
    50   429   430    1
    51   480   479   ar
    52   480   481    1
    53   428   427    1
    54   487   484    1
    55   487   488    1
    56   484   486    2
    57   484   485    2
    58   490   489    1
    59   490   494    1
    60   434   430    1
    61   434   435    1
    62   437   436    2
    63   427   424    1
    64   489   488    1
    65   489   491    1
    66   494   493    1
    67   494   495    1
    68   425   424    2
    69   435   436   ar
    70   435   442   ar
    71   436   438   ar
    72   424   426    1
    73   424   412    1
    74   493   491    1
    75   442   441   ar
    76   438   439   ar
    77   495   496   ar
    78   495   504   ar
    79   491   492    1
    80   496   497   ar
    81   492   505    1
    82   441   439   ar
    83   439   440    1
    84   504   503   ar
    85   504   498   ar
    86   503   502   ar
    87   497   498   ar
    88   412   411    1
    89   498   499   ar
    90   302   301    2
    91   502   501   ar
    92   509   510    1
    93   509   508    1
    94   511   510    1
    95   511   515    1
    96   505   506    2
    97   505   508    1
    98   505   507    1
    99   413   411    1
   100   413   414    1
   101   499   501   ar
   102   499   500    1
   103   411   409    1
   104   510   512    1
   105   515   516    1
   106   515   514    1
   107   301   303    1
   108   301   304    1
   109   301   288    1
   110   524   522    1
   111   523   516   ar
   112   523   522   ar
   113   281   280    2
   114   417   416    2
   115   516   517   ar
   116   522   520   ar
   117   304   305    1
   118   414   415    1
   119   414   410    1
   120   416   418   ar
   121   416   415   ar
   122   418   419   ar
   123   323   322    2
   124   409   410    1
   125   409   408    1
   126   305   306    1
   127   420   419    2
   128   415   422   ar
   129   419   421   ar
   130   512   514    1
   131   512   513    1
   132   288   287    1
   133   422   421   ar
   134   421   423    1
   135   517   518    2
   136   517   519   ar
   137   520   519   ar
   138   520   521    2
   139   513   525    1
   140   408   407    1
   141   407   404    1
   142   324   322    1
   143   322   309    1
   144   322   325    1
   145   280   283    1
   146   280   269    1
   147   280   282    1
   148   284   285    1
   149   284   283    1
   150   309   308    1
   151   405   404    2
   152   399   398    1
   153   306   308    1
   154   306   307    1
   155   287   285    1
   156   287   289    1
   157   285   286    1
   158   400   398   ar
   159   400   401   ar
   160   269   268    1
   161   404   406    1
   162   404   391    1
   163   308   310    1
   164   398   397   ar
   165   527   525    2
   166   401   402   ar
   167   526   525    1
   168   525   528    1
   169   325   326    1
   170   343   342    2
   171   307   311    1
   172   289   290    1
   173   326   327    1
   174   544   542    1
   175   397   396   ar
   176   397   403   ar
   177   402   403   ar
   178   286   290    1
   179   341   339    1
   180   396   395   ar
   181   403   394   ar
   182   268   266    1
   183   268   270    1
   184   391   390    1
   185   310   311    1
   186   541   540    2
   187   542   540   ar
   188   542   543   ar
   189   344   342    1
   190   262   261    2
   191   342   330    1
   192   342   345    1
   193   385   383    2
   194   392   390    1
   195   392   393    1
   196   540   539   ar
   197   313   312   ar
   198   313   314   ar
   199   266   265    1
   200   266   267    1
   201   528   529    1
   202   364   362    2
   203   390   388    1
   204   290   291    1
   205   330   329    1
   206   265   264    1
   207   311   312    1
   208   543   536   ar
   209   531   530    1
   210   531   535    1
   211   270   271    1
   212   395   394   ar
   213   529   530    1
   214   394   393    1
   215   378   377    1
   216   327   329    1
   217   327   328    1
   218   329   331    1
   219   361   359    1
   220   539   537   ar
   221   312   321   ar
   222   536   535    1
   223   536   537   ar
   224   314   315   ar
   225   339   340   ar
   226   339   337   ar
   227   292   291   ar
   228   292   293   ar
   229   530   532    1
   230   393   389    1
   231   340   333   ar
   232   535   534    1
   233   291   300   ar
   234   537   538    2
   235   264   261    1
   236   383   384    1
   237   383   386    1
   238   383   370    1
   239   386   387    1
   240   363   362    1
   241   377   379   ar
   242   377   376   ar
   243   261   249    1
   244   261   263    1
   245   362   365    1
   246   362   350    1
   247   345   346    1
   248   267   271    1
   249   328   332    1
   250   375   376   ar
   251   375   374   ar
   252   346   347    1
   253   271   272    1
   254   388   389    1
   255   388   387    1
   256   358   357    2
   257   379   380   ar
   258   359   357   ar
   259   359   360   ar
   260   376   382   ar
   261   249   248    1
   262   293   294   ar
   263   338   337    2
   264   321   315   ar
   265   321   320   ar
   266   337   336   ar
   267   331   332    1
   268   365   366    1
   269   561   560    1
   270   315   316   ar
   271   357   356   ar
   272   300   299   ar
   273   300   294   ar
   274   374   373   ar
   275   360   353   ar
   276   333   332    1
   277   333   334   ar
   278   532   534    1
   279   532   533    1
   280   380   381   ar
   281   350   349    1
   282   382   373   ar
   283   382   381   ar
   284   370   369    1
   285   369   371    1
   286   369   367    1
   287   299   298   ar
   288   272   279   ar
   289   272   273   ar
   290   294   295   ar
   291   349   347    1
   292   349   351    1
   293   347   348    1
   294   373   372    1
   295   274   273    2
   296   320   319   ar
   297   279   278   ar
   298   371   372    1
   299   356   354   ar
   300   366   367    1
   301   560   559   ar
   302   560   562   ar
   303   336   334   ar
   304   558   559   ar
   305   558   557   ar
   306   248   250    1
   307   248   246    1
   308   353   354   ar
   309   353   352    1
   310   348   352    1
   311   273   275   ar
   312   316   317    1
   313   316   318   ar
   314   533   545    1
   315   334   335    2
   316   250   251    1
   317   367   368    1
   318   559   565   ar
   319   372   368    1
   320   354   355    2
   321   298   297   ar
   322   562   563   ar
   323   295   297   ar
   324   295   296    1
   325   351   352    1
   326   278   276   ar
   327   547   545    2
   328   557   556   ar
   329   246   245    1
   330   246   247    1
   331   319   318   ar
   332   275   276   ar
   333   245   244    1
   334   276   277    1
   335   582   581    1
   336   545   548    1
   337   545   546    1
   338   565   556   ar
   339   565   564   ar
   340   563   564   ar
   341   244   241    1
   342   242   241    2
   343   556   555    1
   344   251   247    1
   345   251   252    1
   346   254   253    2
   347   548   549    1
   348   637   636    2
   349   551   555    1
   350   551   550    1
   351   581   580   ar
   352   581   583   ar
   353   241   243    1
   354   241   229    1
   355   252   253   ar
   356   252   259   ar
   357   253   255   ar
   358   663   662   ar
   359   663   664   ar
   360   555   554    1
   361   662   661   ar
   362   617   616    2
   363   580   578   ar
   364   670   671    1
   365   670   669    1
   366   670   672    1
   367   549   550    1
   368   654   653    1
   369   654   650    1
   370   654   655    1
   371   653   651    1
   372   671   675    1
   373   669   668    1
   374   583   584   ar
   375   259   258   ar
   376   636   638   ar
   377   636   635   ar
   378   601   600    1
   379   650   649    1
   380   229   228    1
   381   550   552    1
   382   638   639   ar
   383   255   256   ar
   384   618   616   ar
   385   618   619   ar
   386   664   655   ar
   387   664   658   ar
   388   616   615   ar
   389   661   659   ar
   390   675   674    1
   391   675   676    1
   392   673   672    1
   393   673   685    1
   394   649   651    1
   395   649   648    1
   396   655   656   ar
   397   599   600   ar
   398   599   597   ar
   399   578   579    2
   400   578   577   ar
   401   652   651    1
   402   652   665    1
   403   672   674    1
   404   258   256   ar
   405   258   260    1
   406   633   634    1
   407   633   631    1
   408   554   552    1
   409   600   602   ar
   410   634   635    1
   411   634   630    1
   412   620   619    2
   413   635   642   ar
   414   552   553    1
   415   256   257    2
   416   666   665    2
   417   598   597    2
   418   584   577   ar
   419   230   228    1
   420   230   231    1
   421   668   665    1
   422   619   621   ar
   423   639   640    2
   424   639   641   ar
   425   597   596   ar
   426   658   659   ar
   427   658   657   ar
   428   659   660    1
   429   686   685    2
   430   228   226    1
   431   577   576    1
   432   234   233    2
   433   615   614    1
   434   615   622   ar
   435   665   667    1
   436   656   657   ar
   437   676   677   ar
   438   676   683   ar
   439   648   647    1
   440   678   677    2
   441   685   688    1
   442   685   687    1
   443   614   613    1
   444   614   610    1
   445   647   644    1
   446   602   603   ar
   447   630   629    1
   448   642   641   ar
   449   689   688    1
   450   689   690    1
   451   677   679   ar
   452   641   643    1
   453   631   632    1
   454   631   629    1
   455   683   682   ar
   456   632   644    1
   457   568   566    2
   458   553   566    1
   459   621   622   ar
   460   621   623    1
   461   233   232   ar
   462   233   235   ar
   463   629   628    1
   464   596   603   ar
   465   596   595    1
   466   231   232    1
   467   231   227    1
   468   226   227    1
   469   226   225    1
   470   613   611    1
   471   691   690    1
   472   691   695    1
   473   690   692    1
   474   610   609    1
   475   576   572    1
   476   576   575    1
   477   232   239   ar
   478   235   236   ar
   479   572   571    1
   480   595   594    1
   481   595   591    1
   482   644   645    2
   483   644   646    1
   484   566   569    1
   485   566   567    1
   486   679   680   ar
   487   682   680   ar
   488   682   684    1
   489   225   224    1
   490   569   570    1
   491   695   694    1
   492   695   696    1
   493   609   611    1
   494   609   608    1
   495   224   221    1
   496   239   238   ar
   497   236   237    2
   498   236   238   ar
   499   628   627    1
   500   575   573    1
   501   611   612    1
   502   680   681    2
   503   594   592    1
   504   692   693    1
   505   692   694    1
   506   627   624    1
   507   693   706    1
   508   591   590    1
   509   571   570    1
   510   571   573    1
   511   238   240    1
   512   707   706    2
   513   697   696   ar
   514   697   698   ar
   515   573   574    1
   516   612   624    1
   517   696   705   ar
   518   626   624    2
   519   608   607    1
   520   218   217   ar
   521   218   219   ar
   522   222   221    2
   523   217   215   ar
   524   221   223    1
   525   221   208    1
   526   706   708    1
   527   706   709    1
   528   624   625    1
   529   698   699   ar
   530   592   590    1
   531   592   593    1
   532   607   604    1
   533   219   220   ar
   534   587   585    2
   535   590   589    1
   536   705   699   ar
   537   705   704   ar
   538   588   589    1
   539   588   585    1
   540   574   585    1
   541   215   216    1
   542   215   214   ar
   543   699   700   ar
   544   208   207    1
   545   209   207    1
   546   209   210    1
   547   704   703   ar
   548   710   709    1
   549   710   711    1
   550   593   606    1
   551   220   214   ar
   552   220   211   ar
   553   585   586    1
   554   214   213   ar
   555   207   205    1
   556   604   606    1
   557   604   605    1
   558   700   701    1
   559   700   702   ar
   560   703   702   ar
   561   211   210    1
   562   211   212   ar
   563   210   206    1
   564   711   712    1
   565   711   713    1
   566   213   212   ar
   567   712   716    1
   568   205   206    1
   569   205   204    1
   570   724   723   ar
   571   724   717   ar
   572   723   721   ar
   573   713   714    1
   574   713   715    1
   575   716   717    1
   576   716   715    1
   577   717   718   ar
   578   204   203    1
   579   196   195    2
   580   203   200    1
   581   714   725    1
   582   721   722    1
   583   721   720   ar
   584   194   195   ar
   585   194   192   ar
   586    99    98    2
   587   193   192    2
   588   195   197   ar
   589   726   725    2
   590   727   725    1
   591   192   191   ar
   592   202   200    2
   593   718   720   ar
   594   718   719    2
   595   725   728    1
   596   200   201    1
   597   200   188    1
   598   120   119    2
   599   197   199    1
   600   197   198   ar
   601    80    79    2
   602    98    87    1
   603    98   101    1
   604    98   100    1
   605   189   187    1
   606   189   190    1
   607   191   198   ar
   608   191   190    1
   609    87    86    1
   610   121   119    1
   611   728   729    1
   612   101   102    1
   613   188   187    1
   614    83    84    1
   615    83    82    1
   616   187   185    1
   617   190   186    1
   618   119   106    1
   619   119   122    1
   620   729   730    1
   621    84    86    1
   622    84    85    1
   623    79    82    1
   624    79    68    1
   625    79    81    1
   626    86    88    1
   627   106   105    1
   628   742   743   ar
   629   742   740   ar
   630   731   730    1
   631   731   735    1
   632   743   736   ar
   633   102   103    1
   634    68    67    1
   635   741   740    1
   636   143   141    2
   637   122   123    1
   638   186   185    1
   639   730   732    1
   640   740   739   ar
   641   103   105    1
   642   103   104    1
   643   185   184    1
   644    88    89    1
   645   123   124    1
   646   105   107    1
   647   736   735    1
   648   736   737   ar
   649   183   184    1
   650   183   180    1
   651   162   160    2
   652    85    89    1
   653   142   141    1
   654   735   734    1
   655   182   180    2
   656   739   737   ar
   657   141   127    1
   658   141   144    1
   659   737   738    2
   660    89    90    1
   661    67    65    1
   662    67    69    1
   663   732   734    1
   664   732   733    1
   665   104   108    1
   666   127   126    1
   667   180   181    1
   668   180   168    1
   669    64    65    1
   670    64    63    1
   671    65    66    1
   672    63    60    1
   673   161   160    1
   674   124   126    1
   675   124   125    1
   676   160   163    1
   677   160   149    1
   678   179   177    1
   679   126   128    1
   680   107   108    1
   681    69    70    1
   682   746   744    2
   683   760   759    1
   684   144   145    1
   685   733   744    1
   686    61    60    2
   687   176   175    2
   688   110   109   ar
   689   110   111   ar
   690    97    90   ar
   691    97    96   ar
   692    90    91   ar
   693   108   109    1
   694   163   164    1
   695   177   175   ar
   696   177   178   ar
   697   125   129    1
   698   131   132   ar
   699   131   130   ar
   700    60    62    1
   701    60    47    1
   702   175   174   ar
   703    66    70    1
   704   757   758   ar
   705   757   756   ar
   706   132   133   ar
   707   744   745    1
   708   744   747    1
   709   759   758   ar
   710   759   761   ar
   711   149   148    1
   712   109   118   ar
   713   145   146    1
   714   111   112   ar
   715    70    71    1
   716   168   167    1
   717   158   159   ar
   718   158   156   ar
   719   178   171   ar
   720   758   764   ar
   721   148   146    1
   722   148   150    1
   723   157   156    1
   724   128   129    1
   725   167   169    1
   726   167   165    1
   727    96    94   ar
   728   756   755   ar
   729   130   129    1
   730   130   140   ar
   731   159   152   ar
   732    92    91    2
   733   174   172   ar
   734   761   762   ar
   735    91    93   ar
   736   156   155   ar
   737    47    46    1
   738   747   748    1
   739   164   165    1
   740   133   140   ar
   741   133   134   ar
   742   781   780    2
   743   146   147    1
   744   171   172   ar
   745   171   170    1
   746   169   170    1
   747   118   112   ar
   748   118   117   ar
   749   764   755   ar
   750   764   763   ar
   751   112   113   ar
   752   172   173    2
   753   150   151    1
   754   140   139   ar
   755   755   754    1
   756   135   134    2
   757    71    78   ar
   758    71    72   ar
   759   165   166    1
   760   762   763   ar
   761  1555  1554    2
   762   152   151    1
   763   152   153   ar
   764    73    72    2
   765   134   136   ar
   766    94    93   ar
   767    94    95    1
   768   155   153   ar
   769   750   754    1
   770   750   749    1
   771   147   151    1
   772   170   166    1
   773   780   782   ar
   774   780   779   ar
   775    78    77   ar
   776   748   749    1
   777    72    74   ar
   778   153   154    2
   779  1536  1534    2
   780   117   116   ar
   781   754   753    1
   782    46    48    1
   783    46    44    1
   784   113   114    1
   785   113   115   ar
   786   139   137   ar
   787   782   783   ar
   788    40    39    2
   789    48    49    1
   790   778   779   ar
   791   778   777   ar
   792  1535  1534    1
   793   779   786   ar
   794   136   137   ar
   795   749   751    1
   796  1573  1571    1
   797  1562  1561    1
   798  1554  1556    1
   799  1554  1557    1
   800  1554  1542    1
   801    44    43    1
   802    44    45    1
   803   137   138    1
   804  1534  1521    1
   805  1534  1537    1
   806    77    75   ar
   807   803   802    1
   808  1556  1541    1
   809   116   115   ar
   810    74    75   ar
   811    43    42    1
   812   783   784    1
   813   783   785   ar
   814   751   753    1
   815   751   752    1
   816   777   776   ar
   817  1557  1558    1
   818   786   785   ar
   819   786   776   ar
   820    75    76    1
   821  1571  1569   ar
   822  1571  1572   ar
   823  1558  1559    1
   824  1570  1569    2
   825    39    42    1
   826    39    41    1
   827    39    27    1
   828  1514  1513    2
   829  1542  1541    1
   830    49    45    1
   831    49    50    1
   832   767   765    2
   833  1561  1559    1
   834  1561  1563    1
   835   802   801   ar
   836   802   804   ar
   837  1569  1568   ar
   838  1572  1565   ar
   839   801   799   ar
   840   776   775    1
   841  1515  1513    1
   842  1553  1551    1
   843  1521  1520    1
   844  1537  1538    1
   845  1541  1543    1
   846  1541  1539    1
   847  1559  1560    1
   848   752   765    1
   849  1538  1539    1
   850  1513  1516    1
   851  1513  1500    1
   852    58    59   ar
   853    58    57   ar
   854   804   805   ar
   855    50    59   ar
   856    50    51   ar
   857   765   766    1
   858   765   768    1
   859  1568  1566   ar
   860  1565  1563    1
   861  1565  1566   ar
   862    27    26    1
   863  1551  1552   ar
   864  1551  1549   ar
   865   822   821    2
   866  1516  1517    1
   867   799   800    2
   868   799   798   ar
   869  1563  1564    1
   870  1520  1518    1
   871  1520  1522    1
   872    59    53   ar
   873  1550  1549    2
   874  1552  1545   ar
   875   775   771    1
   876   775   774    1
   877   771   770    1
   878    57    56   ar
   879  1543  1544    1
   880  1539  1540    1
   881  1549  1548   ar
   882  1566  1567    2
   883    51    52   ar
   884  1517  1518    1
   885   820   821   ar
   886   820   818   ar
   887   821   823   ar
   888   805   798   ar
   889  1560  1564    1
   890   798   797    1
   891   768   769    1
   892   839   838    2
   893  1545  1544    1
   894  1545  1546   ar
   895    53    52   ar
   896    53    54   ar
   897   819   818    2
   898  1500  1499    1
   899  1518  1519    1
   900  1548  1546   ar
   901    56    54   ar
   902  1540  1544    1
   903   840   838   ar
   904   840   841   ar
   905   818   817   ar
   906  1522  1523    1
   907    26    28    1
   908    26    24    1
   909   842   841    2
   910  1546  1547    2
   911   769   770    1
   912   863   864   ar
   913   863   861   ar
   914    54    55    1
   915   864   865   ar
   916    28    29    1
   917   770   772    1
   918   774   772    1
   919   838   837   ar
   920   823   825    1
   921   823   824   ar
   922   862   861    1
   923   841   843   ar
   924   861   860   ar
   925   797   793    1
   926   797   796    1
   927   772   773    1
   928   865   866   ar
   929  1525  1526   ar
   930  1525  1524   ar
   931   817   824   ar
   932   817   816    1
   933  1499  1497    1
   934  1499  1501    1
   935  1526  1527   ar
   936  1493  1492    2
   937  1519  1523    1
   938   860   866   ar
   939   860   859   ar
   940  1496  1495    1
   941  1496  1497    1
   942  1523  1524    1
   943   866   857   ar
   944    24    23    1
   945    24    25    1
   946  1524  1533   ar
   947   793   792    1
   948   789   787    2
   949    23    22    1
   950  1527  1533   ar
   951  1527  1528   ar
   952    22    19    1
   953  1533  1532   ar
   954   837   836    1
   955   837   844   ar
   956  1495  1492    1
   957   859   858   ar
   958  1497  1498    1
   959   816   812    1
   960   816   815    1
   961  1529  1528    1
   962   857   858   ar
   963   857   856    1
   964  1494  1492    1
   965  1528  1530   ar
   966    29    25    1
   967    29    30    1
   968  1492  1481    1
   969   843   844   ar
   970   843   845    1
   971   796   794    1
   972    32    31    2
   973  1532  1531   ar
   974  1501  1502    1
   975   773   787    1
   976   836   835    1
   977   836   832    1
   978    20    19    2
   979   856   852    1
   980   856   855    1
   981   812   811    1
   982  1530  1531   ar
   983   852   851    1
   984    31    30   ar
   985    31    33   ar
   986    30    37   ar
   987   787   790    1
   988   787   788    1
   989   790   791    1
   990    19    21    1
   991    19     6    1
   992   792   794    1
   993   792   791    1
   994    33    34   ar
   995    37    36   ar
   996   835   833    1
   997  1498  1502    1
   998   815   813    1
   999   794   795    1
  1000   832   831    1
  1001  1502  1503    1
  1002  1504  1503   ar
  1003  1504  1505   ar
  1004   883   882    2
  1005  1503  1512   ar
  1006    34    36   ar
  1007    34    35    2
  1008    36    38    1
  1009   881   882   ar
  1010   881   879   ar
  1011  1481  1480    1
  1012   855   853    1
  1013  1505  1506   ar
  1014   880   879    2
  1015   882   884   ar
  1016   811   813    1
  1017   811   810    1
  1018  1512  1506   ar
  1019  1512  1511   ar
  1020   851   850    1
  1021   851   853    1
  1022   879   878   ar
  1023  1506  1507   ar
  1024  1511  1510   ar
  1025   809   810    1
  1026   809   806    1
  1027   813   814    1
  1028   808   806    2
  1029     6     5    1
  1030   849   850    1
  1031   849   846    1
  1032   884   886    1
  1033   884   885   ar
  1034  1510  1509   ar
  1035  1507  1509   ar
  1036  1507  1508    1
  1037   795   806    1
  1038   878   885   ar
  1039   878   877    1
  1040   831   833    1
  1041   831   830    1
  1042   833   834    1
  1043   853   854    1
  1044   877   873    1
  1045   877   876    1
  1046   806   807    1
  1047  1480  1482    1
  1048  1480  1478    1
  1049   873   872    1
  1050   900   899    2
  1051  1482  1483    1
  1052   834   846    1
  1053     5     7    1
  1054     5     3    1
  1055   814   826    1
  1056   830   829    1
  1057   846   848    2
  1058   846   847    1
  1059   829   826    1
  1060   828   826    2
  1061   901   899   ar
  1062   901   902   ar
  1063     7     8    1
  1064   899   898   ar
  1065   854   867    1
  1066  1478  1477    1
  1067  1478  1479    1
  1068   876   874    1
  1069  1477  1476    1
  1070   903   902    2
  1071  1476  1473    1
  1072   826   827    1
  1073   872   871    1
  1074   872   874    1
  1075   902   904   ar
  1076  1474  1473    2
  1077  1475  1473    1
  1078   920   919    2
  1079   898   897    1
  1080   898   905   ar
  1081     3     2    1
  1082     3     4    1
  1083  1483  1484    1
  1084  1483  1479    1
  1085   871   870    1
  1086  1486  1485    2
  1087  1473  1461    1
  1088   869   867    2
  1089  1484  1485   ar
  1090  1484  1491   ar
  1091     1     2    1
  1092  1485  1487   ar
  1093   867   870    1
  1094   867   868    1
  1095   874   875    1
  1096  1491  1490   ar
  1097   893   897    1
  1098   893   892    1
  1099  1487  1488   ar
  1100   904   905   ar
  1101   904   906    1
  1102   913   917    1
  1103   913   912    1
  1104   917   918    1
  1105   917   916    1
  1106  1490  1488   ar
  1107   919   921   ar
  1108   919   918   ar
  1109  1488  1489    1
  1110   897   896    1
  1111     8     4    1
  1112     8     9    1
  1113   921   922   ar
  1114   918   925   ar
  1115     9    10   ar
  1116     9    18   ar
  1117    10    11   ar
  1118    17    18   ar
  1119    17    16   ar
  1120    18    12   ar
  1121   922   923    1
  1122   922   924   ar
  1123   912   911    1
  1124   912   914    1
  1125   916   914    1
  1126   925   924   ar
  1127  1461  1460    1
  1128   875   887    1
  1129    16    15   ar
  1130    11    12   ar
  1131   892   891    1
  1132   892   894    1
  1133    12    13   ar
  1134   891   890    1
  1135    15    13   ar
  1136    13    14    1
  1137   896   894    1
  1138   890   887    1
  1139   911   910    1
  1140   914   915    1
  1141  1454  1453    2
  1142   889   887    2
  1143  1460  1462    1
  1144  1460  1458    1
  1145   887   888    1
  1146   894   895    1
  1147   895   907    1
  1148  1455  1453    1
  1149   910   907    1
  1150   915   926    1
  1151   932   936    1
  1152   932   931    1
  1153   936   937    1
  1154   936   935    1
  1155  1456  1453    1
  1156  1456  1457    1
  1157  1462  1463    1
  1158  1453  1441    1
  1159   937   946   ar
  1160   937   938   ar
  1161   945   946   ar
  1162   945   944   ar
  1163   946   940   ar
  1164  1457  1458    1
  1165   938   939   ar
  1166   944   943   ar
  1167   940   939   ar
  1168   940   941   ar
  1169   943   941   ar
  1170  1458  1459    1
  1171   941   942    1
  1172   927   926    2
  1173   907   908    2
  1174   907   909    1
  1175   931   930    1
  1176   931   933    1
  1177  1466  1465    2
  1178  1464  1465   ar
  1179  1464  1471   ar
  1180  1464  1463    1
  1181  1465  1467   ar
  1182  1471  1470   ar
  1183   935   933    1
  1184  1467  1468   ar
  1185  1470  1468   ar
  1186  1470  1472    1
  1187  1468  1469    2
  1188   930   929    1
  1189   926   929    1
  1190   926   928    1
  1191  1463  1459    1
  1192  1441  1440    1
  1193   933   934    1
  1194  1440  1442    1
  1195  1440  1438    1
  1196   934   947    1
  1197  1435  1433    2
  1198  1434  1433    1
  1199  1436  1433    1
  1200  1436  1437    1
  1201  1442  1443    1
  1202  1433  1420    1
  1203  1437  1438    1
  1204  1449  1448    2
  1205  1438  1439    1
  1206  1448  1447   ar
  1207  1448  1450   ar
  1208   953   957    1
  1209   953   952    1
  1210   963   962    1
  1211  1447  1445   ar
  1212  1452  1450    1
  1213   960   961   ar
  1214   960   959   ar
  1215  1450  1451   ar
  1216   962   961   ar
  1217   962   964   ar
  1218  1445  1446    2
  1219  1445  1444   ar
  1220   961   967   ar
  1221   959   958   ar
  1222  1451  1444   ar
  1223   964   965   ar
  1224  1444  1443    1
  1225   958   967   ar
  1226   958   957    1
  1227   967   966   ar
  1228   965   966   ar
  1229   957   956    1
  1230  1443  1439    1
  1231  1413  1412    2
  1232   947   950    1
  1233   947   949    2
  1234   947   948    1
  1235   951   950    1
  1236   951   952    1
  1237  1414  1412    1
  1238  1420  1419    1
  1239   952   954    1
  1240  1412  1400    1
  1241  1412  1415    1
  1242  1393  1392    2
  1243   956   954    1
  1244  1419  1421    1
  1245  1419  1417    1
  1246  1400  1399    1
  1247   954   955    1
  1248  1399  1401    1
  1249  1399  1397    1
  1250  1415  1416    1
  1251  1392  1394    1
  1252  1392  1395    1
  1253  1392  1380    1
  1254  1416  1417    1
  1255  1421  1422    1
  1256  1373  1372    2
  1257  1401  1402    1
  1258  1417  1418    1
  1259  1395  1396    1
  1260  1396  1397    1
  1261  1397  1398    1
  1262   955   968    1
  1263  1380  1379    1
  1264   974   978    1
  1265   974   973    1
  1266   984   983    2
  1267  1428  1427    1
  1268  1425  1424   ar
  1269  1425  1426   ar
  1270   982   983   ar
  1271   982   980   ar
  1272   983   985   ar
  1273  1424  1423   ar
  1274  1427  1426   ar
  1275  1427  1429   ar
  1276   981   980    2
  1277  1426  1432   ar
  1278   980   979   ar
  1279  1429  1430   ar
  1280   985   987    1
  1281   985   986   ar
  1282  1423  1432   ar
  1283  1423  1422    1
  1284  1432  1431   ar
  1285   979   986   ar
  1286   979   978    1
  1287  1430  1431   ar
  1288  1422  1418    1
  1289  1372  1374    1
  1290  1372  1375    1
  1291  1372  1361    1
  1292   978   977    1
  1293  1402  1398    1
  1294  1402  1403    1
  1295  1375  1376    1
  1296  1411  1409    1
  1297  1376  1377    1
  1298   970   968    2
  1299  1379  1377    1
  1300  1379  1381    1
  1301   968   971    1
  1302   968   969    1
  1303  1410  1409   ar
  1304  1410  1403   ar
  1305   972   971    1
  1306   972   973    1
  1307   973   975    1
  1308  1409  1407   ar
  1309  1377  1378    1
  1310  1403  1404   ar
  1311  1361  1360    1
  1312  1354  1353    2
  1313   977   975    1
  1314  1407  1408    2
  1315  1407  1406   ar
  1316  1381  1382    1
  1317  1404  1406   ar
  1318  1404  1405    2
  1319  1004  1003    2
  1320   975   976    1
  1321  1002  1003   ar
  1322  1002  1000   ar
  1323  1003  1005   ar
  1324  1001  1000    2
  1325  1360  1358    1
  1326  1360  1362    1
  1327  1356  1353    1
  1328  1356  1357    1
  1329  1378  1382    1
  1330  1000   999   ar
  1331  1353  1355    1
  1332  1353  1339    1
  1333  1357  1358    1
  1334  1382  1383    1
  1335  1005  1007    1
  1336  1005  1006   ar
  1337  1390  1383   ar
  1338  1390  1389   ar
  1339  1358  1359    1
  1340  1391  1389    1
  1341   999  1006   ar
  1342   999   998    1
  1343   976   988    1
  1344  1383  1384   ar
  1345  1025  1026   ar
  1346  1025  1023   ar
  1347  1389  1387   ar
  1348  1026  1027   ar
  1349  1362  1363    1
  1350   994   998    1
  1351   994   993    1
  1352   998   997    1
  1353  1339  1338    1
  1354  1384  1385    2
  1355  1384  1386   ar
  1356  1332  1331    2
  1357  1024  1023    1
  1358  1023  1022   ar
  1359  1387  1386   ar
  1360  1387  1388    2
  1361  1027  1028   ar
  1362  1359  1363    1
  1363   991   988    1
  1364   991   992    1
  1365   993   992    1
  1366   993   995    1
  1367  1363  1364    1
  1368   988   990    2
  1369   988   989    1
  1370   997   995    1
  1371  1028  1022   ar
  1372  1028  1019   ar
  1373  1022  1021   ar
  1374  1338  1336    1
  1375  1338  1340    1
  1376  1335  1334    1
  1377  1335  1336    1
  1378  1371  1364   ar
  1379  1371  1370   ar
  1380  1331  1334    1
  1381  1331  1333    1
  1382  1331  1318    1
  1383  1364  1365   ar
  1384   995   996    1
  1385  1336  1337    1
  1386  1019  1018    1
  1387  1019  1020   ar
  1388  1021  1020   ar
  1389  1370  1368   ar
  1390  1365  1366    2
  1391  1365  1367   ar
  1392  1340  1341    1
  1393  1045  1044    1
  1394  1014  1018    1
  1395  1014  1013    1
  1396  1018  1017    1
  1397  1043  1044   ar
  1398  1043  1041   ar
  1399  1368  1367   ar
  1400  1368  1369    1
  1401  1318  1317    1
  1402  1044  1046   ar
  1403  1042  1041    2
  1404  1067  1066    1
  1405  1041  1040   ar
  1406   996  1008    1
  1407  1337  1341    1
  1408  1341  1342    1
  1409  1066  1065   ar
  1410  1066  1068   ar
  1411  1046  1047   ar
  1412  1065  1063   ar
  1413  1013  1012    1
  1414  1013  1015    1
  1415  1040  1047   ar
  1416  1040  1039    1
  1417  1017  1015    1
  1418  1012  1011    1
  1419  1068  1069   ar
  1420  1317  1319    1
  1421  1317  1315    1
  1422  1008  1011    1
  1423  1008  1010    2
  1424  1008  1009    1
  1425  1342  1343   ar
  1426  1342  1352   ar
  1427  1343  1344   ar
  1428  1039  1035    1
  1429  1039  1038    1
  1430  1063  1064    2
  1431  1063  1062   ar
  1432  1069  1062   ar
  1433  1069  1059   ar
  1434  1015  1016    1
  1435  1352  1351   ar
  1436  1352  1345   ar
  1437  1035  1034    1
  1438  1062  1061   ar
  1439  1319  1320    1
  1440  1351  1349   ar
  1441  1344  1345   ar
  1442  1315  1314    1
  1443  1315  1316    1
  1444  1311  1310    2
  1445  1059  1058    1
  1446  1059  1060   ar
  1447  1345  1346   ar
  1448  1058  1054    1
  1449  1058  1057    1
  1450  1054  1053    1
  1451  1314  1313    1
  1452  1038  1036    1
  1453  1061  1060   ar
  1454  1349  1350    1
  1455  1349  1348   ar
  1456  1016  1029    1
  1457  1346  1348   ar
  1458  1346  1347    2
  1459  1103  1102    2
  1460  1320  1316    1
  1461  1320  1321    1
  1462  1034  1036    1
  1463  1034  1033    1
  1464  1313  1310    1
  1465  1310  1312    1
  1466  1310  1299    1
  1467  1057  1055    1
  1468  1032  1029    1
  1469  1032  1033    1
  1470  1083  1082    2
  1471  1053  1052    1
  1472  1053  1055    1
  1473  1036  1037    1
  1474  1031  1029    2
  1475  1102  1104   ar
  1476  1102  1101   ar
  1477  1029  1030    1
  1478  1122  1121    2
  1479  1080  1076    1
  1480  1080  1081    1
  1481  1080  1079    1
  1482  1082  1084   ar
  1483  1082  1081   ar
  1484  1329  1330   ar
  1485  1329  1328   ar
  1486  1104  1105   ar
  1487  1052  1051    1
  1488  1100  1099    1
  1489  1100  1101    1
  1490  1100  1096    1
  1491  1299  1298    1
  1492  1321  1330   ar
  1493  1321  1322   ar
  1494  1084  1085   ar
  1495  1076  1075    1
  1496  1081  1088   ar
  1497  1330  1324   ar
  1498  1328  1327   ar
  1499  1055  1056    1
  1500  1099  1097    1
  1501  1101  1108   ar
  1502  1115  1119    1
  1503  1115  1114    1
  1504  1121  1120   ar
  1505  1121  1123   ar
  1506  1085  1086    2
  1507  1085  1087   ar
  1508  1079  1077    1
  1509  1119  1120    1
  1510  1119  1118    1
  1511  1037  1048    1
  1512  1088  1087   ar
  1513  1322  1323   ar
  1514  1051  1048    1
  1515  1105  1106    1
  1516  1105  1107   ar
  1517  1087  1089    1
  1518  1120  1127   ar
  1519  1096  1095    1
  1520  1327  1325   ar
  1521  1123  1124   ar
  1522  1324  1323   ar
  1523  1324  1325   ar
  1524  1075  1077    1
  1525  1075  1074    1
  1526  1056  1070    1
  1527  1298  1300    1
  1528  1298  1296    1
  1529  1108  1107   ar
  1530  1300  1301    1
  1531  1325  1326    1
  1532  1114  1113    1
  1533  1114  1116    1
  1534  1073  1074    1
  1535  1073  1070    1
  1536  1077  1078    1
  1537  1127  1126   ar
  1538  1095  1097    1
  1539  1095  1094    1
  1540  1097  1098    1
  1541  1048  1049    2
  1542  1048  1050    1
  1543  1118  1116    1
  1544  1124  1126   ar
  1545  1124  1125    2
  1546  1113  1112    1
  1547  1148  1147    1
  1548  1126  1128    1
  1549  1139  1135    1
  1550  1139  1138    1
  1551  1139  1140    1
  1552  1135  1134    1
  1553  1296  1295    1
  1554  1296  1297    1
  1555  1112  1098    1
  1556  1149  1147   ar
  1557  1149  1150   ar
  1558  1070  1072    2
  1559  1070  1071    1
  1560  1292  1291    2
  1561  1147  1146   ar
  1562  1116  1117    1
  1563  1301  1297    1
  1564  1301  1302    1
  1565  1295  1294    1
  1566  1138  1136    1
  1567  1304  1303    2
  1568  1150  1140   ar
  1569  1150  1143   ar
  1570  1140  1141   ar
  1571  1134  1133    1
  1572  1134  1136    1
  1573  1093  1094    1
  1574  1093  1090    1
  1575  1294  1291    1
  1576  1146  1144   ar
  1577  1293  1291    1
  1578  1291  1280    1
  1579  1117  1129    1
  1580  1303  1302   ar
  1581  1303  1305   ar
  1582  1302  1309   ar
  1583  1133  1132    1
  1584  1143  1144   ar
  1585  1143  1142   ar
  1586  1092  1090    2
  1587  1141  1142   ar
  1588  1109  1111    2
  1589  1109  1110    1
  1590  1144  1145    2
  1591  1136  1137    1
  1592  1305  1306   ar
  1593  1090  1091    2
  1594  1309  1308   ar
  1595  1137  1151    1
  1596  1306  1308   ar
  1597  1306  1307    1
  1598  1132  1129    1
  1599  1280  1279    1
  1600  1157  1161    1
  1601  1157  1156    1
  1602  1129  1131    2
  1603  1129  1130    1
  1604  1155  1156    1
  1605  1155  1154    1
  1606  1161  1162    1
  1607  1161  1160    1
  1608  1279  1281    1
  1609  1279  1277    1
  1610  1156  1158    1
  1611  1151  1152    2
  1612  1151  1154    1
  1613  1151  1153    1
  1614  1281  1282    1
  1615  1169  1162   ar
  1616  1169  1168   ar
  1617  1162  1163   ar
  1618  1168  1166   ar
  1619  1163  1164    2
  1620  1163  1165   ar
  1621  1285  1284    2
  1622  1166  1165   ar
  1623  1166  1167    1
  1624  1160  1158    1
  1625  1284  1286   ar
  1626  1284  1283   ar
  1627  1277  1276    1
  1628  1277  1278    1
  1629  1158  1159    1
  1630  1286  1287   ar
  1631  1282  1283    1
  1632  1282  1278    1
  1633  1283  1290   ar
  1634  1276  1275    1
  1635  1287  1288    1
  1636  1287  1289   ar
  1637  1275  1272    1
  1638  1159  1170    1
  1639  1290  1289   ar
  1640  1273  1272    2
  1641  1272  1274    1
  1642  1272  1259    1
  1643  1172  1170    2
  1644  1170  1171    1
  1645  1170  1173    1
  1646  1268  1269   ar
  1647  1268  1266   ar
  1648  1269  1270   ar
  1649  1267  1266    1
  1650  1174  1173    1
  1651  1174  1175    1
  1652  1266  1265   ar
  1653  1270  1271   ar
  1654  1259  1258    1
  1655  1176  1175    1
  1656  1176  1180    1
  1657  1260  1258    1
  1658  1260  1261    1
  1659  1182  1183   ar
  1660  1182  1181   ar
  1661  1271  1265   ar
  1662  1271  1262   ar
  1663  1183  1184   ar
  1664  1265  1264   ar
  1665  1258  1256    1
  1666  1175  1177    1
  1667  1181  1180    1
  1668  1181  1190   ar
  1669  1180  1179    1
  1670  1262  1261    1
  1671  1262  1263   ar
  1672  1264  1263   ar
  1673  1184  1190   ar
  1674  1184  1185   ar
  1675  1261  1257    1
  1676  1186  1185    1
  1677  1190  1189   ar
  1678  1185  1187   ar
  1679  1177  1179    1
  1680  1177  1178    1
  1681  1256  1257    1
  1682  1256  1255    1
  1683  1189  1188   ar
  1684  1253  1251    2
  1685  1187  1188   ar
  1686  1255  1254    1
  1687  1207  1206    1
  1688  1254  1251    1
  1689  1193  1191    2
  1690  1252  1251    1
  1691  1178  1191    1
  1692  1251  1239    1
  1693  1208  1206    2
  1694  1208  1209    1
  1695  1206  1205    1
  1696  1191  1192    1
  1697  1191  1194    1
  1698  1209  1202    1
  1699  1244  1243    2
  1700  1245  1243   ar
  1701  1245  1246   ar
  1702  1205  1203    2
  1703  1247  1246    2
  1704  1243  1242   ar
  1705  1246  1248   ar
  1706  1239  1238    1
  1707  1202  1203    1
  1708  1202  1201    1
  1709  1240  1238    1
  1710  1240  1241    1
  1711  1203  1204    1
  1712  1194  1195    1
  1713  1197  1201    1
  1714  1197  1196    1
  1715  1238  1236    1
  1716  1201  1200    1
  1717  1242  1241    1
  1718  1242  1249   ar
  1719  1248  1249   ar
  1720  1248  1250    1
  1721  1204  1250    1
  1722  1226  1225    1
  1723  1195  1196    1
  1724  1241  1237    1
  1725  1250  1200    1
  1726  1196  1198    1
  1727  1227  1225   ar
  1728  1227  1228   ar
  1729  1225  1224   ar
  1730  1236  1237    1
  1731  1236  1235    1
  1732  1200  1198    1
  1733  1234  1235    1
  1734  1234  1231    1
  1735  1228  1229   ar
  1736  1224  1223   ar
  1737  1224  1230   ar
  1738  1223  1222   ar
  1739  1233  1231    2
  1740  1229  1230   ar
  1741  1230  1221   ar
  1742  1231  1232    1
  1743  1231  1218    1
  1744  1199  1211    1
  1745  1199  1210    1
  1746  1222  1221   ar
  1747  1221  1220    1
  1748  1219  1217    1
  1749  1219  1220    1
  1750  1217  1218    1
  1751  1217  1215    1
  1752  1213  1214    1
  1753  1210  1212    2
  1754  1220  1216    1
  1755  1214  1215    1
  1756  1215  1216    1
  1757  1090  1076    1
  1758  591   604     1
