AFB1t.pdb
  RxDock  09122020383D
librxdock.so/0.1.0
 23 27  0  0  0  0  0  0  0  0999 V2000
   -0.3242    1.6906    0.9387 O   0  0  0  0  0  0
   -0.4167    1.4237   -0.2449 C   0  0  0  0  0  0
   -0.3859    0.0788   -0.8197 C   0  0  0  0  0  0
    0.1297   -1.1559   -0.2484 C   0  0  0  0  0  0
    0.7421   -1.2147    0.8126 O   0  0  0  0  0  0
   -0.0802   -2.2864   -1.0360 O   0  0  0  0  0  0
   -0.7109   -2.2207   -2.2986 C   0  0  0  0  0  0
   -0.9507   -3.4188   -2.9445 C   0  0  0  0  0  0
   -1.5908   -3.4089   -4.1667 C   0  0  0  0  0  0
   -1.8348   -4.6538   -4.6833 O   0  0  0  0  0  0
   -1.5417   -5.5625   -3.5902 C   0  0  0  0  0  0
   -0.7397   -6.6793   -4.0364 O   0  0  0  0  0  0
    0.4915   -6.4687   -3.4511 C   0  0  0  0  0  0
    0.5846   -5.4328   -2.6181 C   0  0  0  0  0  0
   -0.7561   -4.8134   -2.4860 C   0  0  0  0  0  0
   -1.9997   -2.2382   -4.7803 C   0  0  0  0  0  0
   -1.8027   -1.0201   -4.1128 C   0  0  0  0  0  0
   -2.2503    0.1823   -4.5965 O   0  0  0  0  0  0
   -3.6511    0.3542   -4.7786 C   0  0  0  0  0  0
   -1.1376   -0.9995   -2.8583 C   0  0  0  0  0  0
   -0.9287    0.1986   -2.0405 C   0  0  0  0  0  0
   -1.3089    1.6022   -2.3885 C   0  0  0  0  0  0
   -0.5903    2.4373   -1.3355 C   0  0  0  0  0  0
  1  2  2  0  0  0
  2  3  1  0  0  0
  2 23  1  0  0  0
  3  4  1  0  0  0
  3 21  2  0  0  0
  4  5  2  0  0  0
  4  6  1  0  0  0
  6  7  1  0  0  0
  7  8  1  0  0  0
  7 20  2  0  0  0
  8  9  2  0  0  0
  8 15  1  0  0  0
  9 10  1  0  0  0
  9 16  1  0  0  0
 10 11  1  0  0  0
 11 12  1  0  0  0
 11 15  1  0  0  0
 12 13  1  0  0  0
 13 14  2  0  0  0
 14 15  1  0  0  0
 16 17  2  0  0  0
 17 18  1  0  0  0
 17 20  1  0  0  0
 18 19  1  0  0  0
 20 21  1  0  0  0
 21 22  1  0  0  0
 22 23  1  0  0  0
M  END
>  <AUTHOR>
    GENERATED BY OPEN BABEL 3.1.0

>  <CHROM.1>
61.40127090,-0.92507549,-1.89235796,-2.50760983,-1.54748500,0.99468845,-2.76128057

>  <COMPND>
    UNNAMED

>  <MASTER>
        0    0    0    0    0    0    0    0   35    0   35    0

>  <Name>
AFB1t.pdb

>  <RI>
0

>  <Rbt.Current_Directory>
/home/fc/tossine/AF_AB3/p3/0_clust01

>  <Rbt.Executable>
rbdock/0.1.0

>  <Rbt.Library>
librxdock.so/0.1.0

>  <Rbt.Parameter_File>
/cluster/rxdock/data/scripts/dock.prm

>  <Rbt.Receptor>
rx_2.prm

>  <SCORE>
-2.06857

>  <SCORE.INTER>
-1.93095

>  <SCORE.INTER.CONST>
1

>  <SCORE.INTER.POLAR>
0

>  <SCORE.INTER.REPUL>
0.52036

>  <SCORE.INTER.ROT>
1

>  <SCORE.INTER.VDW>
-10.9327

>  <SCORE.INTER.norm>
-0.0839543

>  <SCORE.INTRA>
-0.138363

>  <SCORE.INTRA.DIHEDRAL>
3.65325

>  <SCORE.INTRA.DIHEDRAL.0>
0.0968638

>  <SCORE.INTRA.POLAR>
0

>  <SCORE.INTRA.POLAR.0>
0

>  <SCORE.INTRA.REPUL>
0

>  <SCORE.INTRA.REPUL.0>
0

>  <SCORE.INTRA.VDW>
-1.96499

>  <SCORE.INTRA.VDW.0>
2.11718

>  <SCORE.INTRA.norm>
-0.00601577

>  <SCORE.RESTR>
0.000738066

>  <SCORE.RESTR.CAVITY>
0.000738066

>  <SCORE.RESTR.norm>
3.20898e-05

>  <SCORE.SYSTEM>
0

>  <SCORE.SYSTEM.CONST>
0

>  <SCORE.SYSTEM.DIHEDRAL>
0

>  <SCORE.SYSTEM.norm>
0

>  <SCORE.heavy>
23

>  <SCORE.norm>
-0.089938

$$$$
