@<TRIPOS>MOLECULE
dna.pdb
 1463 1641 0 0 0
SMALL
GASTEIGER

@<TRIPOS>ATOM
      1  O5'        2.9280    8.2620   10.6470 O.3     1  DA1        -0.2176
      2  C5'        4.1720    8.1360   11.3460 C.3     1  DA1         0.2140
      3  C4'        5.2860    7.7820   10.3800 C.3     1  DA1         0.1776
      4  O4'        5.0140    6.4840    9.7770 O.3     1  DA1        -0.3326
      5  C3'        5.4330    8.7120    9.1840 C.3     1  DA1         0.1559
      6  O3'        6.1570    9.8960    9.4680 O.3     1  DA1        -0.3138
      7  C2'        6.0840    7.8140    8.1430 C.3     1  DA1         0.0865
      8  C1'        5.3350    6.5080    8.3910 C.3     1  DA1         0.2094
      9  N9         4.0120    6.5880    7.5600 N.ar    1  DA1        -0.2714
     10  C8         2.7740    6.4510    8.1320 C.ar    1  DA1         0.1815
     11  N7         1.8210    6.1790    7.2730 N.ar    1  DA1        -0.2193
     12  C5         2.4780    6.1350    6.0530 C.ar    1  DA1         0.1518
     13  C6         2.0260    5.8910    4.7440 C.ar    1  DA1         0.1919
     14  N6         0.7530    5.6330    4.4370 N.pl3   1  DA1        -0.1054
     15  N1         2.9400    5.9210    3.7500 N.ar    1  DA1        -0.2040
     16  C2         4.2160    6.1780    4.0590 C.ar    1  DA1         0.2016
     17  N3         4.7600    6.4230    5.2480 N.ar    1  DA1        -0.2048
     18  C4         3.8270    6.3870    6.2140 C.ar    1  DA1         0.1691
     19  P          5.3430   10.7510    9.4170 P.3     2  DT2         0.2141
     20  OP1        6.5650   11.4420    9.9030 O.3     2  DT2        -0.4373
     21  OP2        4.0340   11.4410    9.4810 O.2     2  DT2        -0.5172
     22  O5'        5.5690   10.2160    7.9190 O.3     2  DT2        -0.3114
     23  C5'        6.8600   10.3120    7.2800 C.3     2  DT2         0.1811
     24  C4'        6.7770   10.0060    5.7830 C.3     2  DT2         0.1746
     25  O4'        5.9360    8.8510    5.5390 O.3     2  DT2        -0.3327
     26  C3'        6.1830   11.0730    4.8750 C.3     2  DT2         0.1558
     27  O3'        7.1150   12.0920    4.5200 O.3     2  DT2        -0.3138
     28  C2'        5.7910   10.2810    3.6390 C.3     2  DT2         0.0866
     29  C1'        5.4160    8.9310    4.2300 C.3     2  DT2         0.2106
     30  N1         3.9730    8.8070    4.1900 N.ar    2  DT2        -0.2559
     31  C2         3.3910    8.4010    3.0040 C.ar    2  DT2         0.3545
     32  O2         4.0360    8.1190    2.0100 O.2     2  DT2        -0.2443
     33  N3         2.0180    8.3380    3.0230 N.ar    2  DT2        -0.1533
     34  C4         1.1880    8.6330    4.0840 C.ar    2  DT2         0.2804
     35  O4        -0.0280    8.5270    3.9480 O.2     2  DT2        -0.2654
     36  C5         1.8680    9.0480    5.2790 C.ar    2  DT2         0.0534
     37  C6         3.2020    9.1180    5.2890 C.ar    2  DT2         0.0824
     38  C7         1.0520    9.3920    6.4900 C.3     2  DT2         0.0377
     39  P          6.6330   13.3370    3.6810 P.3     3  DC3         0.2141
     40  OP1        7.6770   14.2930    3.2170 O.2     3  DC3        -0.5172
     41  OP2        5.4770   13.8420    4.4580 O.3     3  DC3        -0.4373
     42  O5'        5.9820   12.6410    2.4130 O.3     3  DC3        -0.3114
     43  C5'        6.7370   12.3920    1.2500 C.3     3  DC3         0.1811
     44  C4'        5.8430   12.4820    0.0500 C.3     3  DC3         0.1744
     45  O4'        4.8000   11.4880    0.1850 O.3     3  DC3        -0.3348
     46  C3'        5.0840   13.7930   -0.0500 C.3     3  DC3         0.1555
     47  O3'        5.7950   14.8020   -0.7310 O.3     3  DC3        -0.3139
     48  C2'        3.8420   13.4150   -0.8260 C.3     3  DC3         0.0836
     49  C1'        3.5700   12.0110   -0.2900 C.3     3  DC3         0.1983
     50  N1         2.6330   11.9440    0.6840 N.am    3  DC3        -0.2339
     51  C2         1.2750   11.8950    0.3480 C.2     3  DC3         0.3424
     52  O2         0.9600   11.7000   -0.8380 O.2     3  DC3        -0.2473
     53  N3         0.3480   12.0610    1.3210 N.ar    3  DC3        -0.1614
     54  C4         0.7340   12.2690    2.5810 C.ar    3  DC3         0.1868
     55  N4        -0.2150   12.4270    3.5070 N.ar    3  DC3        -0.1283
     56  C5         2.1050   12.3220    2.9420 C.2     3  DC3         0.0362
     57  C6         3.0170   12.1570    1.9780 C.3     3  DC3         0.1271
     58  P          5.3510   16.5290   -0.4150 P.3     4  DC4         0.2141
     59  OP1        6.2420   17.7180   -0.4350 O.2     4  DC4        -0.5172
     60  OP2        4.4070   16.3330    0.7220 O.3     4  DC4        -0.4373
     61  O5'        4.5090   16.5220   -1.7610 O.3     4  DC4        -0.3114
     62  C5'        3.3020   17.2680   -1.8590 C.3     4  DC4         0.1811
     63  C4'        2.4750   16.7700   -3.0140 C.3     4  DC4         0.1746
     64  O4'        2.3080   15.3310   -2.9170 O.3     4  DC4        -0.3327
     65  C3'        1.0730   17.3330   -2.9820 C.3     4  DC4         0.1558
     66  O3'        1.0210   18.6180   -3.5700 O.3     4  DC4        -0.3138
     67  C2'        0.2530   16.2530   -3.6720 C.3     4  DC4         0.0866
     68  C1'        0.9540   14.9880   -3.1650 C.3     4  DC4         0.2106
     69  N1         0.2870   14.6180   -1.6250 N.ar    4  DC4        -0.2556
     70  C2        -0.9540   13.9870   -1.4900 C.ar    4  DC4         0.3533
     71  O2        -1.6920   13.9000   -2.4870 O.2     4  DC4        -0.2443
     72  N3        -1.3150   13.4910   -0.2820 N.ar    4  DC4        -0.1713
     73  C4        -0.4900   13.6080    0.7590 C.ar    4  DC4         0.1883
     74  N4        -0.8880   13.1050    1.9300 N.ar    4  DC4        -0.1393
     75  C5         0.7720   14.2440    0.6430 C.ar    4  DC4         0.0595
     76  C6         1.1240   14.7320   -0.5510 C.ar    4  DC4         0.0852
     77  P          0.1460   19.6640   -2.9190 P.3     5  DG5         0.2141
     78  OP1        0.5040   20.8210   -3.7730 O.2     5  DG5        -0.5172
     79  OP2        0.4120   19.6650   -1.4600 O.3     5  DG5        -0.4373
     80  O5'       -1.4210   19.3420   -3.0470 O.3     5  DG5        -0.3114
     81  C5'       -1.9580   19.0330   -4.3270 C.3     5  DG5         0.1811
     82  C4'       -3.2540   18.2600   -4.2600 C.3     5  DG5         0.1746
     83  O4'       -3.0300   16.9500   -3.6740 O.3     5  DG5        -0.3327
     84  C3'       -4.3640   18.8450   -3.3990 C.3     5  DG5         0.1558
     85  O3'       -5.0500   19.9400   -3.9830 O.3     5  DG5        -0.3138
     86  C2'       -5.2420   17.6290   -3.1710 C.3     5  DG5         0.0865
     87  C1'       -4.1740   16.5590   -2.9420 C.3     5  DG5         0.2094
     88  N9        -3.8270   16.4510   -1.5090 N.ar    5  DG5        -0.2713
     89  C8        -2.6100   16.8080   -0.9790 C.ar    5  DG5         0.1816
     90  N7        -2.4790   16.4780    0.2770 N.ar    5  DG5        -0.2173
     91  C5        -3.6760   15.8660    0.5980 C.ar    5  DG5         0.1748
     92  C6        -4.1250   15.3000    1.8190 C.ar    5  DG5         0.3023
     93  O6        -3.5230   15.2290    2.8970 O.2     5  DG5        -0.2633
     94  N1        -5.4130   14.7820    1.7100 N.ar    5  DG5        -0.1708
     95  C2        -6.1740   14.8060    0.5660 C.ar    5  DG5         0.2633
     96  N2        -7.3920   14.2560    0.6560 N.pl3   5  DG5        -0.0637
     97  N3        -5.7710   15.3290   -0.5750 N.ar    5  DG5        -0.1917
     98  C4        -4.5230   15.8390   -0.4930 C.ar    5  DG5         0.1722
     99  P         -5.1410   21.2230   -3.0900 P.3     6  DT6         0.2141
    100  OP1       -5.3640   22.3390   -4.0650 O.2     6  DT6        -0.5172
    101  OP2       -4.0510   21.3510   -2.0840 O.3     6  DT6        -0.4373
    102  O5'       -6.4910   20.8980   -2.3050 O.3     6  DT6        -0.3114
    103  C5'       -7.6760   20.5670   -3.0300 C.3     6  DT6         0.1811
    104  C4'       -8.6260   19.7710   -2.1800 C.3     6  DT6         0.1746
    105  O4'       -7.9810   18.5550   -1.7380 O.3     6  DT6        -0.3327
    106  C3'       -9.1210   20.4110   -0.8990 C.3     6  DT6         0.1558
    107  O3'      -10.1920   21.3110   -1.1210 O.3     6  DT6        -0.3138
    108  C2'       -9.5510   19.2050   -0.0680 C.3     6  DT6         0.0866
    109  C1'       -8.5180   18.1600   -0.4850 C.3     6  DT6         0.2106
    110  N1        -7.4340   18.1090    0.4420 N.ar    6  DT6        -0.2559
    111  C2        -7.5600   17.3210    1.5710 C.ar    6  DT6         0.3545
    112  O2        -8.5410   16.6360    1.7960 O.2     6  DT6        -0.2443
    113  N3        -6.4910   17.3660    2.4330 N.ar    6  DT6        -0.1533
    114  C4        -5.3340   18.1020    2.2830 C.ar    6  DT6         0.2804
    115  O4        -4.4600   18.0380    3.1440 O.2     6  DT6        -0.2654
    116  C5        -5.2790   18.8940    1.0870 C.ar    6  DT6         0.0534
    117  C6        -6.3050   18.8700    0.2310 C.ar    6  DT6         0.0824
    118  C7        -4.0600   19.7310    0.8330 C.3     6  DT6         0.0377
    119  P        -10.6030   22.4150    0.0530 P.3     7  DC7         0.2141
    120  OP1      -11.2090   23.6730   -0.4510 O.2     7  DC7        -0.5172
    121  OP2       -9.6370   22.4790    1.1780 O.3     7  DC7        -0.4373
    122  O5'      -11.7620   21.4150    0.4700 O.3     7  DC7        -0.3114
    123  C5'      -12.4130   21.5660    1.6990 C.3     7  DC7         0.1811
    124  C4'      -12.8680   20.2370    2.2090 C.3     7  DC7         0.1746
    125  O4'      -11.8080   19.2590    2.1070 O.3     7  DC7        -0.3327
    126  C3'      -13.1260   20.3810    3.6780 C.3     7  DC7         0.1558
    127  O3'      -14.4170   20.8750    3.9020 O.3     7  DC7        -0.3138
    128  C2'      -12.8150   19.0060    4.2430 C.3     7  DC7         0.0866
    129  C1'      -11.6470   18.5860    3.3470 C.3     7  DC7         0.2106
    130  N1       -10.4520   19.0560    4.2300 N.ar    7  DC7        -0.2556
    131  C2       -10.0260   18.3200    5.3410 C.ar    7  DC7         0.3531
    132  O2       -10.7510   17.4030    5.7650 O.2     7  DC7        -0.2443
    133  N3        -8.8410   18.6270    5.9210 N.ar    7  DC7        -0.1739
    134  C4        -8.0970   19.6190    5.4320 C.ar    7  DC7         0.1759
    135  N4        -6.9360   19.8850    6.0360 N.pl3   7  DC7        -0.1070
    136  C5        -8.5110   20.3770    4.3070 C.ar    7  DC7         0.0566
    137  C6        -9.6810   20.0710    3.7380 C.ar    7  DC7         0.0849
    138  P        -14.6390   21.7080    5.1480 P.3     8  DA8         0.2141
    139  OP1      -16.0290   22.1600    5.4040 O.3     8  DA8        -0.4373
    140  OP2      -13.5750   22.7260    4.9290 O.2     8  DA8        -0.5172
    141  O5'      -14.2520   20.7940    6.3950 O.3     8  DA8        -0.3114
    142  C5'      -15.2680   20.0980    7.1040 C.3     8  DA8         0.1811
    143  C4'      -14.6610   19.2560    8.1920 C.3     8  DA8         0.1746
    144  O4'      -13.3630   18.8370    7.7190 O.3     8  DA8        -0.3327
    145  C3'      -14.3140   19.9540    9.4950 C.3     8  DA8         0.1558
    146  O3'      -15.4390   20.0680   10.3620 O.3     8  DA8        -0.3138
    147  C2'      -13.2550   19.0260   10.0830 C.3     8  DA8         0.0865
    148  C1'      -12.5120   18.5880    8.8180 C.3     8  DA8         0.2094
    149  N9       -11.2870   19.3130    8.5200 N.ar    8  DA8        -0.2714
    150  C8       -11.0850   20.2210    7.5130 C.ar    8  DA8         0.1815
    151  N7        -9.9240   20.8290    7.5730 N.ar    8  DA8        -0.2193
    152  C5        -9.3230   20.2850    8.6970 C.ar    8  DA8         0.1518
    153  C6        -8.0750   20.5110    9.3050 C.ar    8  DA8         0.1919
    154  N6        -7.1740   21.3810    8.8430 N.pl3   8  DA8        -0.1054
    155  N1        -7.7830   19.8030   10.4170 N.ar    8  DA8        -0.2040
    156  C2        -8.6860   18.9300   10.8780 C.ar    8  DA8         0.2016
    157  N3        -9.8900   18.6310   10.3950 N.ar    8  DA8        -0.2048
    158  C4       -10.1500   19.3510    9.2910 C.ar    8  DA8         0.1691
    159  P        -15.5230   21.3040   11.3490 P.3     9  DC9         0.2141
    160  OP1      -16.7600   21.1830   12.1680 O.3     9  DC9        -0.4373
    161  OP2      -15.1590   22.6040   10.7350 O.2     9  DC9        -0.5172
    162  O5'      -14.3130   20.8530   12.2760 O.3     9  DC9        -0.3114
    163  C5'      -14.5290   20.0160   13.4060 C.3     9  DC9         0.1811
    164  C4'      -13.3800   20.1440   14.3760 C.3     9  DC9         0.1746
    165  O4'      -12.1530   19.7460   13.7110 O.3     9  DC9        -0.3327
    166  C3'      -13.1100   21.5500   14.8750 C.3     9  DC9         0.1558
    167  O3'      -13.9240   21.8650   16.0050 O.3     9  DC9        -0.3138
    168  C2'      -11.6210   21.5060   15.1950 C.3     9  DC9         0.0866
    169  C1'      -11.0890   20.5960   14.0880 C.3     9  DC9         0.2106
    170  N1       -10.6320   21.3070   12.8340 N.ar    9  DC9        -0.2556
    171  C2        -9.4040   21.9740   12.9190 C.ar    9  DC9         0.3531
    172  O2        -8.7770   21.9380   13.9910 O.2     9  DC9        -0.2443
    173  N3        -8.9380   22.6380   11.8340 N.ar    9  DC9        -0.1739
    174  C4        -9.6450   22.6500   10.7040 C.ar    9  DC9         0.1759
    175  N4        -9.1460   23.3170    9.6610 N.pl3   9  DC9        -0.1070
    176  C5       -10.8910   21.9800   10.5980 C.ar    9  DC9         0.0566
    177  C6       -11.3480   21.3260   11.6710 C.ar    9  DC9         0.0849
    178  P        -14.4290   23.5060   16.2920 P.3    10  DA10        0.2141
    179  OP1      -15.2960   23.6550   17.4910 O.3    10  DA10       -0.4373
    180  OP2      -14.9870   23.8260   14.9520 O.2    10  DA10       -0.5172
    181  O5'      -13.0800   24.3170   16.5540 O.3    10  DA10       -0.3114
    182  C5'      -12.2090   23.9270   17.6210 C.3    10  DA10        0.1811
    183  C4'      -10.9370   24.7410   17.6220 C.3    10  DA10        0.1746
    184  O4'      -10.0010   24.2730   16.6170 O.3    10  DA10       -0.3327
    185  C3'      -11.0870   26.2170   17.3310 C.3    10  DA10        0.1558
    186  O3'      -11.5500   26.9310   18.4660 O.3    10  DA10       -0.3138
    187  C2'       -9.6740   26.6190   16.9170 C.3    10  DA10        0.0865
    188  C1'       -9.1680   25.3550   16.2280 C.3    10  DA10        0.2094
    189  N9        -9.2140   25.5120   14.8080 N.ar   10  DA10       -0.2714
    190  C8       -10.2240   25.2110   13.9310 C.ar   10  DA10        0.1815
    191  N7        -9.9630   25.5450   12.6890 N.ar   10  DA10       -0.2193
    192  C5        -8.6960   26.1030   12.7550 C.ar   10  DA10        0.1518
    193  C6        -7.8530   26.6520   11.7730 C.ar   10  DA10        0.1919
    194  N6        -8.1760   26.7300   10.4800 N.pl3  10  DA10       -0.1054
    195  N1        -6.6520   27.1240   12.1720 N.ar   10  DA10       -0.2040
    196  C2        -6.3290   27.0440   13.4670 C.ar   10  DA10        0.2016
    197  N3        -7.0350   26.5500   14.4820 N.ar   10  DA10       -0.2048
    198  C4        -8.2230   26.0910   14.0530 C.ar   10  DA10        0.1691
    199  P        -11.8530   28.4740   18.3080 P.3    11  DC11        0.2141
    200  OP1      -12.5530   29.0020   19.4990 O.3    11  DC11       -0.4373
    201  OP2      -12.5650   28.3370   17.0130 O.2    11  DC11       -0.5172
    202  O5'      -10.5980   29.4040   17.9620 O.3    11  DC11       -0.3114
    203  C5'       -9.5310   29.5660   18.8850 C.3    11  DC11        0.1811
    204  C4'       -8.3440   30.2220   18.2260 C.3    11  DC11        0.1746
    205  O4'       -7.8600   29.3710   17.1540 O.3    11  DC11       -0.3327
    206  C3'       -8.6190   31.5610   17.5570 C.3    11  DC11        0.1558
    207  O3'       -8.5830   32.6460   18.4730 O.3    11  DC11       -0.3138
    208  C2'       -7.5420   31.6260   16.4800 C.3    11  DC11        0.0866
    209  C1'       -7.4040   30.1560   16.0750 C.3    11  DC11        0.2106
    210  N1        -8.1030   29.7550   14.8450 N.ar   11  DC11       -0.2556
    211  C2        -7.6330   30.1980   13.6030 C.ar   11  DC11        0.3531
    212  O2        -6.5930   30.8770   13.5650 O.2    11  DC11       -0.2443
    213  N3        -8.3230   29.8750   12.4830 N.ar   11  DC11       -0.1739
    214  C4        -9.4360   29.1450   12.5720 C.ar   11  DC11        0.1759
    215  N4       -10.0830   28.8520   11.4420 N.pl3  11  DC11       -0.1070
    216  C5        -9.9290   28.6870   13.8210 C.ar   11  DC11        0.0566
    217  C6        -9.2440   29.0070   14.9240 C.ar   11  DC11        0.0849
    218  P         -9.9300   33.6250   18.8290 P.3    12  DC12        0.2141
    219  OP1      -10.3590   34.1350   20.1590 O.3    12  DC12       -0.4373
    220  OP2      -11.0010   33.0570   17.9580 O.2    12  DC12       -0.5172
    221  O5'       -9.1390   34.7460   18.0140 O.3    12  DC12       -0.3114
    222  C5'       -9.0560   34.6540   16.5980 C.3    12  DC12        0.1811
    223  C4'       -7.7670   35.2730   16.0880 C.3    12  DC12        0.1746
    224  O4'       -7.0410   34.2310   15.3970 O.3    12  DC12       -0.3327
    225  C3'       -7.9710   36.3680   15.0450 C.3    12  DC12        0.1558
    226  O3'       -8.0770   37.6790   15.5990 O.3    12  DC12       -0.3138
    227  C2'       -6.8220   36.1450   14.0620 C.3    12  DC12        0.0866
    228  C1'       -6.8310   34.6130   14.0560 C.3    12  DC12        0.2106
    229  N1        -7.6970   33.9200   13.0900 N.ar   12  DC12       -0.2556
    230  C2        -7.3860   34.0540   11.7320 C.ar   12  DC12        0.3531
    231  O2        -6.3650   34.6860   11.4120 O.2    12  DC12       -0.2443
    232  N3        -8.2050   33.4940   10.8090 N.ar   12  DC12       -0.1739
    233  C4        -9.2910   32.8260   11.1990 C.ar   12  DC12        0.1759
    234  N4       -10.0680   32.2910   10.2540 N.pl3  12  DC12       -0.1070
    235  C5        -9.6240   32.6790   12.5700 C.ar   12  DC12        0.0566
    236  C6        -8.8130   33.2330   13.4780 C.ar   12  DC12        0.0849
    237  P         -9.5830   38.2090   15.6240 P.3    13  DT13        0.2141
    238  OP1       -9.3900   39.2130   16.6970 O.3    13  DT13       -0.4373
    239  OP2      -10.8270   37.4150   15.5270 O.2    13  DT13       -0.5172
    240  O5'       -9.4400   38.9150   14.1980 O.3    13  DT13       -0.3114
    241  C5'       -8.1680   39.4640   13.9210 C.3    13  DT13        0.1811
    242  C4'       -7.9820   39.7110   12.4530 C.3    13  DT13        0.1746
    243  O4'       -7.7410   38.4700   11.7510 O.3    13  DT13       -0.3327
    244  C3'       -9.1700   40.3230   11.7420 C.3    13  DT13        0.1558
    245  O3'       -9.2220   41.7140   11.9750 O.3    13  DT13       -0.3138
    246  C2'       -8.9100   39.9430   10.2920 C.3    13  DT13        0.0866
    247  C1'       -8.2790   38.5590   10.4500 C.3    13  DT13        0.2106
    248  N1        -9.1960   37.3900   10.3220 N.ar   13  DT13       -0.2559
    249  C2        -9.4770   36.9680    9.0370 C.ar   13  DT13        0.3545
    250  O2        -8.9100   37.4110    8.0530 O.2    13  DT13       -0.2443
    251  N3       -10.4510   36.0040    8.9420 N.ar   13  DT13       -0.1533
    252  C4       -11.1570   35.4320    9.9800 C.ar   13  DT13        0.2804
    253  O4       -12.0030   34.5750    9.7360 O.2    13  DT13       -0.2654
    254  C5       -10.8090   35.9230   11.2830 C.ar   13  DT13        0.0534
    255  C6        -9.8650   36.8610   11.4040 C.ar   13  DT13        0.0824
    256  C7       -11.5220   35.3630   12.4780 C.3    13  DT13        0.0377
    257  P        -10.2190   42.5970   11.7030 P.3    14  DG14        0.2141
    258  OP1       -9.9520   44.0110   12.0730 O.2    14  DG14       -0.5172
    259  OP2      -10.9850   41.7240   12.6400 O.3    14  DG14       -0.4373
    260  O5'      -11.0310   42.6960   10.3500 O.3    14  DG14       -0.3114
    261  C5'      -10.3270   42.9670    9.1470 C.3    14  DG14        0.1811
    262  C4'      -11.1230   42.4980    7.9770 C.3    14  DG14        0.1746
    263  O4'      -10.9490   41.0950    7.7400 O.3    14  DG14       -0.3327
    264  C3'      -12.6190   42.6730    8.1290 C.3    14  DG14        0.1558
    265  O3'      -12.8690   44.0150    7.7180 O.3    14  DG14       -0.3138
    266  C2'      -13.1970   41.6350    7.1630 C.3    14  DG14        0.0865
    267  C1'      -12.0240   40.6640    6.9440 C.3    14  DG14        0.2094
    268  N9       -12.2880   39.4360    7.2800 N.ar   14  DG14       -0.2713
    269  C8       -12.3280   39.1020    8.6120 C.ar   14  DG14        0.1816
    270  N7       -13.1050   38.0840    8.8650 N.ar   14  DG14       -0.2173
    271  C5       -13.6070   37.7200    7.6300 C.ar   14  DG14        0.1748
    272  C6       -14.5050   36.6830    7.2670 C.ar   14  DG14        0.3023
    273  O6       -15.0510   35.8510    8.0020 O.2    14  DG14       -0.2633
    274  N1       -14.7530   36.6650    5.8970 N.ar   14  DG14       -0.1709
    275  C2       -14.2030   37.5380    4.9890 C.ar   14  DG14        0.2606
    276  N2       -14.5610   37.3620    3.7100 N.pl3  14  DG14       -0.0859
    277  N3       -13.3690   38.5060    5.3110 N.ar   14  DG14       -0.1918
    278  C4       -13.1140   38.5440    6.6360 C.ar   14  DG14        0.1722
    279  P        -14.4500   44.7400    7.9990 P.3    15  DC15        0.2141
    280  OP1      -14.4550   46.1490    7.5490 O.2    15  DC15       -0.5172
    281  OP2      -15.1760   44.3320    9.2210 O.3    15  DC15       -0.4373
    282  O5'      -15.1160   43.8680    6.8430 O.3    15  DC15       -0.3114
    283  C5'      -15.2060   44.4570    5.5610 C.3    15  DC15        0.1811
    284  C4'      -16.1020   43.6350    4.6870 C.3    15  DC15        0.1746
    285  O4'      -15.6050   42.2770    4.6790 O.3    15  DC15       -0.3327
    286  C3'      -17.5220   43.5030    5.1960 C.3    15  DC15        0.1558
    287  O3'      -18.3360   44.6000    4.8410 O.3    15  DC15       -0.3138
    288  C2'      -17.9740   42.1820    4.5940 C.3    15  DC15        0.0866
    289  C1'      -16.6850   41.3710    4.7180 C.3    15  DC15        0.2106
    290  N1       -16.6160   40.5820    5.9730 N.ar   15  DC15       -0.2556
    291  C2       -17.2310   39.3250    6.0020 C.ar   15  DC15        0.3531
    292  O2       -17.8480   38.9380    4.9940 O.2    15  DC15       -0.2443
    293  N3       -17.1390   38.5710    7.1230 N.ar   15  DC15       -0.1739
    294  C4       -16.4680   39.0270    8.1810 C.ar   15  DC15        0.1759
    295  N4       -16.4040   38.2480    9.2630 N.pl3  15  DC15       -0.1070
    296  C5       -15.8370   40.2980    8.1720 C.ar   15  DC15        0.0566
    297  C6       -15.9310   41.0400    7.0630 C.ar   15  DC15        0.0849
    298  P        -19.6210   44.8770    5.7570 P.3    16  DT16        0.2141
    299  OP1      -20.1910   46.0950    5.1420 O.2    16  DT16       -0.5172
    300  OP2      -19.0630   44.8980    7.1210 O.3    16  DT16       -0.4373
    301  O5'      -20.7100   43.7130    5.7580 O.3    16  DT16       -0.3114
    302  C5'      -21.4900   43.4270    4.6270 C.3    16  DT16        0.1811
    303  C4'      -22.1130   42.0550    4.7730 C.3    16  DT16        0.1746
    304  O4'      -21.0900   41.0730    5.0690 O.3    16  DT16       -0.3327
    305  C3'      -23.1030   41.8870    5.9220 C.3    16  DT16        0.1558
    306  O3'      -24.3920   42.3990    5.6090 O.3    16  DT16       -0.3138
    307  C2'      -23.1340   40.3750    6.0370 C.3    16  DT16        0.0866
    308  C1'      -21.6530   40.0580    5.8880 C.3    16  DT16        0.2106
    309  N1       -20.9250   40.0160    7.1920 N.ar   16  DT16       -0.2559
    310  C2       -20.9100   38.8300    7.9010 C.ar   16  DT16        0.3545
    311  O2       -21.5260   37.8390    7.5510 O.2    16  DT16       -0.2443
    312  N3       -20.1460   38.8450    9.0430 N.ar   16  DT16       -0.1533
    313  C4       -19.4110   39.9030    9.5360 C.ar   16  DT16        0.2804
    314  O4       -18.7720   39.7640   10.5760 O.2    16  DT16       -0.2654
    315  C5       -19.4780   41.0990    8.7440 C.ar   16  DT16        0.0534
    316  C6       -20.2140   41.1120    7.6290 C.ar   16  DT16        0.0824
    317  C7       -18.7130   42.3070    9.1970 C.3    16  DT16        0.0377
    318  P        -25.2880   42.9020    6.7040 P.3    17  DC17        0.2141
    319  OP1      -25.9710   43.9870    5.9390 O.2    17  DC17       -0.5172
    320  OP2      -24.1130   43.2280    7.5390 O.3    17  DC17       -0.4373
    321  O5'      -26.2940   42.0860    7.6220 O.3    17  DC17       -0.3114
    322  C5'      -27.2850   41.2600    7.0210 C.3    17  DC17        0.1811
    323  C4'      -27.6440   40.1100    7.9190 C.3    17  DC17        0.1761
    324  O4'      -26.5340   39.1800    8.0520 O.3    17  DC17       -0.3216
    325  C3'      -27.9440   40.4560    9.3580 C.3    17  DC17        0.1575
    326  O3'      -29.1690   41.1240    9.5510 O.3    17  DC17       -0.3138
    327  C2'      -27.8500   39.0970   10.0200 C.3    17  DC17        0.1033
    328  C1'      -26.6500   38.5000    9.2920 C.3    17  DC17        0.2379
    329  N1       -25.4660   38.7890   10.1170 N.ar   17  DC17       -0.2438
    330  C2       -25.0670   37.8890   11.1120 C.ar   17  DC17        0.3542
    331  O2       -25.7920   36.9110   11.3600 O.2    17  DC17       -0.2443
    332  N3       -23.9060   38.1100   11.7740 N.ar   17  DC17       -0.1739
    333  C4       -23.1590   39.1740   11.4750 C.ar   17  DC17        0.1759
    334  N4       -22.0230   39.3510   12.1540 N.pl3  17  DC17       -0.1070
    335  C5       -23.5460   40.0980   10.4700 C.ar   17  DC17        0.0566
    336  C6       -24.6930   39.8760    9.8190 C.ar   17  DC17        0.0864
    337  P        -29.2150   42.2270   10.6320 P.3    18  DT18        0.2141
    338  OP1      -30.0770   43.2090    9.9310 O.2    18  DT18       -0.5172
    339  OP2      -28.0040   42.6840   11.3460 O.3    18  DT18       -0.4373
    340  O5'      -30.1580   41.4470   11.6480 O.3    18  DT18       -0.3114
    341  C5'      -29.7250   41.1210   12.9790 C.3    18  DT18        0.1811
    342  C4'      -29.8250   39.6260   13.2220 C.3    18  DT18        0.1746
    343  O4'      -31.1510   39.1530   12.8340 O.3    18  DT18       -0.3327
    344  C3'      -28.8350   38.7340   12.4720 C.3    18  DT18        0.1558
    345  O3'      -28.5470   37.6130   13.3140 O.3    18  DT18       -0.3138
    346  C2'      -29.6540   38.2940   11.2630 C.3    18  DT18        0.0866
    347  C1'      -31.0230   38.1010   11.9040 C.3    18  DT18        0.2106
    348  N1       -32.0630   38.1160   11.0010 N.ar   18  DT18       -0.2559
    349  C2       -32.7090   36.9350   10.6860 C.ar   18  DT18        0.3545
    350  O2       -32.9180   36.0550   11.5020 O.2    18  DT18       -0.2443
    351  N3       -33.1030   36.8190    9.3750 N.ar   18  DT18       -0.1533
    352  C4       -32.9210   37.7450    8.3690 C.ar   18  DT18        0.2804
    353  O4       -33.3320   37.4990    7.2380 O.2    18  DT18       -0.2654
    354  C5       -32.2420   38.9440    8.7740 C.ar   18  DT18        0.0534
    355  C6       -31.8480   39.0830   10.0430 C.ar   18  DT18        0.0824
    356  C7       -31.9950   40.0130    7.7510 C.3    18  DT18        0.0377
    357  P        -26.9110   37.1570   13.5920 P.3    19  DA19        0.2141
    358  OP1      -26.5490   36.4220   14.8310 O.3    19  DA19       -0.4373
    359  OP2      -26.0090   38.2190   13.0680 O.2    19  DA19       -0.5172
    360  O5'      -27.2020   36.1010   12.4380 O.3    19  DA19       -0.3114
    361  C5'      -28.1340   35.0510   12.6440 C.3    19  DA19        0.1811
    362  C4'      -28.2440   34.1890   11.4120 C.3    19  DA19        0.1744
    363  O4'      -28.7210   34.9820   10.2980 O.3    19  DA19       -0.3349
    364  C3'      -26.9590   33.5680   10.9030 C.3    19  DA19        0.1555
    365  O3'      -26.6620   32.3910   11.6620 O.3    19  DA19       -0.3139
    366  C2'      -27.2980   33.2860    9.4320 C.3    19  DA19        0.0835
    367  C1'      -28.1860   34.4790    9.0860 C.3    19  DA19        0.1970
    368  N9       -27.5060   35.5330    8.4080 N.pl3  19  DA19       -0.2524
    369  C8       -26.6880   36.4860    8.9560 C.3    19  DA19        0.1946
    370  N7       -26.1560   37.2980    8.0730 N.pl3  19  DA19       -0.2495
    371  C5       -26.6590   36.8470    6.8630 C.ar   19  DA19        0.1193
    372  C6       -26.4760   37.2870    5.5400 C.ar   19  DA19        0.1875
    373  N6       -25.7030   38.3230    5.2050 N.pl3  19  DA19       -0.1057
    374  N1       -27.1220   36.6170    4.5620 N.ar   19  DA19       -0.2043
    375  C2       -27.8970   35.5790    4.8990 C.ar   19  DA19        0.2014
    376  N3       -28.1480   35.0730    6.1040 N.ar   19  DA19       -0.2075
    377  C4       -27.4910   35.7600    7.0530 C.ar   19  DA19        0.1527
    378  P        -25.1540   31.6330   11.4810 P.3    20  DT20        0.2141
    379  OP1      -24.9140   30.6920   12.5990 O.3    20  DT20       -0.4373
    380  OP2      -24.0300   32.3930   10.8930 O.2    20  DT20       -0.5172
    381  O5'      -25.7220   30.7850   10.2540 O.3    20  DT20       -0.3114
    382  C5'      -24.7900   30.1440    9.3960 C.3    20  DT20        0.1811
    383  C4'      -25.2460   30.2140    7.9620 C.3    20  DT20        0.1746
    384  O4'      -25.8010   31.5250    7.6800 O.3    20  DT20       -0.3327
    385  C3'      -24.1680   30.0190    6.9090 C.3    20  DT20        0.1558
    386  O3'      -23.9070   28.6470    6.6720 O.3    20  DT20       -0.3138
    387  C2'      -24.7340   30.7460    5.6940 C.3    20  DT20        0.0866
    388  C1'      -25.5950   31.8490    6.3210 C.3    20  DT20        0.2106
    389  N1       -25.0760   33.2180    6.2760 N.ar   20  DT20       -0.2559
    390  C2       -25.0770   33.8430    5.0430 C.ar   20  DT20        0.3545
    391  O2       -25.6520   33.3890    4.0700 O.2    20  DT20       -0.2443
    392  N3       -24.3770   35.0240    4.9900 N.ar   20  DT20       -0.1533
    393  C4       -23.6920   35.6300    6.0220 C.ar   20  DT20        0.2804
    394  O4       -23.1100   36.6930    5.8200 O.2    20  DT20       -0.2654
    395  C5       -23.7370   34.9200    7.2690 C.ar   20  DT20        0.0534
    396  C6       -24.4100   33.7690    7.3490 C.ar   20  DT20        0.0824
    397  C7       -23.0210   35.4980    8.4530 C.3    20  DT20        0.0377
    398  P        -22.7880   28.2200    5.7760 P.3    21  DT21        0.2141
    399  OP1      -22.5910   26.8310    6.2540 O.2    21  DT21       -0.5172
    400  OP2      -21.9730   29.3170    6.3640 O.3    21  DT21       -0.4373
    401  O5'      -22.5760   28.2260    4.1960 O.3    21  DT21       -0.3114
    402  C5'      -23.5600   28.7810    3.3220 C.3    21  DT21        0.1811
    403  C4'      -22.9460   29.8450    2.4420 C.3    21  DT21        0.1746
    404  O4'      -23.2790   31.1710    2.9460 O.3    21  DT21       -0.3327
    405  C3'      -21.4300   29.8600    2.3760 C.3    21  DT21        0.1558
    406  O3'      -20.9520   28.8540    1.4990 O.3    21  DT21       -0.3138
    407  C2'      -21.1620   31.2760    1.8880 C.3    21  DT21        0.0866
    408  C1'      -22.2040   32.0650    2.6860 C.3    21  DT21        0.2106
    409  N1       -21.7600   32.6790    3.8880 N.ar   21  DT21       -0.2559
    410  C2       -21.1230   33.8990    3.7620 C.ar   21  DT21        0.3545
    411  O2       -20.9930   34.4730    2.6950 O.2    21  DT21       -0.2443
    412  N3       -20.6390   34.4250    4.9350 N.ar   21  DT21       -0.1533
    413  C4       -20.7250   33.8670    6.1930 C.ar   21  DT21        0.2804
    414  O4       -20.2420   34.4620    7.1530 O.2    21  DT21       -0.2654
    415  C5       -21.4000   32.6010    6.2420 C.ar   21  DT21        0.0534
    416  C6       -21.8800   32.0650    5.1160 C.ar   21  DT21        0.0824
    417  C7       -21.5450   31.9130    7.5670 C.3    21  DT21        0.0377
    418  P        -19.5110   28.5700    1.6840 P.3    22  DC22        0.2141
    419  OP1      -19.2200   27.2180    1.1470 O.2    22  DC22       -0.5172
    420  OP2      -19.0470   28.9390    3.0380 O.3    22  DC22       -0.4373
    421  O5'      -18.8220   29.6060    0.6990 O.3    22  DC22       -0.3114
    422  C5'      -17.4190   29.7850    0.7490 C.3    22  DC22        0.1811
    423  C4'      -17.0530   31.2200    0.4750 C.3    22  DC22        0.1746
    424  O4'      -17.8140   32.1190    1.3160 O.3    22  DC22       -0.3327
    425  C3'      -15.6110   31.5110    0.8250 C.3    22  DC22        0.1558
    426  O3'      -14.7780   31.0800   -0.2300 O.3    22  DC22       -0.3138
    427  C2'      -15.6100   33.0120    1.0770 C.3    22  DC22        0.0866
    428  C1'      -16.9930   33.2100    1.7000 C.3    22  DC22        0.2106
    429  N1       -16.8140   33.2650    2.8890 N.ar   22  DC22       -0.2556
    430  C2       -16.1430   34.2640    3.6040 C.ar   22  DC22        0.3531
    431  O2       -15.6540   35.2200    2.9800 O.2    22  DC22       -0.2443
    432  N3       -16.0470   34.1580    4.9510 N.ar   22  DC22       -0.1739
    433  C4       -16.5870   33.1130    5.5790 C.ar   22  DC22        0.1759
    434  N4       -16.4660   33.0510    6.9070 N.pl3  22  DC22       -0.1070
    435  C5       -17.2710   32.0910    4.8720 C.ar   22  DC22        0.0566
    436  C6       -17.3640   32.1990    3.5420 C.ar   22  DC22        0.0849
    437  P        -14.1160   29.4730   -0.0580 P.3    23  DC23        0.2141
    438  OP1      -14.5740   28.7970   -1.2880 O.2    23  DC23       -0.5172
    439  OP2      -13.8550   28.6600    1.1550 O.3    23  DC23       -0.4373
    440  O5'      -12.7880   30.2610   -0.4300 O.3    23  DC23       -0.3114
    441  C5'      -12.8830   31.4330   -1.2440 C.3    23  DC23        0.1811
    442  C4'      -12.2190   32.6290   -0.5860 C.3    23  DC23        0.1746
    443  O4'      -13.0280   33.2290    0.4600 O.3    23  DC23       -0.3327
    444  C3'      -10.8960   32.4100    0.1120 C.3    23  DC23        0.1558
    445  O3'       -9.8560   32.2320   -0.8230 O.3    23  DC23       -0.3138
    446  C2'      -10.7390   33.7250    0.8620 C.3    23  DC23        0.0866
    447  C1'      -12.1740   33.9770    1.3200 C.3    23  DC23        0.2106
    448  N1       -12.4730   33.5820    2.6770 N.ar   23  DC23       -0.2556
    449  C2       -12.1760   34.4550    3.7300 C.ar   23  DC23        0.3531
    450  O2       -11.5900   35.5210    3.4750 O.2    23  DC23       -0.2443
    451  N3       -12.5330   34.1140    4.9910 N.ar   23  DC23       -0.1739
    452  C4       -13.1600   32.9590    5.2170 C.ar   23  DC23        0.1759
    453  N4       -13.4930   32.6650    6.4760 N.pl3  23  DC23       -0.1070
    454  C5       -13.4700   32.0600    4.1640 C.ar   23  DC23        0.0566
    455  C6       -13.1150   32.4010    2.9210 C.ar   23  DC23        0.0849
    456  P         -8.6240   31.4540   -0.3890 P.3    24  DT24        0.2141
    457  OP1       -7.8970   31.4540   -1.6910 O.2    24  DT24       -0.5172
    458  OP2       -8.7550   30.1790    0.3820 O.3    24  DT24       -0.4373
    459  O5'       -7.9390   32.5430    0.5680 O.3    24  DT24       -0.3114
    460  C5'       -6.6840   33.1320    0.2220 C.3    24  DT24        0.1811
    461  C4'       -6.2120   34.0930    1.2990 C.3    24  DT24        0.1746
    462  O4'       -7.3160   34.4860    2.1570 O.3    24  DT24       -0.3327
    463  C3'       -5.2040   33.5480    2.2910 C.3    24  DT24        0.1558
    464  O3'       -3.9050   33.4990    1.7930 O.3    24  DT24       -0.3138
    465  C2'       -5.3310   34.5000    3.4590 C.3    24  DT24        0.0866
    466  C1'       -6.8360   34.7230    3.4820 C.3    24  DT24        0.2106
    467  N1        -7.4070   33.6970    4.3780 N.ar   24  DT24       -0.2559
    468  C2        -7.2560   33.9360    5.7310 C.ar   24  DT24        0.3545
    469  O2        -6.5130   34.7930    6.1760 O.2    24  DT24       -0.2443
    470  N3        -8.0090   33.1300    6.5510 N.ar   24  DT24       -0.1533
    471  C4        -8.8770   32.1320    6.1620 C.ar   24  DT24        0.2804
    472  O4        -9.4850   31.4920    7.0160 O.2    24  DT24       -0.2654
    473  C5        -8.9780   31.9440    4.7420 C.ar   24  DT24        0.0534
    474  C6        -8.2580   32.7140    3.9220 C.ar   24  DT24        0.0824
    475  C7        -9.8970   30.8800    4.2190 C.3    24  DT24        0.0377
    476  P         -3.1310   32.0710    1.7870 P.3    25  DC25        0.2141
    477  OP1       -1.9460   31.6750    0.9820 O.2    25  DC25       -0.5172
    478  OP2       -4.2870   31.1400    1.8840 O.3    25  DC25       -0.4373
    479  O5'       -2.6510   32.4060    3.2760 O.3    25  DC25       -0.3114
    480  C5'       -1.5960   33.3410    3.5240 C.3    25  DC25        0.1811
    481  C4'       -1.3940   33.5480    5.0140 C.3    25  DC25        0.1746
    482  O4'       -2.6230   34.0500    5.6090 O.3    25  DC25       -0.3327
    483  C3'       -1.0580   32.3250    5.8570 C.3    25  DC25        0.1558
    484  O3'        0.3310   32.0200    5.8120 O.3    25  DC25       -0.3138
    485  C2'       -1.4810   32.7800    7.2500 C.3    25  DC25        0.0866
    486  C1'       -2.7540   33.5540    6.9340 C.3    25  DC25        0.2106
    487  N1        -3.9290   32.6510    7.0120 N.ar   25  DC25       -0.2556
    488  C2        -4.4580   32.3600    8.2750 C.ar   25  DC25        0.3531
    489  O2        -3.9050   32.8390    9.2790 O.2    25  DC25       -0.2443
    490  N3        -5.5520   31.5660    8.3640 N.ar   25  DC25       -0.1739
    491  C4        -6.1110   31.0740    7.2580 C.ar   25  DC25        0.1759
    492  N4        -7.1880   30.2970    7.3950 N.pl3  25  DC25       -0.1070
    493  C5        -5.5900   31.3570    5.9690 C.ar   25  DC25        0.0566
    494  C6        -4.5100   32.1410    5.8860 C.ar   25  DC25        0.0849
    495  P          0.8220   30.5640    6.1070 P.3    26  DT26        0.2141
    496  OP1        2.1890   30.6680    5.5240 O.3    26  DT26       -0.4373
    497  OP2       -0.1870   29.6440    5.5050 O.2    26  DT26       -0.5172
    498  O5'        0.9140   30.2690    7.6650 O.3    26  DT26       -0.3114
    499  C5'        1.3710   31.2750    8.5450 C.3    26  DT26        0.1811
    500  C4'        0.6240   31.2120    9.8490 C.3    26  DT26        0.1746
    501  O4'       -0.7750   31.5600    9.6800 O.3    26  DT26       -0.3327
    502  C3'        0.5430   29.8520   10.4920 C.3    26  DT26        0.1558
    503  O3'        1.7490   29.4970   11.1220 O.3    26  DT26       -0.3138
    504  C2'       -0.5890   30.0270   11.4860 C.3    26  DT26        0.0866
    505  C1'       -1.5290   30.9650   10.7300 C.3    26  DT26        0.2106
    506  N1        -2.6070   30.3330   10.1880 N.ar   26  DT26       -0.2559
    507  C2        -3.5460   29.8090   11.0560 C.ar   26  DT26        0.3545
    508  O2        -3.5280   30.0150   12.2570 O.2    26  DT26       -0.2443
    509  N3        -4.5130   29.0300   10.4670 N.ar   26  DT26       -0.1533
    510  C4        -4.6320   28.7290    9.1260 C.ar   26  DT26        0.2804
    511  O4        -5.5560   28.0150    8.7460 O.2    26  DT26       -0.2654
    512  C5        -3.6190   29.3090    8.2900 C.ar   26  DT26        0.0534
    513  C6        -2.6670   30.0700    8.8370 C.ar   26  DT26        0.0824
    514  C7        -3.6620   29.0390    6.8150 C.3    26  DT26        0.0377
    515  P          2.2650   28.0020   10.9580 P.3    27  DG27        0.2141
    516  OP1        3.6920   28.3560   11.1360 O.3    27  DG27       -0.4373
    517  OP2        1.8090   27.2840    9.7470 O.2    27  DG27       -0.5172
    518  O5'        1.7950   27.0730   12.1710 O.3    27  DG27       -0.3114
    519  C5'        1.9740   27.5780   13.4830 C.3    27  DG27        0.1811
    520  C4'        0.8580   27.1700   14.4120 C.3    27  DG27        0.1746
    521  O4'       -0.4320   27.5460   13.8620 O.3    27  DG27       -0.3327
    522  C3'        0.7150   25.6810   14.6730 C.3    27  DG27        0.1558
    523  O3'        1.6790   25.1930   15.5890 O.3    27  DG27       -0.3138
    524  C2'       -0.7210   25.5780   15.1720 C.3    27  DG27        0.0865
    525  C1'       -1.4190   26.6510   14.3340 C.3    27  DG27        0.2094
    526  N9        -2.1530   26.1710   13.1890 N.ar   27  DG27       -0.2713
    527  C8        -1.8150   26.3260   11.8660 C.ar   27  DG27        0.1816
    528  N7        -2.6730   25.7810   11.0480 N.ar   27  DG27       -0.2173
    529  C5        -3.6360   25.2330   11.8740 C.ar   27  DG27        0.1748
    530  C6        -4.8170   24.5100   11.5640 C.ar   27  DG27        0.3023
    531  O6        -5.2560   24.2030   10.4490 O.2    27  DG27       -0.2633
    532  N1        -5.5130   24.1340   12.7090 N.ar   27  DG27       -0.1709
    533  C2        -5.1200   24.4190   13.9950 C.ar   27  DG27        0.2606
    534  N2        -5.9240   23.9740   14.9710 N.pl3  27  DG27       -0.0859
    535  N3        -4.0260   25.0890   14.2990 N.ar   27  DG27       -0.1918
    536  C4        -3.3330   25.4640   13.2030 C.ar   27  DG27        0.1722
    537  P          1.9140   23.5520   15.7770 P.3    28  DT28        0.2141
    538  OP1        2.9840   23.3680   16.7870 O.3    28  DT28       -0.4373
    539  OP2        2.2360   23.4730   14.3320 O.2    28  DT28       -0.5172
    540  O5'        0.7720   22.4420   15.9450 O.3    28  DT28       -0.3114
    541  C5'       -0.1370   22.5060   17.0390 C.3    28  DT28        0.1811
    542  C4'       -1.1690   21.4020   17.0160 C.3    28  DT28        0.1746
    543  O4'       -2.3640   21.8980   16.3470 O.3    28  DT28       -0.3327
    544  C3'       -0.7700   20.1290   16.2680 C.3    28  DT28        0.1558
    545  O3'       -0.3670   19.0450   17.0960 O.3    28  DT28       -0.3138
    546  C2'       -2.0290   19.6950   15.5270 C.3    28  DT28        0.0866
    547  C1'       -2.9290   20.9160   15.4980 C.3    28  DT28        0.2106
    548  N1        -3.0000   21.4310   14.1390 N.ar   28  DT28       -0.2559
    549  C2        -4.0440   20.9380   13.3790 C.ar   28  DT28        0.3545
    550  O2        -4.9650   20.2970   13.8520 O.2    28  DT28       -0.2443
    551  N3        -3.9700   21.2230   12.0370 N.ar   28  DT28       -0.1533
    552  C4        -2.9790   21.9350   11.3930 C.ar   28  DT28        0.2804
    553  O4        -3.0510   22.1090   10.1790 O.2    28  DT28       -0.2654
    554  C5        -1.9310   22.4120   12.2500 C.ar   28  DT28        0.0534
    555  C6        -1.9780   22.1500   13.5590 C.ar   28  DT28        0.0824
    556  C7        -0.8060   23.1970   11.6430 C.3    28  DT28        0.0377
    557  P          0.6470   18.1610   16.3110 P.3    29  DT29        0.2141
    558  OP1        1.1390   17.2650   17.3760 O.3    29  DT29       -0.4373
    559  OP2        1.3890   18.2530   15.0320 O.2    29  DT29       -0.5172
    560  O5'       -0.8710   17.7780   16.0030 O.3    29  DT29       -0.3114
    561  C5'       -1.4040   16.6320   16.6350 C.3    29  DT29        0.1811
    562  C4'       -2.9120   16.6640   16.5810 C.3    29  DT29        0.1746
    563  O4'       -3.3640   17.9470   16.0920 O.3    29  DT29       -0.3327
    564  C3'       -3.5380   15.7060   15.5880 C.3    29  DT29        0.1558
    565  O3'       -3.4990   14.3800   16.0750 O.3    29  DT29       -0.3138
    566  C2'       -4.9520   16.2630   15.5760 C.3    29  DT29        0.0866
    567  C1'       -4.6460   17.7560   15.5180 C.3    29  DT29        0.2106
    568  N1        -4.7190   18.0320   14.0460 N.ar   29  DT29       -0.2559
    569  C2        -5.8910   18.2350   13.3430 C.ar   29  DT29        0.3545
    570  O2        -6.9900   17.9520   13.7870 O.2    29  DT29       -0.2443
    571  N3        -5.7310   18.7840   12.0930 N.ar   29  DT29       -0.1533
    572  C4        -4.5440   19.1420   11.4900 C.ar   29  DT29        0.2804
    573  O4        -4.5600   19.6260   10.3610 O.2    29  DT29       -0.2654
    574  C5        -3.3720   18.8990   12.2830 C.ar   29  DT29        0.0534
    575  C6        -3.4980   18.3660   13.5010 C.ar   29  DT29        0.0824
    576  C7        -2.0310   19.2540   11.7140 C.3    29  DT29        0.0377
    577  P         -3.7380   13.2210   15.0380 P.3    30  DG30        0.2141
    578  OP1       -3.5770   12.1260   16.0310 O.3    30  DG30       -0.4373
    579  OP2       -2.7550   13.3520   13.9280 O.2    30  DG30       -0.5172
    580  O5'       -5.1970   13.1230   14.4000 O.3    30  DG30       -0.3114
    581  C5'       -6.3160   12.6460   15.1800 C.3    30  DG30        0.1811
    582  C4'       -7.5960   12.7250   14.3770 C.3    30  DG30        0.1746
    583  O4'       -7.8500   14.1130   14.0300 O.3    30  DG30       -0.3327
    584  C3'       -7.6070   11.9840   13.0470 C.3    30  DG30        0.1558
    585  O3'       -7.9280   10.6010   13.1980 O.3    30  DG30       -0.3138
    586  C2'       -8.6560   12.7510   12.2450 C.3    30  DG30        0.0865
    587  C1'       -8.4490   14.1830   12.7450 C.3    30  DG30        0.2094
    588  N9        -7.5090   14.9390   11.8660 N.ar   30  DG30       -0.2713
    589  C8        -6.1850   15.2440   12.0690 C.ar   30  DG30        0.1816
    590  N7        -5.6600   15.9340   11.0930 N.ar   30  DG30       -0.2173
    591  C5        -6.6960   16.0970   10.1930 C.ar   30  DG30        0.1748
    592  C6        -6.7330   16.7590    8.9390 C.ar   30  DG30        0.3023
    593  O6        -5.8160   17.3560    8.3600 O.2    30  DG30       -0.2633
    594  N1        -7.9910   16.6850    8.3480 N.ar   30  DG30       -0.1709
    595  C2        -9.0800   16.0510    8.8970 C.ar   30  DG30        0.2606
    596  N2       -10.2100   16.0870    8.1780 N.pl3  30  DG30       -0.0859
    597  N3        -9.0600   15.4310   10.0610 N.ar   30  DG30       -0.1918
    598  C4        -7.8480   15.4890   10.6520 C.ar   30  DG30        0.1722
    599  P         -7.5570    9.5530   12.0420 P.3    31  DA31        0.2141
    600  OP1       -8.0160    8.7550   13.2010 O.3    31  DA31       -0.4373
    601  OP2       -6.1310    9.5220   11.6560 O.2    31  DA31       -0.5172
    602  O5'       -8.4240    9.1470   10.7570 O.3    31  DA31       -0.3114
    603  C5'       -9.8510    9.1400   10.8220 C.3    31  DA31        0.1811
    604  C4'      -10.4900   10.0920    9.8210 C.3    31  DA31        0.1746
    605  O4'       -9.8900   11.4160    9.8670 O.3    31  DA31       -0.3327
    606  C3'      -10.3490    9.7050    8.3570 C.3    31  DA31        0.1558
    607  O3'      -11.2000    8.6140    8.0280 O.3    31  DA31       -0.3138
    608  C2'      -10.7440   11.0240    7.6960 C.3    31  DA31        0.0865
    609  C1'       -9.9970   12.0190    8.5850 C.3    31  DA31        0.2094
    610  N9        -8.8250   12.5060    8.0510 N.ar   31  DA31       -0.2714
    611  C8        -7.5910   12.2400    8.5850 C.ar   31  DA31        0.1815
    612  N7        -6.6150   12.9120    8.0220 N.ar   31  DA31       -0.2193
    613  C5        -7.2510   13.6700    7.0510 C.ar   31  DA31        0.1518
    614  C6        -6.7700   14.5960    6.1080 C.ar   31  DA31        0.1919
    615  N6        -5.4830   14.9280    5.9880 N.pl3  31  DA31       -0.1054
    616  N1        -7.6690   15.1750    5.2850 N.ar   31  DA31       -0.2040
    617  C2        -8.9590   14.8430    5.4070 C.ar   31  DA31        0.2016
    618  N3        -9.5310   13.9890    6.2520 N.ar   31  DA31       -0.2048
    619  C4        -8.6120   13.4300    7.0560 C.ar   31  DA31        0.1691
    620  P        -10.8150    7.6190    6.8800 P.3    32  DA32        0.2141
    621  OP1      -11.4470    6.2890    6.8060 O.2    32  DA32       -0.5172
    622  OP2       -9.3360    7.7520    6.9530 O.3    32  DA32       -0.4373
    623  O5'      -11.2850    8.4850    5.6280 O.3    32  DA32       -0.3114
    624  C5'      -12.6750    8.6800    5.2820 C.3    32  DA32        0.1811
    625  C4'      -12.7400    9.3960    3.9420 C.3    32  DA32        0.1746
    626  O4'      -12.3540   10.7960    4.1240 O.3    32  DA32       -0.3327
    627  C3'      -11.7240    8.9040    2.9150 C.3    32  DA32        0.1558
    628  O3'      -12.1040    7.7070    2.2560 O.3    32  DA32       -0.3138
    629  C2'      -11.6830   10.0980    1.9760 C.3    32  DA32        0.0865
    630  C1'      -11.7190   11.2700    2.9490 C.3    32  DA32        0.2094
    631  N9       -10.4120   11.7050    3.2900 N.ar   32  DA32       -0.2715
    632  C8        -9.7030   11.2640    4.3760 C.ar   32  DA32        0.1817
    633  N7        -8.5310   11.8390    4.5110 N.ar   32  DA32       -0.2148
    634  C5        -8.4660   12.7160    3.4400 C.ar   32  DA32        0.2032
    635  C6        -7.4780   13.6220    3.0170 C.2    32  DA32        0.4086
    636  N6        -6.3170   13.7990    3.6530 N.pl3  32  DA32        0.2137
    637  N1        -7.7260   14.3480    1.9060 N.pl3  32  DA32       -0.0543
    638  C2        -8.8900   14.1700    1.2700 C.3    32  DA32        0.4138
    639  N3        -9.8960   13.3510    1.5700 N.2    32  DA32       -0.1875
    640  C4        -9.6170   12.6440    2.6780 C.ar   32  DA32        0.1729
    641  P        -10.8930    6.7970    1.4790 P.3    33  DG33        0.2141
    642  OP1      -11.5730    5.6810    0.7870 O.2    33  DG33       -0.5172
    643  OP2       -9.7530    6.5260    2.3860 O.3    33  DG33       -0.4373
    644  O5'      -10.3200    7.8580    0.4160 O.3    33  DG33       -0.3114
    645  C5'      -10.8620    7.9390   -0.8990 C.3    33  DG33        0.1811
    646  C4'      -10.0730    8.8440   -1.8220 C.3    33  DG33        0.1746
    647  O4'       -9.8550   10.1350   -1.1880 O.3    33  DG33       -0.3327
    648  C3'       -8.6680    8.3990   -2.2140 C.3    33  DG33        0.1558
    649  O3'       -8.6110    7.3860   -3.2070 O.3    33  DG33       -0.3138
    650  C2'       -8.0400    9.7190   -2.6420 C.3    33  DG33        0.0865
    651  C1'       -8.5920   10.6430   -1.5600 C.3    33  DG33        0.2094
    652  N9        -7.5410   10.4070   -0.3880 N.ar   33  DG33       -0.2713
    653  C8        -7.8850    9.9270    0.8530 C.ar   33  DG33        0.1816
    654  N7        -6.9320   10.0510    1.7350 N.ar   33  DG33       -0.2173
    655  C5        -5.8970   10.6490    1.0410 C.ar   33  DG33        0.1748
    656  C6        -4.5990   11.0320    1.4670 C.ar   33  DG33        0.3023
    657  O6        -4.0950   10.9120    2.5910 O.2    33  DG33       -0.2633
    658  N1        -3.8610   11.6070    0.4360 N.ar   33  DG33       -0.1709
    659  C2        -4.3170   11.7900   -0.8470 C.ar   33  DG33        0.2606
    660  N2        -3.4600   12.3640   -1.7030 N.pl3  33  DG33       -0.0859
    661  N3        -5.5190   11.4390   -1.2580 N.ar   33  DG33       -0.1918
    662  C4        -6.2530   10.8770   -0.2740 C.ar   33  DG33        0.1722
    663  P         -8.5430    5.8400   -2.6360 P.3    34  DA34        0.2141
    664  OP1       -9.2450    4.8300   -3.4600 O.2    34  DA34       -0.5172
    665  OP2       -8.4400    5.6510   -1.1620 O.3    34  DA34       -0.4373
    666  O5'       -7.0850    6.0960   -3.2260 O.3    34  DA34       -0.3114
    667  C5'       -6.9490    6.5870   -4.5500 C.3    34  DA34        0.1811
    668  C4'       -5.5660    7.1420   -4.7820 C.3    34  DA34        0.1746
    669  O4'       -5.3040    8.2070   -3.8390 O.3    34  DA34       -0.3327
    670  C3'       -4.3710    6.2090   -4.6270 C.3    34  DA34        0.1558
    671  O3'       -4.1440    5.4090   -5.7820 O.3    34  DA34       -0.3138
    672  C2'       -3.2270    7.1990   -4.4320 C.3    34  DA34        0.0865
    673  C1'       -3.9070    8.3060   -3.6260 C.3    34  DA34        0.2094
    674  N9        -3.4930    8.1470   -2.2930 N.ar   34  DA34       -0.2714
    675  C8        -4.3890    7.9020   -1.2850 C.ar   34  DA34        0.1815
    676  N7        -3.8730    7.9990   -0.0830 N.ar   34  DA34       -0.2193
    677  C5        -2.5470    8.3280   -0.3170 C.ar   34  DA34        0.1518
    678  C6        -1.4660    8.5710    0.5480 C.ar   34  DA34        0.1919
    679  N6        -1.5570    8.5180    1.8790 N.pl3  34  DA34       -0.1054
    680  N1        -0.2740    8.8750   -0.0090 N.ar   34  DA34       -0.2040
    681  C2        -0.1840    8.9290   -1.3430 C.ar   34  DA34        0.2016
    682  N3        -1.1270    8.7220   -2.2590 N.ar   34  DA34       -0.2048
    683  C4        -2.2980    8.4220   -1.6730 C.ar   34  DA34        0.1691
    684  P         -4.1450    3.7060   -5.5590 P.3    35  DA35        0.2141
    685  OP1       -4.6390    2.9270   -6.7170 O.2    35  DA35       -0.5172
    686  OP2       -4.6700    3.4030   -4.2090 O.3    35  DA35       -0.4373
    687  O5'       -2.5500    3.5890   -5.5260 O.3    35  DA35       -0.3114
    688  C5'       -1.7880    3.9740   -6.6670 C.3    35  DA35        0.1811
    689  C4'       -0.6080    4.8450   -6.2770 C.3    35  DA35        0.1746
    690  O4'       -1.0130    5.9130   -5.3780 O.3    35  DA35       -0.3327
    691  C3'        0.4720    4.1460   -5.4670 C.3    35  DA35        0.1558
    692  O3'        1.2310    3.2300   -6.2440 O.3    35  DA35       -0.3138
    693  C2'        1.2390    5.3550   -4.9330 C.3    35  DA35        0.0865
    694  C1'        0.0490    6.1980   -4.4750 C.3    35  DA35        0.2094
    695  N9        -0.2010    5.7430   -3.0690 N.ar   35  DA35       -0.2714
    696  C8        -1.3350    5.0440   -2.7470 C.ar   35  DA35        0.1815
    697  N7        -1.5880    5.0100   -1.4600 N.ar   35  DA35       -0.2193
    698  C5        -0.5480    5.7350   -0.8980 C.ar   35  DA35        0.1518
    699  C6        -0.2380    6.0680    0.4320 C.ar   35  DA35        0.1919
    700  N6        -0.9790    5.6980    1.4790 N.pl3  35  DA35       -0.1054
    701  N1         0.8730    6.8040    0.6500 N.ar   35  DA35       -0.2040
    702  C2         1.6140    7.1750   -0.4000 C.ar   35  DA35        0.2016
    703  N3         1.4250    6.9240   -1.6930 N.ar   35  DA35       -0.2048
    704  C4         0.3140    6.1910   -1.8770 C.ar   35  DA35        0.1691
    705  P          1.2640    1.5970   -5.7830 P.3    36  DC36        0.2141
    706  OP1        0.7520    1.0280   -7.0510 O.2    36  DC36       -0.5172
    707  OP2        0.7850    1.0640   -4.4870 O.3    36  DC36       -0.4373
    708  O5'        2.8510    1.5430   -5.8180 O.3    36  DC36       -0.3114
    709  C5'        3.5550    2.4620   -6.6710 C.3    36  DC36        0.1811
    710  C4'        4.3600    3.4610   -5.8640 C.3    36  DC36        0.1746
    711  O4'        3.5560    4.1350   -4.8570 O.3    36  DC36       -0.3327
    712  C3'        5.4930    2.8940   -5.0430 C.3    36  DC36        0.1558
    713  O3'        6.5720    2.5330   -5.8800 O.3    36  DC36       -0.3138
    714  C2'        5.8170    4.0660   -4.1220 C.3    36  DC36        0.0866
    715  C1'        4.4100    4.5780   -3.8030 C.3    36  DC36        0.2106
    716  N1         3.8990    4.3920   -2.6630 N.ar   36  DC36       -0.2556
    717  C2         4.3570    4.9740   -1.4750 C.ar   36  DC36        0.3531
    718  O2         5.2810    5.8030   -1.5340 O.2    36  DC36       -0.2443
    719  N3         3.7840    4.6170   -0.3020 N.ar   36  DC36       -0.1739
    720  C4         2.7950    3.7220   -0.2870 C.ar   36  DC36        0.1759
    721  N4         2.2600    3.4010    0.8930 N.pl3  36  DC36       -0.1070
    722  C5         2.3160    3.1210   -1.4790 C.ar   36  DC36        0.0566
    723  C6         2.8850    3.4760   -2.6360 C.ar   36  DC36        0.0849
    724  P          7.7020    1.3030   -5.3980 P.3    37  DC37        0.2141
    725  OP1        9.0370    1.0120   -5.9610 O.2    37  DC37       -0.5172
    726  OP2        6.6980    0.2200   -5.2760 O.3    37  DC37       -0.4373
    727  O5'        7.8670    2.0110   -3.9730 O.3    37  DC37       -0.3114
    728  C5'        8.7570    3.1060   -3.8190 C.3    37  DC37        0.1811
    729  C4'        8.8240    3.4910   -2.3580 C.3    37  DC37        0.1746
    730  O4'        7.5480    4.0410   -1.9530 O.3    37  DC37       -0.3327
    731  C3'        9.0050    2.3040   -1.4230 C.3    37  DC37        0.1558
    732  O3'       10.3700    1.8960   -1.2880 O.3    37  DC37       -0.3138
    733  C2'        8.4210    2.8340   -0.1200 C.3    37  DC37        0.0866
    734  C1'        7.2100    3.5810   -0.6560 C.3    37  DC37        0.2106
    735  N1         6.0020    2.7250   -0.7090 N.ar   37  DC37       -0.2556
    736  C2         5.2090    2.6530    0.4420 C.ar   37  DC37        0.3531
    737  O2         5.4990    3.3710    1.4140 O.2    37  DC37       -0.2443
    738  N3         4.1540    1.8040    0.4640 N.ar   37  DC37       -0.1739
    739  C4         3.8810    1.0510   -0.6020 C.ar   37  DC37        0.1759
    740  N4         2.8310    0.2290   -0.5340 N.pl3  37  DC37       -0.1070
    741  C5         4.6720    1.1090   -1.7780 C.ar   37  DC37        0.0566
    742  C6         5.7130    1.9490   -1.7960 C.ar   37  DC37        0.0849
    743  P         10.7330    0.2170   -0.9630 P.3    38  DA38        0.2141
    744  OP1       12.1730   -0.1130   -1.1340 O.3    38  DA38       -0.4373
    745  OP2        9.7920   -0.0140   -2.0840 O.2    38  DA38       -0.5172
    746  O5'       10.1440   -0.5610    0.3000 O.3    38  DA38       -0.3114
    747  C5'       10.6740   -0.3380    1.6150 C.3    38  DA38        0.1811
    748  C4'        9.7330   -0.8810    2.6700 C.3    38  DA38        0.1746
    749  O4'        8.4200   -0.2870    2.5040 O.3    38  DA38       -0.3327
    750  C3'        9.4440   -2.3750    2.6720 C.3    38  DA38        0.1558
    751  O3'       10.5020   -3.0900    3.3090 O.3    38  DA38       -0.3138
    752  C2'        8.1670   -2.4310    3.4990 C.3    38  DA38        0.0865
    753  C1'        7.4410   -1.1660    3.0350 C.3    38  DA38        0.2094
    754  N9         6.4400   -1.4200    2.0370 N.ar   38  DA38       -0.2714
    755  C8         6.6160   -1.2290    0.6920 C.ar   38  DA38        0.1815
    756  N7         5.5650   -1.5400   -0.0290 N.ar   38  DA38       -0.2193
    757  C5         4.6350   -1.9670    0.9070 C.ar   38  DA38        0.1518
    758  C6         3.3140   -2.4330    0.7840 C.ar   38  DA38        0.1919
    759  N6         2.6780   -2.5500   -0.3840 N.pl3  38  DA38       -0.1054
    760  N1         2.6640   -2.7780    1.9150 N.ar   38  DA38       -0.2040
    761  C2         3.3030   -2.6590    3.0850 C.ar   38  DA38        0.2016
    762  N3         4.5410   -2.2330    3.3280 N.ar   38  DA38       -0.2048
    763  C4         5.1600   -1.8990    2.1830 C.ar   38  DA38        0.1691
    764  P         10.6330   -4.7460    3.1510 P.3    39  DC39        0.2141
    765  OP1       11.9270   -5.1180    3.7860 O.3    39  DC39       -0.4373
    766  OP2       10.2650   -5.3410    1.8350 O.2    39  DC39       -0.5172
    767  O5'        9.4340   -5.0340    4.1590 O.3    39  DC39       -0.3114
    768  C5'        9.4630   -4.4960    5.4670 C.3    39  DC39        0.1811
    769  C4'        8.2750   -4.9810    6.2380 C.3    39  DC39        0.1746
    770  O4'        7.1030   -4.2270    5.8390 O.3    39  DC39       -0.3327
    771  C3'        7.9060   -6.4390    6.0110 C.3    39  DC39        0.1558
    772  O3'        8.6540   -7.3540    6.8190 O.3    39  DC39       -0.3138
    773  C2'        6.4290   -6.4510    6.3720 C.3    39  DC39        0.0866
    774  C1'        5.9690   -5.0790    5.8550 C.3    39  DC39        0.2106
    775  N1         5.4510   -5.1930    4.4520 N.ar   39  DC39       -0.2556
    776  C2         4.1330   -5.6330    4.2810 C.ar   39  DC39        0.3531
    777  O2         3.4400   -5.8510    5.2890 O.2    39  DC39       -0.2443
    778  N3         3.6550   -5.8090    3.0260 N.ar   39  DC39       -0.1739
    779  C4         4.4360   -5.5640    1.9740 C.ar   39  DC39        0.1759
    780  N4         3.9210   -5.7510    0.7560 N.pl3  39  DC39       -0.1070
    781  C5         5.7740   -5.1170    2.1260 C.ar   39  DC39        0.0566
    782  C6         6.2420   -4.9450    3.3670 C.ar   39  DC39        0.0849
    783  P          8.9000   -8.8790    6.3310 P.3    40  DT40        0.2141
    784  OP1        9.9100   -9.7120    7.0190 O.3    40  DT40       -0.4373
    785  OP2        8.9260   -8.7300    4.8590 O.2    40  DT40       -0.5172
    786  O5'        7.4390   -9.4600    6.6280 O.3    40  DT40       -0.3114
    787  C5'        7.0390   -9.7660    7.9550 C.3    40  DT40        0.1811
    788  C4'        5.5520   -9.9970    8.0270 C.3    40  DT40        0.1746
    789  O4'        4.8720   -8.8910    7.3770 O.3    40  DT40       -0.3327
    790  C3'        5.0300  -11.2320    7.3040 C.3    40  DT40        0.1558
    791  O3'        5.1580  -12.4220    8.0680 O.3    40  DT40       -0.3138
    792  C2'        3.5850  -10.8490    7.0080 C.3    40  DT40        0.0866
    793  C1'        3.7020   -9.3500    6.7310 C.3    40  DT40        0.2106
    794  N1         3.7260   -8.9590    5.3250 N.ar   40  DT40       -0.2559
    795  C2         2.5490   -8.9400    4.6000 C.ar   40  DT40        0.3545
    796  O2         1.4600   -9.1620    5.0980 O.2    40  DT40       -0.2443
    797  N3         2.6930   -8.6500    3.2650 N.ar   40  DT40       -0.1533
    798  C4         3.8700   -8.3830    2.5960 C.ar   40  DT40        0.2804
    799  O4         3.8400   -8.1380    1.3930 O.2    40  DT40       -0.2654
    800  C5         5.0480   -8.4230    3.4170 C.ar   40  DT40        0.0534
    801  C6         4.9360   -8.7020    4.7180 C.ar   40  DT40        0.0824
    802  C7         6.3780   -8.1470    2.7820 C.3    40  DT40        0.0377
    803  P          5.0230  -13.9480    7.3490 P.3    41  DT41        0.2141
    804  OP1        5.4730  -14.9160    8.3810 O.3    41  DT41       -0.4373
    805  OP2        5.4980  -14.1000    5.9420 O.2    41  DT41       -0.5172
    806  O5'        3.4320  -14.0220    7.3000 O.3    41  DT41       -0.3114
    807  C5'        2.8120  -15.1010    6.6200 C.3    41  DT41        0.1811
    808  C4'        1.3230  -14.8900    6.4730 C.3    41  DT41        0.1746
    809  O4'        1.0380  -13.5280    6.0470 O.3    41  DT41       -0.3327
    810  C3'        0.7510  -15.7800    5.3810 C.3    41  DT41        0.1558
    811  O3'        0.4780  -17.1160    5.8310 O.3    41  DT41       -0.3138
    812  C2'       -0.4410  -14.9660    4.8880 C.3    41  DT41        0.0866
    813  C1'        0.1060  -13.5330    4.9770 C.3    41  DT41        0.2106
    814  N1         0.8530  -12.9370    3.8220 N.ar   41  DT41       -0.2559
    815  C2         0.1040  -12.7790    2.6710 C.ar   41  DT41        0.3545
    816  O2        -1.0800  -13.0600    2.6060 O.2    41  DT41       -0.2443
    817  N3         0.7940  -12.2790    1.5930 N.ar   41  DT41       -0.1533
    818  C4         2.1270  -11.9290    1.5510 C.ar   41  DT41        0.2804
    819  O4         2.6050  -11.4920    0.5070 O.2    41  DT41       -0.2654
    820  C5         2.8370  -12.1230    2.7840 C.ar   41  DT41        0.0534
    821  C6         2.1910  -12.6070    3.8480 C.ar   41  DT41        0.0824
    822  C7         4.2940  -11.7720    2.8390 C.3    41  DT41        0.0377
    823  P          1.3710  -18.7280    5.0760 P.3    42  DC42        0.2141
    824  OP1        1.3160  -19.9270    5.9560 O.3    42  DC42       -0.4373
    825  OP2        2.6840  -18.1860    4.6480 O.2    42  DC42       -0.5172
    826  O5'        0.5040  -19.0450    3.7830 O.3    42  DC42       -0.3114
    827  C5'       -0.7910  -19.6080    3.9090 C.3    42  DC42        0.1811
    828  C4'       -1.5050  -19.5700    2.5860 C.3    42  DC42        0.1746
    829  O4'       -1.6090  -18.1880    2.1310 O.3    42  DC42       -0.3327
    830  C3'       -0.8370  -20.3280    1.4400 C.3    42  DC42        0.1558
    831  O3'       -1.8930  -20.7810    0.6050 O.3    42  DC42       -0.3138
    832  C2'       -0.0690  -19.2110    0.7400 C.3    42  DC42        0.0866
    833  C1'       -1.1110  -18.1010    0.8170 C.3    42  DC42        0.2106
    834  N1        -0.7300  -16.7900    0.7060 N.ar   42  DC42       -0.2556
    835  C2        -0.8840  -16.0760   -0.4880 C.ar   42  DC42        0.3531
    836  O2        -1.9080  -16.2600   -1.1670 O.2    42  DC42       -0.2443
    837  N3         0.0850  -15.2090   -0.8680 N.ar   42  DC42       -0.1739
    838  C4         1.1690  -15.0440   -0.1080 C.ar   42  DC42        0.1759
    839  N4         2.0970  -14.1790   -0.5230 N.pl3  42  DC42       -0.1070
    840  C5         1.3430  -15.7580    1.1050 C.ar   42  DC42        0.0566
    841  C6         0.3840  -16.6130    1.4770 C.ar   42  DC42        0.0849
    842  P         -1.8280  -22.1220   -0.4750 P.3    43  DC43        0.2141
    843  OP1       -2.4330  -23.4640   -0.4670 O.2    43  DC43       -0.5172
    844  OP2       -0.3570  -21.9900   -0.3160 O.3    43  DC43       -0.4373
    845  O5'       -2.2280  -21.3760   -1.8220 O.3    43  DC43       -0.3114
    846  C5'       -3.5850  -21.2860   -2.2390 C.3    43  DC43        0.1811
    847  C4'       -3.6630  -20.6710   -3.6170 C.3    43  DC43        0.1746
    848  O4'       -3.3350  -19.2590   -3.5480 O.3    43  DC43       -0.3327
    849  C3'       -2.6530  -21.2270   -4.6050 C.3    43  DC43        0.1558
    850  O3'       -3.0750  -22.4560   -5.1660 O.3    43  DC43       -0.3138
    851  C2'       -2.5190  -20.1010   -5.6190 C.3    43  DC43        0.0866
    852  C1'       -2.5950  -18.8790   -4.7070 C.3    43  DC43        0.2106
    853  N1        -1.2460  -18.5070   -4.2840 N.ar   43  DC43       -0.2556
    854  C2        -0.4460  -17.7530   -5.1500 C.ar   43  DC43        0.3531
    855  O2        -0.9160  -17.4030   -6.2460 O.2    43  DC43       -0.2443
    856  N3         0.8140  -17.4290   -4.7700 N.ar   43  DC43       -0.1739
    857  C4         1.2760  -17.8270   -3.5840 C.ar   43  DC43        0.1759
    858  N4         2.5230  -17.4850   -3.2530 N.pl3  43  DC43       -0.1070
    859  C5         0.4810  -18.5920   -2.6920 C.ar   43  DC43        0.0566
    860  C6        -0.7620  -18.9090   -3.0710 C.ar   43  DC43        0.0849
    861  P         -1.8500  -23.7270   -5.6340 P.3    44  DG44        0.2141
    862  OP1       -2.6360  -24.8480   -6.2230 O.2    44  DG44       -0.5172
    863  OP2       -0.5950  -24.0240   -4.8770 O.3    44  DG44       -0.4373
    864  O5'       -1.4890  -22.6960   -6.8070 O.3    44  DG44       -0.3114
    865  C5'       -1.6900  -23.0490   -8.1770 C.3    44  DG44        0.1811
    866  C4'       -1.2310  -21.9390   -9.1050 C.3    44  DG44        0.1746
    867  O4'       -1.1220  -20.6820   -8.3870 O.3    44  DG44       -0.3327
    868  C3'        0.1520  -22.0930   -9.7060 C.3    44  DG44        0.1558
    869  O3'        0.1950  -22.9810  -10.7790 O.3    44  DG44       -0.3138
    870  C2'        0.5000  -20.6820  -10.1200 C.3    44  DG44        0.0865
    871  C1'       -0.0730  -19.8930   -8.9520 C.3    44  DG44        0.2094
    872  N9         1.1760  -19.8310   -8.0290 N.ar   44  DG44       -0.2713
    873  C8         1.2530  -20.4190   -6.7900 C.ar   44  DG44        0.1816
    874  N7         2.2520  -19.9820   -6.0730 N.ar   44  DG44       -0.2173
    875  C5         2.8730  -19.0490   -6.8830 C.ar   44  DG44        0.1748
    876  C6         4.0170  -18.2420   -6.6520 C.ar   44  DG44        0.3023
    877  O6         4.7300  -18.1950   -5.6420 O.2    44  DG44       -0.2633
    878  N1         4.3090  -17.4300   -7.7440 N.ar   44  DG44       -0.1709
    879  C2         3.5890  -17.3990   -8.9140 C.ar   44  DG44        0.2606
    880  N2         4.0240  -16.5490   -9.8540 N.pl3  44  DG44       -0.0859
    881  N3         2.5250  -18.1430   -9.1430 N.ar   44  DG44       -0.1918
    882  C4         2.2230  -18.9410   -8.0970 C.ar   44  DG44        0.1722
    883  P          0.9140  -24.1350  -10.5010 P.3    45  DG45        0.2141
    884  OP1       -0.2010  -24.9480  -11.0520 O.2    45  DG45       -0.5172
    885  OP2        1.8330  -24.7260   -9.4860 O.3    45  DG45       -0.4373
    886  O5'        1.7580  -23.6110  -11.7410 O.3    45  DG45       -0.3114
    887  C5'        1.3690  -22.4360  -12.4340 C.3    45  DG45        0.1811
    888  C4'        2.5120  -21.4560  -12.4420 C.3    45  DG45        0.1746
    889  O4'        2.7890  -20.9700  -11.1010 O.3    45  DG45       -0.3327
    890  C3'        3.8720  -22.0330  -12.7830 C.3    45  DG45        0.1558
    891  O3'        4.0120  -22.4440  -14.1330 O.3    45  DG45       -0.3138
    892  C2'        4.8010  -20.8980  -12.3580 C.3    45  DG45        0.0865
    893  C1'        4.0820  -20.3780  -11.1080 C.3    45  DG45        0.2094
    894  N9         4.7010  -20.5160  -10.0510 N.ar   45  DG45       -0.2713
    895  C8         4.3080  -21.4700   -9.1430 C.ar   45  DG45        0.1816
    896  N7         5.1360  -21.6020   -8.1430 N.ar   45  DG45       -0.2173
    897  C5         6.1350  -20.6810   -8.4010 C.ar   45  DG45        0.1748
    898  C6         7.3090  -20.3640   -7.6700 C.ar   45  DG45        0.3023
    899  O6         7.7070  -20.8580   -6.6080 O.2    45  DG45       -0.2633
    900  N1         8.0530  -19.3640   -8.2900 N.ar   45  DG45       -0.1709
    901  C2         7.7090  -18.7460   -9.4680 C.ar   45  DG45        0.2606
    902  N2         8.5530  -17.8030   -9.9090 N.pl3  45  DG45       -0.0859
    903  N3         6.6220  -19.0300  -10.1580 N.ar   45  DG45       -0.1918
    904  C4         5.8840  -19.9990   -9.5760 C.ar   45  DG45        0.1722
    905  P          4.8490  -23.3100  -14.2320 P.3    46  DA46        0.2141
    906  OP1        4.6220  -23.6380  -15.6640 O.2    46  DA46       -0.5172
    907  OP2        5.2890  -24.3780  -13.3080 O.3    46  DA46       -0.4373
    908  O5'        5.9080  -22.1180  -14.1300 O.3    46  DA46       -0.3114
    909  C5'        6.1570  -21.2510  -15.2400 C.3    46  DA46        0.1811
    910  C4'        7.6070  -20.8250  -15.2510 C.3    46  DA46        0.1746
    911  O4'        7.8570  -19.9850  -14.0880 O.3    46  DA46       -0.3327
    912  C3'        8.6040  -21.9650  -15.0950 C.3    46  DA46        0.1558
    913  O3'        8.9070  -22.6840  -16.2820 O.3    46  DA46       -0.3138
    914  C2'        9.8120  -21.2820  -14.4730 C.3    46  DA46        0.0865
    915  C1'        9.1370  -20.2750  -13.5460 C.3    46  DA46        0.2094
    916  N9         8.7220  -20.8960  -12.1050 N.ar   46  DA46       -0.2714
    917  C8         7.7060  -21.7290  -11.7170 C.ar   46  DA46        0.1815
    918  N7         7.8390  -22.1940  -10.4970 N.ar   46  DA46       -0.2193
    919  C5         9.0240  -21.6280  -10.0540 C.ar   46  DA46        0.1518
    920  C6         9.7220  -21.7250   -8.8380 C.ar   46  DA46        0.1919
    921  N6         9.3050  -22.4580   -7.8030 N.pl3  46  DA46       -0.1054
    922  N1        10.8750  -21.0330   -8.7200 N.ar   46  DA46       -0.2040
    923  C2        11.2910  -20.2980   -9.7580 C.ar   46  DA46        0.2016
    924  N3        10.7230  -20.1270  -10.9490 N.ar   46  DA46       -0.2048
    925  C4         9.5800  -20.8270  -11.0340 C.ar   46  DA46        0.1691
    926  P          9.3140  -24.2530  -16.1940 P.3    47  DA47        0.2141
    927  OP1        8.6730  -25.2270  -17.1060 O.2    47  DA47       -0.5172
    928  OP2        9.6140  -24.6170  -14.7880 O.3    47  DA47       -0.4373
    929  O5'       10.7320  -23.8210  -16.8000 O.3    47  DA47       -0.3114
    930  C5'       11.9160  -24.5540  -16.5050 C.3    47  DA47        0.1811
    931  C4'       13.0150  -23.6430  -16.0110 C.3    47  DA47        0.1746
    932  O4'       12.4500  -22.7050  -15.0590 O.3    47  DA47       -0.3327
    933  C3'       14.1680  -24.3030  -15.2620 C.3    47  DA47        0.1558
    934  O3'       15.1700  -24.8390  -16.1170 O.3    47  DA47       -0.3138
    935  C2'       14.6700  -23.1770  -14.3610 C.3    47  DA47        0.0865
    936  C1'       13.3670  -22.4530  -14.0170 C.3    47  DA47        0.2094
    937  N9        12.5890  -22.9100  -12.7910 N.ar   47  DA47       -0.2714
    938  C8        11.3930  -23.5780  -12.7780 C.ar   47  DA47        0.1815
    939  N7        10.8910  -23.7420  -11.5770 N.ar   47  DA47       -0.2193
    940  C5        11.8220  -23.1410  -10.7440 C.ar   47  DA47        0.1518
    941  C6        11.8760  -22.9760   -9.3490 C.ar   47  DA47        0.1919
    942  N6        10.9320  -23.4200   -8.5150 N.pl3  47  DA47       -0.1054
    943  N1        12.9450  -22.3310   -8.8350 N.ar   47  DA47       -0.2040
    944  C2        13.8890  -21.8850   -9.6720 C.ar   47  DA47        0.2016
    945  N3        13.9500  -21.9790  -10.9980 N.ar   47  DA47       -0.2048
    946  C4        12.8740  -22.6260  -11.4770 C.ar   47  DA47        0.1691
    947  P         16.2270  -25.9860  -15.6720 P.3    48  DA48        0.2141
    948  OP1       17.5990  -26.3190  -16.0960 O.2    48  DA48       -0.5172
    949  OP2       15.3310  -27.0490  -15.1710 O.3    48  DA48       -0.4373
    950  O5'       16.4170  -24.8780  -14.5690 O.3    48  DA48       -0.3114
    951  C5'       17.6160  -24.1970  -14.6090 C.3    48  DA48        0.1811
    952  C4'       18.0300  -23.9590  -13.1740 C.3    48  DA48        0.1746
    953  O4'       16.9410  -23.3540  -12.4340 O.3    48  DA48       -0.3327
    954  C3'       18.3200  -25.2150  -12.3850 C.3    48  DA48        0.1558
    955  O3'       19.6130  -25.6500  -12.7530 O.3    48  DA48       -0.3138
    956  C2'       18.2560  -24.6270  -10.9760 C.3    48  DA48        0.0865
    957  C1'       17.0580  -23.6900  -11.0680 C.3    48  DA48        0.2094
    958  N9        15.9320  -24.5240  -10.6500 N.ar   48  DA48       -0.2714
    959  C8        15.2490  -25.4530  -11.3910 C.ar   48  DA48        0.1815
    960  N7        14.2560  -26.0180  -10.7460 N.ar   48  DA48       -0.2193
    961  C5        14.2890  -25.4200   -9.4960 C.ar   48  DA48        0.1518
    962  C6        13.4950  -25.5840   -8.3480 C.ar   48  DA48        0.1919
    963  N6        12.4690  -26.4340   -8.2740 N.pl3  48  DA48       -0.1054
    964  N1        13.7950  -24.8340   -7.2660 N.ar   48  DA48       -0.2040
    965  C2        14.8230  -23.9810   -7.3420 C.ar   48  DA48        0.2016
    966  N3        15.6410  -23.7380   -8.3630 N.ar   48  DA48       -0.2048
    967  C4        15.3170  -24.4990   -9.4220 C.ar   48  DA48        0.1691
    968  P         20.1280  -26.9370  -12.1380 P.3    49  DT49        0.2141
    969  OP1       21.3760  -27.0550  -12.9270 O.2    49  DT49       -0.5172
    970  OP2       19.2440  -28.1070  -11.9350 O.3    49  DT49       -0.4373
    971  O5'       20.4830  -26.4500  -10.6590 O.3    49  DT49       -0.3114
    972  C5'       21.0310  -27.3780   -9.7440 C.3    49  DT49        0.1811
    973  C4'       20.5240  -27.1440   -8.3470 C.3    49  DT49        0.1746
    974  O4'       19.1580  -26.6560   -8.3800 O.3    49  DT49       -0.3327
    975  C3'       20.4310  -28.3940   -7.4980 C.3    49  DT49        0.1558
    976  O3'       21.6860  -28.8090   -6.9960 O.3    49  DT49       -0.3138
    977  C2'       19.4200  -27.9820   -6.4410 C.3    49  DT49        0.0866
    978  C1'       18.4300  -27.2120   -7.3050 C.3    49  DT49        0.2106
    979  N1        17.3360  -28.1940   -7.9020 N.ar   49  DT49       -0.2559
    980  C2        16.3680  -28.7970   -7.1220 C.ar   49  DT49        0.3545
    981  O2        16.4880  -28.9590   -5.9200 O.2    49  DT49       -0.2443
    982  N3        15.2470  -29.2080   -7.8020 N.ar   49  DT49       -0.1533
    983  C4        15.0030  -29.0800   -9.1530 C.ar   49  DT49        0.2804
    984  O4        13.9460  -29.4980   -9.6190 O.2    49  DT49       -0.2654
    985  C5        16.0560  -28.4450   -9.8950 C.ar   49  DT49        0.0534
    986  C6        17.1560  -28.0350   -9.2590 C.ar   49  DT49        0.0824
    987  C7        15.8860  -28.2600  -11.3740 C.3    49  DT49        0.0377
    988  P         22.1670  -30.2520   -7.3170 P.3    50  DA50        0.2141
    989  OP1       23.6140  -30.0240   -7.1430 O.3    50  DA50       -0.4373
    990  OP2       21.6920  -30.9930   -8.5210 O.2    50  DA50       -0.5172
    991  O5'       21.5920  -30.8870   -5.9710 O.3    50  DA50       -0.3114
    992  C5'       22.0710  -30.4540   -4.6930 C.3    50  DA50        0.1811
    993  C4'       21.5260  -31.3370   -3.5870 C.3    50  DA50        0.1746
    994  O4'       20.1310  -31.0220   -3.3630 O.3    50  DA50       -0.3327
    995  C3'       21.5890  -32.8400   -3.8370 C.3    50  DA50        0.1558
    996  O3'       22.8270  -33.4210   -3.4010 O.3    50  DA50       -0.3138
    997  C2'       20.4100  -33.3620   -3.0310 C.3    50  DA50        0.0865
    998  C1'       19.4060  -32.2130   -3.1500 C.3    50  DA50        0.2094
    999  N9        18.4790  -32.3210   -4.3560 N.ar   50  DA50       -0.2714
   1000  C8        18.8000  -32.0370   -5.6570 C.ar   50  DA50        0.1815
   1001  N7        17.8800  -32.3980   -6.5200 N.ar   50  DA50       -0.2193
   1002  C5        16.8880  -32.9590   -5.7320 C.ar   50  DA50        0.1518
   1003  C6        15.6430  -33.5330   -6.0440 C.ar   50  DA50        0.1919
   1004  N6        15.1690  -33.6380   -7.2880 N.pl3  50  DA50       -0.1054
   1005  N1        14.8940  -34.0000   -5.0220 N.ar   50  DA50       -0.2040
   1006  C2        15.3700  -33.8930   -3.7760 C.ar   50  DA50        0.2016
   1007  N3        16.5220  -33.3740   -3.3580 N.ar   50  DA50       -0.2048
   1008  C4        17.2430  -32.9200   -4.3970 C.ar   50  DA50        0.1691
   1009  P         23.3980  -34.8630   -4.0460 P.3    51  DA51        0.2141
   1010  OP1       24.7320  -35.2700   -3.5210 O.3    51  DA51       -0.4373
   1011  OP2       23.1490  -34.4550   -5.4600 O.2    51  DA51       -0.5172
   1012  O5'       22.3100  -35.9160   -3.6000 O.3    51  DA51       -0.3114
   1013  C5'       22.3320  -36.2840   -2.2810 C.3    51  DA51        0.1811
   1014  C4'       20.9680  -36.8000   -1.9180 C.3    51  DA51        0.1746
   1015  O4'       20.0620  -35.7900   -2.4100 O.3    51  DA51       -0.3327
   1016  C3'       20.4110  -37.9930   -2.6620 C.3    51  DA51        0.1558
   1017  O3'       21.0000  -39.2290   -2.3010 O.3    51  DA51       -0.3138
   1018  C2'       18.9150  -37.8500   -2.3320 C.3    51  DA51        0.0865
   1019  C1'       18.7690  -36.3620   -2.5190 C.3    51  DA51        0.2094
   1020  N9        18.2140  -36.1830   -3.7980 N.ar   51  DA51       -0.2714
   1021  C8        18.8700  -35.4390   -4.7440 C.ar   51  DA51        0.1815
   1022  N7        18.1640  -35.2200   -5.8270 N.ar   51  DA51       -0.2193
   1023  C5        16.9630  -35.8640   -5.5760 C.ar   51  DA51        0.1518
   1024  C6        15.7890  -36.0050   -6.3360 C.ar   51  DA51        0.1919
   1025  N6        15.6280  -35.4820   -7.5540 N.pl3  51  DA51       -0.1054
   1026  N1        14.7730  -36.7110   -5.7950 N.ar   51  DA51       -0.2040
   1027  C2        14.9340  -37.2350   -4.5740 C.ar   51  DA51        0.2016
   1028  N3        15.9880  -37.1700   -3.7640 N.ar   51  DA51       -0.2048
   1029  C4        16.9800  -36.4630   -4.3310 C.ar   51  DA51        0.1691
   1030  P         21.3550  -40.1550   -3.4880 P.3    52  DG52        0.2141
   1031  OP1       22.4780  -40.9860   -2.9750 O.3    52  DG52       -0.4373
   1032  OP2       21.5880  -39.2110   -4.6260 O.2    52  DG52       -0.5172
   1033  O5'       20.1430  -41.1130   -3.8780 O.3    52  DG52       -0.3114
   1034  C5'       19.4190  -41.7990   -2.8610 C.3    52  DG52        0.1811
   1035  C4'       17.9630  -41.9700   -3.2490 C.3    52  DG52        0.1746
   1036  O4'       17.4310  -40.6810   -3.6660 O.3    52  DG52       -0.3327
   1037  C3'       17.6870  -42.8540   -4.4570 C.3    52  DG52        0.1558
   1038  O3'       17.6870  -44.2390   -4.1510 O.3    52  DG52       -0.3138
   1039  C2'       16.3180  -42.3680   -4.9100 C.3    52  DG52        0.0865
   1040  C1'       16.4600  -40.8680   -4.6860 C.3    52  DG52        0.2093
   1041  N9        16.8620  -40.1550   -5.8990 N.ar   52  DG52       -0.2728
   1042  C8        18.0640  -39.5620   -6.1990 C.ar   52  DG52        0.1814
   1043  N7        18.0760  -38.9830   -7.3690 N.ar   52  DG52       -0.2177
   1044  C5        16.8080  -39.2040   -7.8730 C.ar   52  DG52        0.1711
   1045  C6        16.2240  -38.8160   -9.1070 C.2    52  DG52        0.2985
   1046  O6        16.7410  -38.1730  -10.0290 O.2    52  DG52       -0.2655
   1047  N1        14.9060  -39.2490   -9.2180 N.am   52  DG52       -0.1054
   1048  C2        14.2320  -39.9670   -8.2600 C.1    52  DG52        0.1273
   1049  N2        12.9650  -40.2940   -8.5480 N.2    52  DG52       -0.0916
   1050  N3        14.7610  -40.3360   -7.1090 N.pl3  52  DG52       -0.1271
   1051  C4        16.0410  -39.9270   -6.9790 C.ar   52  DG52        0.1688
   1052  P         18.0180  -45.1160   -5.2370 P.3    53  DA53        0.2141
   1053  OP1       18.2730  -46.3580   -4.4690 O.3    53  DA53       -0.4373
   1054  OP2       19.1320  -44.4560   -5.9610 O.2    53  DA53       -0.5172
   1055  O5'       16.8490  -45.3970   -6.2880 O.3    53  DA53       -0.3114
   1056  C5'       15.6440  -46.0310   -5.8820 C.3    53  DA53        0.1811
   1057  C4'       14.5570  -45.7930   -6.9070 C.3    53  DA53        0.1746
   1058  O4'       14.3600  -44.3600   -7.0890 O.3    53  DA53       -0.3327
   1059  C3'       14.8720  -46.2700   -8.3120 C.3    53  DA53        0.1558
   1060  O3'       14.6620  -47.6680   -8.4380 O.3    53  DA53       -0.3138
   1061  C2'       13.8770  -45.4660   -9.1300 C.3    53  DA53        0.0865
   1062  C1'       13.9840  -44.1010   -8.4460 C.3    53  DA53        0.2094
   1063  N9        15.0300  -43.3390   -9.1040 N.ar   53  DA53       -0.2714
   1064  C8        16.2710  -43.0780   -8.5840 C.ar   53  DA53        0.1815
   1065  N7        16.9850  -42.2500   -9.3090 N.ar   53  DA53       -0.2193
   1066  C5        16.1570  -41.9460  -10.3780 C.ar   53  DA53        0.1518
   1067  C6        16.3280  -41.1180  -11.5020 C.ar   53  DA53        0.1919
   1068  N6        17.4390  -40.4170  -11.7400 N.pl3  53  DA53       -0.1054
   1069  N1        15.3070  -41.0360  -12.3810 N.ar   53  DA53       -0.2040
   1070  C2        14.1940  -41.7390  -12.1400 C.ar   53  DA53        0.2016
   1071  N3        13.9160  -42.5490  -11.1210 N.ar   53  DA53       -0.2048
   1072  C4        14.9500  -42.6100  -10.2670 C.ar   53  DA53        0.1691
   1073  P         15.6130  -48.4440   -9.2720 P.3    54  DG54        0.2141
   1074  OP1       14.9350  -49.7540   -9.3870 O.2    54  DG54       -0.5172
   1075  OP2       17.0860  -48.3970   -9.1300 O.3    54  DG54       -0.4373
   1076  O5'       15.3400  -47.5240  -10.5600 O.3    54  DG54       -0.3114
   1077  C5'       14.0330  -47.0760  -10.9010 C.3    54  DG54        0.1811
   1078  C4'       14.0250  -46.0390  -12.0040 C.3    54  DG54        0.1746
   1079  O4'       14.5300  -44.7670  -11.5230 O.3    54  DG54       -0.3327
   1080  C3'       14.8960  -46.3210  -13.2130 C.3    54  DG54        0.1558
   1081  O3'       14.3260  -47.2480  -14.1120 O.3    54  DG54       -0.3138
   1082  C2'       15.0720  -44.9370  -13.8150 C.3    54  DG54        0.0865
   1083  C1'       15.2340  -44.1030  -12.5500 C.3    54  DG54        0.2094
   1084  N9        16.7310  -44.1130  -12.1850 N.ar   54  DG54       -0.2713
   1085  C8        17.3320  -44.8120  -11.1660 C.ar   54  DG54        0.1816
   1086  N7        18.6030  -44.5440  -11.0370 N.ar   54  DG54       -0.2173
   1087  C5        18.8590  -43.6130  -12.0260 C.ar   54  DG54        0.1748
   1088  C6        20.0630  -42.9500  -12.3800 C.ar   54  DG54        0.3023
   1089  O6        21.1810  -43.0640  -11.8630 O.2    54  DG54       -0.2633
   1090  N1        19.8820  -42.0790  -13.4510 N.ar   54  DG54       -0.1709
   1091  C2        18.6880  -41.8730  -14.1010 C.ar   54  DG54        0.2606
   1092  N2        18.7100  -40.9930  -15.1110 N.pl3  54  DG54       -0.0859
   1093  N3        17.5630  -42.4820  -13.7840 N.ar   54  DG54       -0.1918
   1094  C4        17.7150  -43.3320  -12.7470 C.ar   54  DG54        0.1722
   1095  P         15.3830  -48.2000  -14.9650 P.3    55  DT55        0.2141
   1096  OP1       14.8550  -49.5680  -15.1610 O.2    55  DT55       -0.5172
   1097  OP2       16.8420  -47.9620  -14.9120 O.3    55  DT55       -0.4373
   1098  O5'       14.8810  -47.2710  -16.1690 O.3    55  DT55       -0.3114
   1099  C5'       15.5670  -47.2800  -17.4140 C.3    55  DT55        0.1811
   1100  C4'       15.9440  -45.8790  -17.8280 C.3    55  DT55        0.1746
   1101  O4'       16.4450  -45.1610  -16.6730 O.3    55  DT55       -0.3327
   1102  C3'       17.0420  -45.7520  -18.8760 C.3    55  DT55        0.1558
   1103  O3'       16.5440  -45.8870  -20.2010 O.3    55  DT55       -0.3138
   1104  C2'       17.6360  -44.3790  -18.5750 C.3    55  DT55        0.0866
   1105  C1'       17.4870  -44.2880  -17.0530 C.3    55  DT55        0.2106
   1106  N1        18.7090  -44.6660  -16.2290 N.ar   55  DT55       -0.2559
   1107  C2        19.6720  -43.6900  -16.0500 C.ar   55  DT55        0.3545
   1108  O2        19.6290  -42.6060  -16.6030 O.2    55  DT55       -0.2443
   1109  N3        20.6940  -44.0320  -15.1980 N.ar   55  DT55       -0.1533
   1110  C4        20.8460  -45.2240  -14.5210 C.ar   55  DT55        0.2804
   1111  O4        21.8190  -45.3840  -13.7880 O.2    55  DT55       -0.2654
   1112  C5        19.8070  -46.1860  -14.7590 C.ar   55  DT55        0.0534
   1113  C6        18.8010  -45.8800  -15.5840 C.ar   55  DT55        0.0824
   1114  C7        19.8830  -47.5150  -14.0680 C.3    55  DT55        0.0377
   1115  P         17.3620  -45.6980  -21.2720 P.3    56  DG56        0.2141
   1116  OP1       15.9830  -45.5400  -21.8210 O.2    56  DG56       -0.5172
   1117  OP2       18.1050  -46.9800  -21.4730 O.3    56  DG56       -0.4373
   1118  O5'       18.2430  -44.4980  -21.8330 O.3    56  DG56       -0.3114
   1119  C5'       19.3350  -43.9700  -21.0950 C.3    56  DG56        0.1811
   1120  C4'       19.5790  -42.5480  -21.5210 C.3    56  DG56        0.1746
   1121  O4'       19.9250  -42.5430  -22.9340 O.3    56  DG56       -0.3327
   1122  C3'       18.3390  -41.6760  -21.4130 C.3    56  DG56        0.1558
   1123  O3'       18.2630  -41.0730  -20.1270 O.3    56  DG56       -0.3138
   1124  C2'       18.5530  -40.6530  -22.5220 C.3    56  DG56        0.0865
   1125  C1'       19.2100  -41.5180  -23.6020 C.3    56  DG56        0.2094
   1126  N9        18.2740  -42.0940  -24.5160 N.ar   56  DG56       -0.2713
   1127  C8        17.9000  -43.4100  -24.6400 C.ar   56  DG56        0.1816
   1128  N7        16.9470  -43.5950  -25.5120 N.ar   56  DG56       -0.2173
   1129  C5        16.6740  -42.3290  -25.9950 C.ar   56  DG56        0.1748
   1130  C6        15.7330  -41.8930  -26.9630 C.ar   56  DG56        0.3023
   1131  O6        14.9250  -42.5740  -27.6070 O.2    56  DG56       -0.2633
   1132  N1        15.7850  -40.5160  -27.1570 N.ar   56  DG56       -0.1709
   1133  C2        16.6390  -39.6630  -26.5000 C.ar   56  DG56        0.2606
   1134  N2        16.5430  -38.3660  -26.8220 N.pl3  56  DG56       -0.0859
   1135  N3        17.5180  -40.0520  -25.5980 N.ar   56  DG56       -0.1918
   1136  C4        17.4850  -41.3860  -25.3920 C.ar   56  DG56        0.1722
   1137  P         16.8860  -40.8380  -19.5180 P.3    57  DG57        0.2141
   1138  OP1       17.4000  -40.2340  -18.2720 O.3    57  DG57       -0.4373
   1139  OP2       16.1770  -42.1360  -19.4630 O.2    57  DG57       -0.5172
   1140  O5'       15.9610  -39.7110  -20.1870 O.3    57  DG57       -0.3114
   1141  C5'       16.0030  -38.3670  -19.6880 C.3    57  DG57        0.1811
   1142  C4'       15.6750  -37.3190  -20.7510 C.3    57  DG57        0.1746
   1143  O4'       16.0790  -37.8040  -22.0610 O.3    57  DG57       -0.3327
   1144  C3'       14.2100  -36.9100  -20.9110 C.3    57  DG57        0.1558
   1145  O3'       13.8290  -35.8720  -19.9800 O.3    57  DG57       -0.3138
   1146  C2'       14.1770  -36.4200  -22.3590 C.3    57  DG57        0.0865
   1147  C1'       15.1760  -37.3470  -23.0510 C.3    57  DG57        0.2094
   1148  N9        14.3300  -38.5390  -23.5490 N.ar   57  DG57       -0.2713
   1149  C8        14.3420  -39.8090  -23.0250 C.ar   57  DG57        0.1816
   1150  N7        13.6070  -40.6510  -23.6980 N.ar   57  DG57       -0.2173
   1151  C5        13.0790  -39.8980  -24.7300 C.ar   57  DG57        0.1748
   1152  C6        12.2050  -40.2620  -25.7860 C.ar   57  DG57        0.3023
   1153  O6        11.7090  -41.3710  -26.0220 O.2    57  DG57       -0.2633
   1154  N1        11.9150  -39.1840  -26.6180 N.ar   57  DG57       -0.1709
   1155  C2        12.4080  -37.9110  -26.4530 C.ar   57  DG57        0.2606
   1156  N2        12.0170  -37.0040  -27.3580 N.pl3  57  DG57       -0.0859
   1157  N3        13.2200  -37.5580  -25.4760 N.ar   57  DG57       -0.1918
   1158  C4        13.5150  -38.5880  -24.6560 C.ar   57  DG57        0.1722
   1159  P         12.6710  -35.4840  -19.8860 P.3    58  DT58        0.2141
   1160  OP1       11.5520  -34.7460  -20.5160 O.2    58  DT58       -0.5172
   1161  OP2       13.4840  -34.8910  -18.7890 O.3    58  DT58       -0.4373
   1162  O5'       12.1660  -36.8990  -19.3620 O.3    58  DT58       -0.3114
   1163  C5'       11.2860  -37.6600  -20.1560 C.3    58  DT58        0.1811
   1164  C4'       10.9070  -38.9040  -19.3900 C.3    58  DT58        0.1746
   1165  O4'       12.0950  -39.6650  -19.0910 O.3    58  DT58       -0.3327
   1166  C3'       10.3190  -38.6560  -18.0190 C.3    58  DT58        0.1558
   1167  O3'        8.9600  -38.2790  -18.1300 O.3    58  DT58       -0.3138
   1168  C2'       10.5220  -40.0240  -17.3980 C.3    58  DT58        0.0866
   1169  C1'       11.9500  -40.3040  -17.8370 C.3    58  DT58        0.2106
   1170  N1        13.0000  -39.7930  -16.8690 N.ar   58  DT58       -0.2559
   1171  C2        13.2180  -40.5240  -15.7160 C.ar   58  DT58        0.3545
   1172  O2        12.5610  -41.5060  -15.4190 O.2    58  DT58       -0.2443
   1173  N3        14.2370  -40.0630  -14.9190 N.ar   58  DT58       -0.1533
   1174  C4        15.0430  -38.9680  -15.1530 C.ar   58  DT58        0.2804
   1175  O4        15.9190  -38.6770  -14.3430 O.2    58  DT58       -0.2654
   1176  C5        14.7540  -38.2600  -16.3690 C.ar   58  DT58        0.0534
   1177  C6        13.7680  -38.6880  -17.1630 C.ar   58  DT58        0.0824
   1178  C7        15.5760  -37.0530  -16.7130 C.3    58  DT58        0.0377
   1179  P          8.2870  -37.1240  -17.1770 P.3    59  DG59        0.2141
   1180  OP1        7.0620  -37.2180  -17.9990 O.2    59  DG59       -0.5172
   1181  OP2        9.0240  -35.8380  -17.1170 O.3    59  DG59       -0.4373
   1182  O5'        7.9360  -37.5370  -15.6820 O.3    59  DG59       -0.3114
   1183  C5'        6.8490  -38.4030  -15.4180 C.3    59  DG59        0.1811
   1184  C4'        7.2100  -39.4290  -14.3660 C.3    59  DG59        0.1746
   1185  O4'        8.4940  -40.0590  -14.6290 O.3    59  DG59       -0.3327
   1186  C3'        7.3070  -39.0120  -12.9100 C.3    59  DG59        0.1558
   1187  O3'        6.0260  -38.9700  -12.3280 O.3    59  DG59       -0.3138
   1188  C2'        8.0250  -40.2070  -12.3040 C.3    59  DG59        0.0865
   1189  C1'        9.0030  -40.5880  -13.4150 C.3    59  DG59        0.2094
   1190  N9        10.2940  -39.8350  -13.0370 N.ar   59  DG59       -0.2713
   1191  C8        10.8660  -38.7990  -13.7340 C.ar   59  DG59        0.1816
   1192  N7        12.0330  -38.4460  -13.2670 N.ar   59  DG59       -0.2173
   1193  C5        12.2470  -39.2970  -12.1990 C.ar   59  DG59        0.1748
   1194  C6        13.3410  -39.3940  -11.3000 C.ar   59  DG59        0.3040
   1195  O6        14.3750  -38.7140  -11.2760 O.2    59  DG59       -0.2633
   1196  N1        13.1520  -40.4000  -10.3580 N.ar   59  DG59       -0.1503
   1197  C2        12.0470  -41.2140  -10.2890 C.ar   59  DG59        0.2623
   1198  N2        12.0460  -42.1290   -9.3110 N.pl3  59  DG59       -0.0859
   1199  N3        11.0230  -41.1360  -11.1170 N.ar   59  DG59       -0.1918
   1200  C4        11.1840  -40.1650  -12.0400 C.ar   59  DG59        0.1722
   1201  P          5.8420  -38.1330  -10.8480 P.3    60  DT60        0.2141
   1202  OP1        4.5420  -37.4660  -11.1010 O.2    60  DT60       -0.5172
   1203  OP2        7.0610  -37.3290  -10.5670 O.3    60  DT60       -0.4373
   1204  O5'        5.6700  -39.1870   -9.6830 O.3    60  DT60       -0.3114
   1205  C5'        6.6970  -40.1180   -9.4440 C.3    60  DT60        0.1811
   1206  C4'        7.1320  -40.0220   -8.0220 C.3    60  DT60        0.1746
   1207  O4'        8.5570  -40.3000   -7.9760 O.3    60  DT60       -0.3327
   1208  C3'        7.0090  -38.6280   -7.4470 C.3    60  DT60        0.1558
   1209  O3'        5.6910  -38.4260   -6.9570 O.3    60  DT60       -0.3138
   1210  C2'        8.0730  -38.6550   -6.3600 C.3    60  DT60        0.0866
   1211  C1'        9.1930  -39.4030   -7.0860 C.3    60  DT60        0.2106
   1212  N1        10.1430  -38.5430   -7.9880 N.ar   60  DT60       -0.2559
   1213  C2        11.2980  -38.1540   -7.3370 C.ar   60  DT60        0.3545
   1214  O2        11.6750  -38.6580   -6.2940 O.2    60  DT60       -0.2443
   1215  N3        12.0010  -37.1470   -7.9530 N.ar   60  DT60       -0.1533
   1216  C4        11.6710  -36.5050   -9.1280 C.ar   60  DT60        0.2804
   1217  O4        12.4040  -35.6170   -9.5590 O.2    60  DT60       -0.2654
   1218  C5        10.4580  -36.9640   -9.7430 C.ar   60  DT60        0.0534
   1219  C6         9.7550  -37.9420   -9.1650 C.ar   60  DT60        0.0824
   1220  C7        10.0140  -36.3260  -11.0260 C.3    60  DT60        0.0377
   1221  P          5.4160  -37.0890   -6.5010 P.3    61  DT61        0.2141
   1222  OP1        4.0290  -37.4650   -6.1460 O.3    61  DT61       -0.4373
   1223  OP2        5.6760  -36.0920   -7.5670 O.2    61  DT61       -0.5172
   1224  O5'        6.1610  -36.4970   -5.2130 O.3    61  DT61       -0.3114
   1225  C5'        6.0330  -37.1890   -3.9810 C.3    61  DT61        0.1811
   1226  C4'        7.2650  -37.0810   -3.1150 C.3    61  DT61        0.1746
   1227  O4'        8.4600  -37.4660   -3.8510 O.3    61  DT61       -0.3327
   1228  C3'        7.6230  -35.6980   -2.5970 C.3    61  DT61        0.1558
   1229  O3'        6.7810  -35.2320   -1.5590 O.3    61  DT61       -0.3138
   1230  C2'        9.0680  -35.9130   -2.1650 C.3    61  DT61        0.0866
   1231  C1'        9.5790  -36.7930   -3.3070 C.3    61  DT61        0.2106
   1232  N1        10.2500  -36.0180   -4.2750 N.ar   61  DT61       -0.2559
   1233  C2        11.6130  -35.8160   -4.1780 C.ar   61  DT61        0.3545
   1234  O2        12.2760  -36.2020   -3.2320 O.2    61  DT61       -0.2443
   1235  N3        12.1770  -35.1400   -5.2330 N.ar   61  DT61       -0.1533
   1236  C4        11.5280  -34.6570   -6.3500 C.ar   61  DT61        0.2804
   1237  O4        12.1720  -34.0690   -7.2160 O.2    61  DT61       -0.2654
   1238  C5        10.1150  -34.9060   -6.3770 C.ar   61  DT61        0.0534
   1239  C6         9.5410  -35.5600   -5.3640 C.ar   61  DT61        0.0824
   1240  C7         9.3200  -34.4190   -7.5520 C.3    61  DT61        0.0377
   1241  P          6.7460  -33.5620   -1.1250 P.3    62  DG62        0.2141
   1242  OP1        6.1370  -34.2540    0.0370 O.3    62  DG62       -0.4373
   1243  OP2        5.8910  -32.8540   -2.1190 O.2    62  DG62       -0.5172
   1244  O5'        7.8330  -32.5560   -0.5640 O.3    62  DG62       -0.3114
   1245  C5'        9.1700  -32.9740   -0.5600 C.3    62  DG62        0.1811
   1246  C4'        9.9250  -32.3410    0.5490 C.3    62  DG62        0.1746
   1247  O4'       11.2360  -32.9330    0.4540 O.3    62  DG62       -0.3327
   1248  C3'       10.0760  -30.8370    0.3710 C.3    62  DG62        0.1558
   1249  O3'        9.5550  -30.2100    1.5360 O.3    62  DG62       -0.3138
   1250  C2'       11.5880  -30.5940    0.2490 C.3    62  DG62        0.0865
   1251  C1'       12.1350  -31.9860   -0.0680 C.3    62  DG62        0.2094
   1252  N9        12.1850  -32.2740   -1.6270 N.ar   62  DG62       -0.2713
   1253  C8        11.2100  -32.5610   -2.5510 C.ar   62  DG62        0.1816
   1254  N7        11.5100  -32.1660   -3.7580 N.ar   62  DG62       -0.2173
   1255  C5        12.7580  -31.5840   -3.6270 C.ar   62  DG62        0.1748
   1256  C6        13.5970  -30.9730   -4.5940 C.ar   62  DG62        0.3023
   1257  O6        13.3890  -30.8230   -5.8040 O.2    62  DG62       -0.2633
   1258  N1        14.7840  -30.5090   -4.0340 N.ar   62  DG62       -0.1709
   1259  C2        15.1210  -30.6200   -2.7060 C.ar   62  DG62        0.2606
   1260  N2        16.3100  -30.1120   -2.3540 N.pl3  62  DG62       -0.0859
   1261  N3        14.3510  -31.1840   -1.7960 N.ar   62  DG62       -0.1918
   1262  C4        13.1930  -31.6410   -2.3170 C.ar   62  DG62        0.1722
   1263  P          8.7570  -28.8530    1.4590 P.3    63  DG63        0.2141
   1264  OP1        8.1650  -28.4990    2.7920 O.3    63  DG63       -0.4373
   1265  OP2        8.0200  -28.5160    0.2050 O.2    63  DG63       -0.5172
   1266  O5'       10.2450  -28.2880    1.3570 O.3    63  DG63       -0.3114
   1267  C5'       11.1940  -28.5160    2.4140 C.3    63  DG63        0.1811
   1268  C4'       12.5950  -28.1400    1.9750 C.3    63  DG63        0.1746
   1269  O4'       13.0090  -28.9780    0.8650 O.3    63  DG63       -0.3327
   1270  C3'       12.8070  -26.7370    1.4430 C.3    63  DG63        0.1558
   1271  O3'       12.9280  -25.7460    2.4460 O.3    63  DG63       -0.3138
   1272  C2'       14.0860  -26.8870    0.6410 C.3    63  DG63        0.0865
   1273  C1'       13.8870  -28.2560    0.0130 C.3    63  DG63        0.2094
   1274  N9        13.2660  -28.0980   -1.3140 N.ar   63  DG63       -0.2713
   1275  C8        11.9370  -28.2750   -1.6140 C.ar   63  DG63        0.1816
   1276  N7        11.6710  -28.1290   -2.8830 N.ar   63  DG63       -0.2173
   1277  C5        12.8950  -27.8400   -3.4590 C.ar   63  DG63        0.1748
   1278  C6        13.2410  -27.5780   -4.8090 C.ar   63  DG63        0.3023
   1279  O6        12.4990  -27.5510   -5.7990 O.2    63  DG63       -0.2633
   1280  N1        14.6020  -27.3290   -4.9590 N.ar   63  DG63       -0.1709
   1281  C2        15.5180  -27.3320   -3.9330 C.ar   63  DG63        0.2606
   1282  N2        16.7870  -27.0710   -4.2740 N.pl3  63  DG63       -0.0859
   1283  N3        15.2110  -27.5730   -2.6740 N.ar   63  DG63       -0.1918
   1284  C4        13.8940  -27.8170   -2.5050 C.ar   63  DG63        0.1722
   1285  P         12.1750  -24.4530    2.2140 P.3    64  DC64        0.2141
   1286  OP1       11.7580  -23.9710    3.5770 O.3    64  DC64       -0.4373
   1287  OP2       11.0600  -24.8870    1.2920 O.2    64  DC64       -0.5172
   1288  O5'       13.0600  -23.3960    1.3570 O.3    64  DC64       -0.3114
   1289  C5'       14.3910  -23.3040    1.9750 C.3    64  DC64        0.1811
   1290  C4'       15.3500  -23.0670    0.8260 C.3    64  DC64        0.1746
   1291  O4'       15.3130  -24.1340   -0.1020 O.3    64  DC64       -0.3327
   1292  C3'       15.0230  -21.8360   -0.0070 C.3    64  DC64        0.1558
   1293  O3'       15.3660  -20.6330    0.6590 O.3    64  DC64       -0.3138
   1294  C2'       15.8180  -22.1220   -1.2670 C.3    64  DC64        0.0866
   1295  C1'       15.6250  -23.6310   -1.3920 C.3    64  DC64        0.2106
   1296  N1        14.5820  -23.8270   -2.3820 N.ar   64  DC64       -0.2556
   1297  C2        14.8190  -23.6850   -3.7540 C.ar   64  DC64        0.3531
   1298  O2        15.9530  -23.3480   -4.1330 O.2    64  DC64       -0.2443
   1299  N3        13.8080  -23.9180   -4.6260 N.ar   64  DC64       -0.1739
   1300  C4        12.6060  -24.2770   -4.1730 C.ar   64  DC64        0.1759
   1301  N4        11.6410  -24.4950   -5.0690 N.pl3  64  DC64       -0.1070
   1302  C5        12.3460  -24.4260   -2.7870 C.ar   64  DC64        0.0566
   1303  C6        13.3460  -24.1960   -1.9300 C.ar   64  DC64        0.0849
   1304  P         14.7290  -19.2770    0.2330 P.3    65  DT65        0.2141
   1305  OP1       15.3260  -18.1880    1.0360 O.3    65  DT65       -0.4373
   1306  OP2       13.2400  -19.3770    0.1310 O.2    65  DT65       -0.5172
   1307  O5'       15.3340  -19.1280   -1.2330 O.3    65  DT65       -0.3114
   1308  C5'       16.7450  -19.0150   -1.4420 C.3    65  DT65        0.1811
   1309  C4'       17.0280  -18.7960   -2.9070 C.3    65  DT65        0.1746
   1310  O4'       16.6960  -20.0070   -3.6500 O.3    65  DT65       -0.3327
   1311  C3'       16.1310  -17.7280   -3.5080 C.3    65  DT65        0.1558
   1312  O3'       16.6000  -16.4040   -3.2990 O.3    65  DT65       -0.3138
   1313  C2'       16.0370  -18.1350   -4.9700 C.3    65  DT65        0.0866
   1314  C1'       16.0370  -19.6630   -4.8630 C.3    65  DT65        0.2106
   1315  N1        14.5780  -20.2560   -4.8200 N.ar   65  DT65       -0.2559
   1316  C2        13.9950  -20.4520   -6.0580 C.ar   65  DT65        0.3545
   1317  O2        14.5170  -20.1010   -7.1010 O.2    65  DT65       -0.2443
   1318  N3        12.7710  -21.0750   -6.0310 N.ar   65  DT65       -0.1533
   1319  C4        12.0870  -21.5120   -4.9160 C.ar   65  DT65        0.2804
   1320  O4        10.9930  -22.0560   -5.0520 O.2    65  DT65       -0.2654
   1321  C5        12.7570  -21.2720   -3.6690 C.ar   65  DT65        0.0534
   1322  C6        13.9480  -20.6680   -3.6660 C.ar   65  DT65        0.0824
   1323  C7        12.0930  -21.7110   -2.3980 C.3    65  DT65        0.0377
   1324  P         15.5360  -15.1980   -3.0370 P.3    66  DC66        0.2141
   1325  OP1       16.1590  -13.9580   -2.5230 O.2    66  DC66       -0.5172
   1326  OP2       14.5120  -15.8940   -2.2250 O.3    66  DC66       -0.4373
   1327  O5'       14.9250  -14.8860   -4.4870 O.3    66  DC66       -0.3114
   1328  C5'       15.6150  -14.0280   -5.3880 C.3    66  DC66        0.1811
   1329  C4'       15.1060  -14.1770   -6.8120 C.3    66  DC66        0.1746
   1330  O4'       14.9920  -15.5850   -7.1500 O.3    66  DC66       -0.3327
   1331  C3'       13.7150  -13.6260   -7.0880 C.3    66  DC66        0.1558
   1332  O3'       13.7520  -12.2240   -7.3160 O.3    66  DC66       -0.3138
   1333  C2'       13.3830  -14.3770   -8.3700 C.3    66  DC66        0.0866
   1334  C1'       13.8920  -15.7740   -8.0240 C.3    66  DC66        0.2106
   1335  N1        12.8590  -16.6530   -7.3200 N.ar   66  DC66       -0.2556
   1336  C2        11.6960  -17.0290   -8.0030 C.ar   66  DC66        0.3531
   1337  O2        11.5440  -16.6510   -9.1770 O.2    66  DC66       -0.2443
   1338  N3        10.7740  -17.7900   -7.3660 N.ar   66  DC66       -0.1739
   1339  C4        10.9790  -18.1710   -6.1050 C.ar   66  DC66        0.1759
   1340  N4        10.0430  -18.9200   -5.5180 N.pl3  66  DC66       -0.1070
   1341  C5        12.1510  -17.8010   -5.3960 C.ar   66  DC66        0.0566
   1342  C6        13.0590  -17.0490   -6.0280 C.ar   66  DC66        0.0849
   1343  P         12.5040  -11.3970   -6.9440 P.3    67  DC67        0.2141
   1344  OP1       12.7330   -9.9410   -7.1100 O.2    67  DC67       -0.5172
   1345  OP2       12.2230  -11.9490   -5.5920 O.3    67  DC67       -0.4373
   1346  O5'       11.3120  -11.8230   -7.9080 O.3    67  DC67       -0.3114
   1347  C5'       11.3900  -11.5770   -9.3220 C.3    67  DC67        0.1811
   1348  C4'       10.1200  -12.0260  -10.0010 C.3    67  DC67        0.1746
   1349  O4'       10.0060  -13.4720   -9.9430 O.3    67  DC67       -0.3327
   1350  C3'        8.8320  -11.5380   -9.3600 C.3    67  DC67        0.1558
   1351  O3'        8.5260  -10.2010   -9.7320 O.3    67  DC67       -0.3138
   1352  C2'        7.8150  -12.5380   -9.8930 C.3    67  DC67        0.0866
   1353  C1'        8.6330  -13.8320   -9.8750 C.3    67  DC67        0.2106
   1354  N1         8.3550  -14.6760   -8.6610 N.ar   67  DC67       -0.2556
   1355  C2         7.2160  -15.4860   -8.7280 C.ar   67  DC67        0.3531
   1356  O2         6.5600  -15.5090   -9.7830 O.2    67  DC67       -0.2443
   1357  N3         6.8630  -16.2180   -7.6450 N.ar   67  DC67       -0.1739
   1358  C4         7.5970  -16.1600   -6.5330 C.ar   67  DC67        0.1759
   1359  N4         7.2100  -16.8990   -5.4900 N.pl3  67  DC67       -0.1070
   1360  C5         8.7540  -15.3460   -6.4450 C.ar   67  DC67        0.0566
   1361  C6         9.1000  -14.6250   -7.5170 C.ar   67  DC67        0.0849
   1362  P          7.4360   -9.2280   -8.7650 P.3    68  DC68        0.2141
   1363  OP1        6.9450   -7.9070   -9.2580 O.2    68  DC68       -0.5172
   1364  OP2        7.6210   -9.4560   -7.3130 O.3    68  DC68       -0.4373
   1365  O5'        6.4780  -10.3310   -9.3930 O.3    68  DC68       -0.3114
   1366  C5'        6.1390  -10.2730  -10.7740 C.3    68  DC68        0.1811
   1367  C4'        4.8570  -11.0170  -11.0400 C.3    68  DC68        0.1746
   1368  O4'        5.0350  -12.4120  -10.6810 O.3    68  DC68       -0.3327
   1369  C3'        3.6520  -10.5810  -10.2200 C.3    68  DC68        0.1558
   1370  O3'        3.0040   -9.4580  -10.8000 O.3    68  DC68       -0.3138
   1371  C2'        2.7750  -11.8230  -10.2660 C.3    68  DC68        0.0866
   1372  C1'        3.8190  -12.9290  -10.1720 C.3    68  DC68        0.2106
   1373  N1         3.9510  -13.3420   -8.7450 N.ar   68  DC68       -0.2556
   1374  C2         2.9800  -14.2630   -8.3340 C.ar   68  DC68        0.3531
   1375  O2         2.1960  -14.7240   -9.1820 O.2    68  DC68       -0.2443
   1376  N3         2.9210  -14.6220   -7.0290 N.ar   68  DC68       -0.1739
   1377  C4         3.7820  -14.1000   -6.1550 C.ar   68  DC68        0.1759
   1378  N4         3.6870  -14.4830   -4.8800 N.pl3  68  DC68       -0.1070
   1379  C5         4.7740  -13.1660   -6.5510 C.ar   68  DC68        0.0566
   1380  C6         4.8280  -12.8140   -7.8410 C.ar   68  DC68        0.0849
   1381  P          1.8670   -8.5100   -9.9190 P.3    69  DG69        0.2141
   1382  OP1        1.2160   -7.3790  -11.0450 O.2    69  DG69       -0.5172
   1383  OP2        2.2540   -7.8960   -8.7050 O.3    69  DG69       -0.4373
   1384  O5'        1.0370  -10.3860   -9.5760 O.3    69  DG69       -0.3114
   1385  C5'        0.1770  -10.6190  -10.7270 C.3    69  DG69        0.1811
   1386  C4'       -1.0120  -11.3920  -10.1560 C.3    69  DG69        0.1746
   1387  O4'       -0.4610  -12.5630   -9.5330 O.3    69  DG69       -0.3327
   1388  C3'       -1.6420  -10.6290   -8.9610 C.3    69  DG69        0.1558
   1389  O3'       -2.5150   -9.6250   -9.5040 O.3    69  DG69       -0.3138
   1390  C2'       -2.2890  -11.8340   -8.2500 C.3    69  DG69        0.0865
   1391  C1'       -1.1450  -12.8490   -8.3040 C.3    69  DG69        0.2094
   1392  N9        -0.0260  -12.7230   -7.2480 N.ar   69  DG69       -0.2713
   1393  C8         1.1060  -11.9470   -7.3020 C.ar   69  DG69        0.1816
   1394  N7         1.7850  -11.9480   -6.1870 N.ar   69  DG69       -0.2173
   1395  C5         1.0620  -12.7740   -5.3470 C.ar   69  DG69        0.1748
   1396  C6         1.3010  -13.1600   -4.0030 C.ar   69  DG69        0.3023
   1397  O6         2.2410  -12.8320   -3.2670 O.2    69  DG69       -0.2633
   1398  N1         0.3130  -14.0150   -3.5230 N.ar   69  DG69       -0.1709
   1399  C2        -0.7720  -14.4450   -4.2490 C.ar   69  DG69        0.2606
   1400  N2        -1.6180  -15.2680   -3.6150 N.pl3  69  DG69       -0.0859
   1401  N3        -1.0080  -14.0940   -5.4980 N.ar   69  DG69       -0.1918
   1402  C4        -0.0620  -13.2630   -5.9840 C.ar   69  DG69        0.1722
   1403  P         -3.3010   -8.5660   -8.5520 P.3    70  DT70        0.2141
   1404  OP1       -4.0570   -7.6290   -9.4270 O.2    70  DT70       -0.5172
   1405  OP2       -1.9860   -8.1560   -8.0030 O.3    70  DT70       -0.4373
   1406  O5'       -4.1870   -8.9990   -7.2850 O.3    70  DT70       -0.3114
   1407  C5'       -5.5360   -9.4310   -7.4690 C.3    70  DT70        0.1811
   1408  C4'       -6.0340  -10.1330   -6.2260 C.3    70  DT70        0.1746
   1409  O4'       -5.1350  -11.2070   -5.8440 O.3    70  DT70       -0.3327
   1410  C3'       -6.0620   -9.2650   -4.9850 C.3    70  DT70        0.1558
   1411  O3'       -7.1860   -8.4150   -5.0060 O.3    70  DT70       -0.3138
   1412  C2'       -6.1370  -10.3360   -3.8980 C.3    70  DT70        0.0866
   1413  C1'       -5.0760  -11.2970   -4.4280 C.3    70  DT70        0.2106
   1414  N1        -3.6640  -11.0910   -3.9020 N.ar   70  DT70       -0.2559
   1415  C2        -3.3010  -11.6160   -2.6770 C.ar   70  DT70        0.3545
   1416  O2        -4.0750  -12.2230   -1.9580 O.2    70  DT70       -0.2443
   1417  N3        -1.9910  -11.4040   -2.3190 N.ar   70  DT70       -0.1533
   1418  C4        -1.0310  -10.7340   -3.0480 C.ar   70  DT70        0.2804
   1419  O4         0.1060  -10.6240   -2.5940 O.2    70  DT70       -0.2654
   1420  C5        -1.4860  -10.2170   -4.3080 C.ar   70  DT70        0.0534
   1421  C6        -2.7540  -10.4100   -4.6800 C.ar   70  DT70        0.0824
   1422  C7        -0.5150   -9.4710   -5.1750 C.3    70  DT70        0.0377
   1423  P         -7.0980   -6.9760   -4.5310 P.3    71  DA71        0.2141
   1424  OP1       -8.4180   -6.2880   -4.5210 O.3    71  DA71       -0.4373
   1425  OP2       -5.8490   -6.1770   -4.7030 O.2    71  DA71       -0.5172
   1426  O5'       -7.0060   -7.8210   -3.1930 O.3    71  DA71       -0.3114
   1427  C5'       -6.8130   -7.1970   -1.9520 C.3    71  DA71        0.1812
   1428  C4'       -6.5150   -8.2340   -0.9130 C.3    71  DA71        0.1775
   1429  O4'       -5.4000   -9.0550   -1.3370 O.3    71  DA71       -0.3326
   1430  C3'       -6.1060   -7.6130    0.3980 C.3    71  DA71        0.1859
   1431  O3'       -7.2870   -7.4170    1.1500 O.3    71  DA71       -0.2203
   1432  C2'       -5.1460   -8.6360    0.9910 C.3    71  DA71        0.0894
   1433  C1'       -4.4850   -9.2030   -0.2720 C.3    71  DA71        0.2095
   1434  N9        -3.5760   -8.5890    0.1620 N.ar   71  DA71       -0.2714
   1435  C8        -3.2620   -7.9230   -0.9940 C.ar   71  DA71        0.1815
   1436  N7        -2.0830   -7.3490   -0.9700 N.ar   71  DA71       -0.2193
   1437  C5        -1.5890   -7.6590    0.2880 C.ar   71  DA71        0.1518
   1438  C6        -0.3800   -7.3450    0.9330 C.ar   71  DA71        0.1919
   1439  N6         0.5900   -6.6190    0.3720 N.pl3  71  DA71       -0.1054
   1440  N1        -0.2000   -7.8080    2.1880 N.ar   71  DA71       -0.2040
   1441  C2        -1.1730   -8.5360    2.7490 C.ar   71  DA71        0.2016
   1442  N3        -2.3500   -8.8980    2.2440 N.ar   71  DA71       -0.2048
   1443  C4        -2.4980   -8.4210    0.9970 C.ar   71  DA71        0.1691
   1444  P         -8.8310   -5.7180    3.8460 P.3    72  DT72        0.5411
   1445  OP1       -9.4030   -6.8470    4.6280 O.2    72  DT72       -0.2272
   1446  OP2       -9.3710   -4.3440    4.0340 O.2    72  DT72       -0.2272
   1447  O5'       -7.2550   -5.6540    4.0810 O.3    72  DT72       -0.2722
   1448  C5'       -6.7350   -5.5600    5.3970 C.3    72  DT72        0.1850
   1449  C4'       -5.2740   -5.9410    5.4280 C.3    72  DT72        0.1755
   1450  O4'       -4.4650   -4.8190    4.9720 O.3    72  DT72       -0.3510
   1451  C3'       -4.7850   -6.2070    6.8420 C.3    72  DT72        0.1839
   1452  O3'       -5.0570   -7.5440    7.2350 O.3    72  DT72       -0.2204
   1453  C2'       -3.3060   -5.8560    6.7670 C.3    72  DT72        0.0676
   1454  C1'       -3.3360   -4.6560    5.8200 C.3    72  DT72        0.1450
   1455  N1        -2.4990   -5.0440    3.7270 N.2    72  DT72       -0.1608
   1456  C2        -1.1840   -4.6190    3.6790 C.1    72  DT72        0.2395
   1457  O2        -0.4820   -4.5180    4.6700 O.2    72  DT72       -0.2041
   1458  N3        -0.7180   -4.3140    2.4240 N.am   72  DT72       -0.0881
   1459  C4        -1.4180   -4.3890    1.2380 C.2    72  DT72        0.2768
   1460  O4        -0.8620   -4.0810    0.1860 O.2    72  DT72       -0.2676
   1461  C5        -2.7760   -4.8370    1.3710 C.2    72  DT72        0.0541
   1462  C6        -3.2550   -5.1410    2.5800 C.2    72  DT72        0.1126
   1463  C7        -3.6210   -4.9510    0.1370 C.3    72  DT72        0.0376
@<TRIPOS>BOND
     1  1131  1130    2
     2  1156  1155    1
     3  1132  1130   ar
     4  1132  1133   ar
     5  1130  1129   ar
     6  1134  1133    1
     7  1154  1155   ar
     8  1154  1152   ar
     9  1133  1135   ar
    10  1155  1157   ar
    11  1153  1152    2
    12  1129  1128   ar
    13  1129  1136   ar
    14  1152  1151   ar
    15  1135  1136   ar
    16  1128  1127   ar
    17  1157  1158   ar
    18  1136  1126   ar
    19  1151  1158   ar
    20  1151  1150   ar
    21  1158  1148   ar
    22  1127  1126   ar
    23  1126  1125    1
    24  1150  1149   ar
    25  1125  1121    1
    26  1125  1124    1
    27  1148  1147    1
    28  1148  1149   ar
    29  1147  1146    1
    30  1147  1143    1
    31  1121  1120    1
    32  1124  1122    1
    33  1146  1144    1
    34  1143  1142    1
    35  1118  1115    1
    36  1118  1119    1
    37  1116  1115    2
    38  1120  1122    1
    39  1120  1119    1
    40  1117  1115    1
    41  1122  1123    1
    42  1115  1103    1
    43  1144  1142    1
    44  1144  1145    1
    45  1142  1141    1
    46  1160  1159    2
    47  1103  1102    1
    48  1140  1141    1
    49  1140  1137    1
    50  1163  1164    1
    51  1163  1162    1
    52  1123  1137    1
    53  1145  1159    1
    54  1159  1162    1
    55  1159  1161    1
    56  1137  1139    2
    57  1137  1138    1
    58  1164  1165    1
    59  1164  1166    1
    60  1165  1169    1
    61  1102  1104    1
    62  1102  1100    1
    63  1104  1105    1
    64  1167  1166    1
    65  1167  1179    1
    66  1166  1168    1
    67  1180  1179    2
    68  1169  1168    1
    69  1169  1170    1
    70  1100  1099    1
    71  1100  1101    1
    72  1099  1098    1
    73  1179  1181    1
    74  1179  1182    1
    75  1177  1170   ar
    76  1177  1176   ar
    77   927   926    2
    78  1105  1101    1
    79  1105  1106    1
    80  1170  1171   ar
    81   929   930    1
    82   929   926    1
    83  1178  1176    1
    84  1108  1107    2
    85   930   931    1
    86  1176  1174   ar
    87   913   926    1
    88   913   912    1
    89  1106  1107   ar
    90  1106  1113   ar
    91   926   928    1
    92  1098  1095    1
    93   934   947    1
    94   934   933    1
    95   948   947    2
    96  1107  1109   ar
    97   931   933    1
    98   931   932    1
    99  1171  1172    2
   100  1171  1173   ar
   101  1182  1183    1
   102   947   949    1
   103   947   950    1
   104   906   905    2
   105  1113  1112   ar
   106  1183  1184    1
   107   933   935    1
   108   910   909    1
   109   910   912    1
   110   910   911    1
   111   909   908    1
   112  1109  1110   ar
   113  1096  1095    2
   114  1174  1173   ar
   115  1174  1175    2
   116  1092  1091    1
   117   912   914    1
   118   932   936    1
   119  1095  1097    1
   120  1095  1081    1
   121  1112  1110   ar
   122  1112  1114    1
   123  1185  1184    1
   124  1185  1189    1
   125   951   950    1
   126   951   952    1
   127  1110  1111    2
   128   914   915    1
   129  1184  1186    1
   130   935   936    1
   131   905   891    1
   132   905   908    1
   133   905   907    1
   134   891   890    1
   135  1081  1080    1
   136  1091  1093   ar
   137  1091  1090   ar
   138   911   915    1
   139   936   937    1
   140  1082  1080    1
   141  1082  1083    1
   142  1093  1094   ar
   143  1191  1192   ar
   144  1191  1190   ar
   145   915   916    1
   146  1090  1088   ar
   147  1189  1190    1
   148  1189  1188    1
   149  1192  1193   ar
   150  1080  1078    1
   151   952   953    1
   152   952   954    1
   153  1190  1200   ar
   154   969   968    2
   155  1186  1187    1
   156  1186  1188    1
   157   937   938   ar
   158   937   946   ar
   159   890   888    1
   160   890   892    1
   161   938   939   ar
   162   955   954    1
   163   955   968    1
   164  1094  1084   ar
   165  1094  1087   ar
   166  1083  1084    1
   167  1083  1079    1
   168   888   887    1
   169   888   889    1
   170   887   886    1
   171   953   957    1
   172   954   956    1
   173  1069  1070   ar
   174  1069  1067   ar
   175  1088  1087   ar
   176  1088  1089    2
   177   892   893    1
   178  1187  1201    1
   179  1193  1200   ar
   180  1193  1194   ar
   181  1084  1085   ar
   182  1070  1071   ar
   183   968   970    1
   184   968   971    1
   185   916   917   ar
   186   916   925   ar
   187  1200  1199   ar
   188  1087  1086   ar
   189  1078  1079    1
   190  1078  1077    1
   191   886   883    1
   192  1068  1067    1
   193   917   918   ar
   194   939   940   ar
   195  1067  1066   ar
   196   946   945   ar
   197   946   940   ar
   198   959   960   ar
   199   959   958   ar
   200   987   985    1
   201  1194  1195    2
   202  1194  1196   ar
   203  1085  1086   ar
   204  1071  1072   ar
   205  1199  1197   ar
   206   893   889    1
   207   893   894    1
   208  1202  1201    2
   209   957   956    1
   210   957   958    1
   211   884   883    2
   212  1382  1381    2
   213  1367  1366    1
   214  1367  1368    1
   215  1367  1369    1
   216   925   924   ar
   217   925   919   ar
   218  1220  1218    1
   219   945   944   ar
   220   924   923   ar
   221  1077  1076    1
   222  1201  1203    1
   223  1201  1204    1
   224  1370  1369    1
   225  1370  1381    1
   226   869   883    1
   227   869   868    1
   228  1366  1365    1
   229   960   961   ar
   230   940   941   ar
   231  1385  1386    1
   232  1385  1384    1
   233  1368  1372    1
   234   971   972    1
   235   958   967   ar
   236  1076  1073    1
   237   883   885    1
   238   918   919   ar
   239  1066  1072   ar
   240  1066  1065   ar
   241  1196  1197   ar
   242  1196  1049    1
   243  1197  1198    1
   244  1072  1063   ar
   245  1371  1369    1
   246  1371  1372    1
   247  1372  1373    1
   248   903   904   ar
   249   903   901   ar
   250  1386  1387    1
   251  1386  1388    1
   252   870   868    1
   253   870   871    1
   254   919   920   ar
   255   894   904   ar
   256   894   895   ar
   257  1046  1045    2
   258  1348  1349    1
   259  1348  1350    1
   260  1348  1347    1
   261  1349  1353    1
   262  1381  1384    1
   263  1381  1383    1
   264   902   901    1
   265   985   986   ar
   266   985   983   ar
   267  1352  1353    1
   268  1352  1350    1
   269  1353  1354    1
   270   880   879    1
   271  1356  1355    2
   272   923   922   ar
   273   972   973    1
   274  1218  1219   ar
   275  1218  1216   ar
   276  1351  1350    1
   277  1351  1362    1
   278   868   866    1
   279  1204  1205    1
   280   944   943   ar
   281   984   983    2
   282   904   897   ar
   283  1217  1216    2
   284  1387  1391    1
   285  1389  1388    1
   286  1389  1403    1
   287   961   967   ar
   288   961   962   ar
   289   901   900   ar
   290  1205  1206    1
   291  1404  1403    2
   292   967   966   ar
   293  1365  1362    1
   294  1074  1073    2
   295   941   943   ar
   296   941   942    1
   297  1347  1346    1
   298  1065  1064   ar
   299  1073  1075    1
   300  1073  1060    1
   301   986   979   ar
   302  1363  1362    2
   303  1047  1045    1
   304  1047  1048    2
   305  1375  1374    2
   306  1337  1336    2
   307  1219  1212   ar
   308   983   982   ar
   309   895   896   ar
   310   881   879   ar
   311   881   882   ar
   312  1061  1062    1
   313  1061  1059    1
   314  1216  1215   ar
   315  1045  1044    1
   316   866   867    1
   317   866   865    1
   318  1063  1064   ar
   319  1063  1062    1
   320  1388  1390    1
   321   871   867    1
   322   871   872    1
   323   879   878   ar
   324   920   922   ar
   325   920   921    1
   326  1362  1364    1
   327  1373  1374   ar
   328  1373  1380   ar
   329  1355  1354   ar
   330  1355  1357   ar
   331  1354  1361   ar
   332  1403  1405    1
   333  1403  1406    1
   334  1049  1048    2
   335   990   988    2
   336  1062  1058    1
   337  1060  1059    1
   338   897   896   ar
   339   897   898   ar
   340   974   973    1
   341   974   978    1
   342  1333  1334    1
   343  1333  1331    1
   344   966   965   ar
   345   962   963    1
   346   962   964   ar
   347   973   975    1
   348  1374  1376   ar
   349  1059  1057    1
   350  1391  1390    1
   351  1391  1392    1
   352   900   898   ar
   353  1048  1050    1
   354   865   864    1
   355   882   872   ar
   356   882   875   ar
   357   872   873   ar
   358  1334  1335    1
   359  1334  1330    1
   360  1206  1207    1
   361  1206  1208    1
   362  1336  1338   ar
   363  1336  1335   ar
   364  1212  1213   ar
   365  1212  1211    1
   366  1207  1211    1
   367  1215  1213   ar
   368  1346  1343    1
   369   979   978    1
   370   979   980   ar
   371  1044  1043   ar
   372  1044  1051   ar
   373  1380  1379   ar
   374   982   980   ar
   375   878   876   ar
   376   898   899    2
   377  1357  1358   ar
   378  1223  1221    2
   379  1025  1024    1
   380  1240  1238    1
   381  1361  1360   ar
   382   975   976    1
   383   975   977    1
   384  1407  1406    1
   385  1407  1408    1
   386  1208  1209    1
   387  1208  1210    1
   388  1043  1042   ar
   389  1338  1339   ar
   390   965   964   ar
   391  1213  1214    2
   392  1335  1342   ar
   393   988   989    1
   394   988   976    1
   395   988   991    1
   396  1332  1331    1
   397  1332  1343    1
   398   978   977    1
   399  1393  1392   ar
   400  1393  1394   ar
   401  1004  1003    1
   402  1392  1402   ar
   403  1237  1236    2
   404  1330  1329    1
   405   980   981    2
   406  1344  1343    2
   407  1050  1051    1
   408  1317  1316    2
   409  1058  1057    1
   410  1331  1329    1
   411  1211  1210    1
   412   706   705    2
   413  1376  1377   ar
   414  1051  1041   ar
   415  1209  1221    1
   416  1343  1345    1
   417  1057  1056    1
   418   875   876   ar
   419   875   874   ar
   420  1329  1328    1
   421   864   861    1
   422   873   874   ar
   423   685   684    2
   424   709   710    1
   425   709   708    1
   426   688   689    1
   427   688   687    1
   428   876   877    2
   429  1379  1377   ar
   430  1358  1360   ar
   431  1358  1359    1
   432  1001  1002   ar
   433  1001  1000   ar
   434  1221  1222    1
   435  1221  1224    1
   436  1238  1236   ar
   437  1238  1239   ar
   438  1236  1235   ar
   439  1024  1026   ar
   440  1024  1023   ar
   441  1055  1056    1
   442  1055  1052    1
   443   689   691    1
   444   689   690    1
   445   855   854    2
   446   692   705    1
   447   692   691    1
   448  1408  1409    1
   449  1408  1410    1
   450   862   861    2
   451  1042  1041   ar
   452  1394  1395   ar
   453  1377  1378    1
   454  1339  1340    1
   455  1339  1341   ar
   456  1316  1318   ar
   457  1316  1315   ar
   458  1003  1002   ar
   459  1003  1005   ar
   460  1318  1319   ar
   461  1342  1341   ar
   462  1402  1401   ar
   463  1402  1395   ar
   464   991   992    1
   465   725   724    2
   466  1054  1052    2
   467  1041  1040    1
   468   713   724    1
   469   713   712    1
   470   710   712    1
   471   710   711    1
   472  1409  1413    1
   473  1022  1023   ar
   474  1022  1021   ar
   475   708   705    1
   476  1257  1256    2
   477  1279  1278    2
   478  1026  1027   ar
   479   705   707    1
   480   671   684    1
   481   671   670    1
   482  1002  1008   ar
   483  1000   999   ar
   484   861   850    1
   485   861   863    1
   486   851   852    1
   487   851   849    1
   488  1023  1029   ar
   489   684   687    1
   490   684   686    1
   491  1401  1399   ar
   492   691   693    1
   493  1011  1009    2
   494   724   726    1
   495   724   727    1
   496  1328  1327    1
   497   690   694    1
   498  1239  1232   ar
   499  1395  1396   ar
   500  1052  1053    1
   501  1052  1038    1
   502  1235  1233   ar
   503  1224  1225    1
   504  1422  1420    1
   505   850   849    1
   506   854   856   ar
   507   854   853   ar
   508  1301  1300    1
   509  1320  1319    2
   510   712   714    1
   511  1005  1006   ar
   512  1411  1410    1
   513  1411  1423    1
   514  1410  1412    1
   515  1313  1314    1
   516  1313  1311    1
   517  1280  1278   ar
   518  1280  1281   ar
   519   693   694    1
   520  1319  1321   ar
   521  1039  1040    1
   522  1039  1037    1
   523  1314  1315    1
   524  1314  1310    1
   525   711   715    1
   526  1315  1322   ar
   527  1278  1277   ar
   528   668   670    1
   529   668   667    1
   530   668   669    1
   531   856   857   ar
   532  1021  1020   ar
   533   852   853    1
   534   852   848    1
   535  1425  1423    2
   536   992   993    1
   537  1040  1036    1
   538  1421  1420   ar
   539  1421  1414   ar
   540   670   672    1
   541  1032  1030    2
   542  1299  1300   ar
   543  1299  1297   ar
   544   849   847    1
   545  1256  1258   ar
   546  1256  1255   ar
   547  1027  1028   ar
   548   667   666    1
   549  1423  1424    1
   550  1423  1426    1
   551  1327  1324    1
   552   694   695    1
   553  1037  1038    1
   554  1037  1035    1
   555   672   673    1
   556  1413  1414    1
   557  1413  1412    1
   558  1008   999   ar
   559  1008  1007   ar
   560   999   998    1
   561  1029  1020   ar
   562  1029  1028   ar
   563    81    82    1
   564    81    80    1
   565  1420  1418   ar
   566   853   860   ar
   567  1232  1233   ar
   568  1232  1231    1
   569  1282  1281    1
   570    82    83    1
   571    82    84    1
   572  1399  1400    1
   573  1399  1398   ar
   574  1233  1234    2
   575  1300  1302   ar
   576  1298  1297    2
   577   714   715    1
   578   100    99    2
   579  1009  1012    1
   580  1009  1010    1
   581  1009   996    1
   582  1258  1259   ar
   583  1396  1398   ar
   584  1396  1397    2
   585    85    84    1
   586    85    99    1
   587  1225  1226    1
   588   727   728    1
   589  1281  1283   ar
   590  1414  1415   ar
   591  1033  1030    1
   592  1033  1034    1
   593  1227  1231    1
   594  1227  1226    1
   595   669   673    1
   596   995   993    1
   597   995   996    1
   598   995   997    1
   599   728   729    1
   600   715   716    1
   601  1020  1019    1
   602  1006  1007   ar
   603    78    77    2
   604  1254  1255   ar
   605  1254  1253   ar
   606  1297  1296   ar
   607    83    87    1
   608    67    68    1
   609    67    65    1
   610  1321  1322   ar
   611  1321  1323    1
   612  1036  1035    1
   613  1310  1309    1
   614  1255  1262   ar
   615   673   674    1
   616   847   848    1
   617   847   846    1
   618  1012  1013    1
   619   993   994    1
   620   857   858    1
   621   857   859   ar
   622    66    65    1
   623    66    77    1
   624  1311  1312    1
   625  1311  1309    1
   626  1030  1031    1
   627  1030  1017    1
   628   664   663    2
   629  1277  1276   ar
   630  1277  1284   ar
   631    84    86    1
   632   994   998    1
   633  1231  1230    1
   634  1312  1324    1
   635  1035  1034    1
   636   666   663    1
   637   649   663    1
   638   649   648    1
   639  1426  1427    1
   640    86    87    1
   641    68    64    1
   642    68    69    1
   643   998   997    1
   644  1226  1228    1
   645    99   102    1
   646    99   101    1
   647   860   859   ar
   648   695   696   ar
   649   695   704   ar
   650  1418  1419    2
   651  1418  1417   ar
   652    80    77    1
   653  1324  1325    2
   654  1324  1326    1
   655   103   102    1
   656   103   104    1
   657    63    65    1
   658    63    64    1
   659    63    62    1
   660    87    88    1
   661    77    79    1
   662  1309  1308    1
   663  1276  1275   ar
   664  1302  1303   ar
   665   696   697   ar
   666  1259  1260    1
   667  1259  1261   ar
   668  1415  1417   ar
   669  1415  1416    2
   670  1283  1284   ar
   671   716   723   ar
   672   716   717   ar
   673  1016  1018    1
   674  1016  1017    1
   675  1016  1014    1
   676   650   648    1
   677   650   651    1
   678   723   722   ar
   679   663   665    1
   680  1228  1230    1
   681  1228  1229    1
   682  1253  1252   ar
   683  1019  1015    1
   684  1019  1018    1
   685  1284  1274   ar
   686    71    70    2
   687  1015  1014    1
   688  1296  1303   ar
   689  1296  1295    1
   690   729   730    1
   691   729   731    1
   692  1262  1261   ar
   693  1262  1252   ar
   694   674   683   ar
   695   674   675   ar
   696  1013  1014    1
   697   682   683   ar
   698   682   681   ar
   699   846   845    1
   700   648   646    1
   701   104   105    1
   702   104   106    1
   703  1243  1241    2
   704   745   743    2
   705   730   734    1
   706  1427  1428    1
   707   704   703   ar
   708   704   698   ar
   709    62    61    1
   710   646   647    1
   711   646   645    1
   712   845   842    1
   713   742   741   ar
   714   742   735   ar
   715   741   739   ar
   716    61    58    1
   717   105   109    1
   718   660   659    1
   719   703   702   ar
   720   457   456    2
   721   683   677   ar
   722  1252  1251    1
   723    69    70   ar
   724    69    76   ar
   725  1275  1274   ar
   726   651   647    1
   727   651   652    1
   728  1229  1241    1
   729   718   717    2
   730    88    89   ar
   731    88    98   ar
   732    70    72   ar
   733   722   720   ar
   734   717   719   ar
   735   697   698   ar
   736  1308  1307    1
   737   731   732    1
   738   731   733    1
   739  1295  1294    1
   740  1295  1291    1
   741   681   680   ar
   742  1429  1428    1
   743  1429  1433    1
   744  1274  1273    1
   745   438   437    2
   746   732   743    1
   747   675   676   ar
   748  1294  1292    1
   749   661   659   ar
   750   661   662   ar
   751   441   442    1
   752   441   440    1
   753  1307  1304    1
   754   836   835    2
   755   744   743    1
   756  1241  1244    1
   757  1241  1242    1
   758   107   106    1
   759   107   119    1
   760  1435  1436   ar
   761  1435  1434   ar
   762    89    90   ar
   763  1436  1437   ar
   764   743   746    1
   765  1428  1430    1
   766   106   108    1
   767   645   644    1
   768   698   699   ar
   769   837   835   ar
   770   837   838   ar
   771   659   658   ar
   772    52    51    2
   773    48    49    1
   774    48    46    1
   775   445   456    1
   776   445   444    1
   777    47    58    1
   778    47    46    1
   779   735   734    1
   780   735   736   ar
   781   734   733    1
   782   739   740    1
   783   739   738   ar
   784   442   444    1
   785   442   443    1
   786    97    98   ar
   787    97    95   ar
   788  1244  1245    1
   789  1245  1246    1
   790    76    75   ar
   791   839   838    1
   792    98    91   ar
   793   835   834   ar
   794   109   108    1
   795   109   110    1
   796   842   843    2
   797   842   844    1
   798   842   831    1
   799   120   119    2
   800    59    58    2
   801   440   437    1
   802    58    60    1
   803   702   701   ar
   804   456   458    1
   805   456   459    1
   806   652   662   ar
   807   652   653   ar
   808   759   758    1
   809   677   676   ar
   810   677   678   ar
   811   719   720   ar
   812    49    45    1
   813    49    50    1
   814   720   721    1
   815    72    73   ar
   816   662   655   ar
   817  1433  1434    1
   818  1433  1432    1
   819   426   437    1
   820   426   425    1
   821   838   840   ar
   822  1291  1290    1
   823  1251  1250    1
   824  1251  1247    1
   825   437   439    1
   826    46    44    1
   827   756   755   ar
   828   756   757   ar
   829   680   678   ar
   830  1292  1293    1
   831  1292  1290    1
   832  1273  1272    1
   833  1273  1269    1
   834    44    45    1
   835    44    43    1
   836   119   122    1
   837   119   121    1
   838   444   446    1
   839  1306  1304    2
   840  1463  1461    1
   841  1434  1443   ar
   842  1460  1459    2
   843  1265  1263    2
   844   460   459    1
   845   460   461    1
   846   117   110   ar
   847   117   116   ar
   848  1304  1293    1
   849  1304  1305    1
   850  1250  1248    1
   851    90    91   ar
   852  1437  1438   ar
   853  1437  1443   ar
   854   746   747    1
   855    51    50   am
   856    51    53   am
   857  1248  1246    1
   858  1248  1249    1
   859  1439  1438    1
   860  1430  1432    1
   861  1430  1431    1
   862   644   641    1
   863   699   701   ar
   864   699   700    1
   865   658   656   ar
   866   736   738   ar
   867   736   737    2
   868   110   111   ar
   869  1247  1246    1
   870   443   447    1
   871   122   123    1
   872   423   422    1
   873   423   425    1
   874   423   424    1
   875   819   818    2
   876   678   679    1
   877    95    96    1
   878    95    94   ar
   879    91    92   ar
   880   831   830    1
   881  1272  1270    1
   882    75    73   ar
   883    96   638    1
   884    96   637    1
   885    50    57    1
   886   755   754   ar
   887   421   422    1
   888   421   418    1
   889   834   833    1
   890   834   841   ar
   891   832   833    1
   892   832   830    1
   893   780   779    1
   894    73    74    1
   895   758   757   ar
   896   758   760   ar
   897   642   641    2
   898   833   829    1
   899   425   427    1
   900  1290  1289    1
   901   118   116    1
   902   653   654   ar
   903   446   447    1
   904  1269  1268    1
   905   757   763   ar
   906  1438  1440   ar
   907   477   476    2
   908  1443  1442   ar
   909   655   656   ar
   910   655   654   ar
   911   427   428    1
   912   116   114   ar
   913   840   841   ar
   914   419   418    2
   915  1459  1461    1
   916  1459  1458   am
   917    43    42    1
   918   638   639    1
   919   638   637    1
   920  1287  1285    2
   921   461   462    1
   922   461   463    1
   923   424   428    1
   924   447   448    1
   925    53    74   ar
   926    53    54   ar
   927  1288  1289    1
   928  1288  1285    1
   929  1266  1263    1
   930  1266  1267    1
   931  1461  1462    2
   932   799   798    2
   933   830   828    1
   934  1270  1268    1
   935  1270  1271    1
   936  1263  1249    1
   937  1263  1264    1
   938   656   657    2
   939   641   628    1
   940   641   643    1
   941   406   418    1
   942   406   405    1
   943   818   817   ar
   944   818   820   ar
   945   639   640    2
   946   111   112    2
   947   111   113   ar
   948   817   815   ar
   949   747   748    1
   950   418   420    1
   951   123   124    1
   952   428   429    1
   953    94    92   ar
   954   476   464    1
   955   476   478    1
   956   476   479    1
   957   464   463    1
   958    92    93    2
   959   766   764    2
   960   407   405    1
   961   407   408    1
   962   637   635    1
   963   760   761   ar
   964    74    55   ar
   965   779   781   ar
   966   779   778   ar
   967  1268  1267    1
   968   629   627    1
   969   629   630    1
   970    57    56    1
   971    32    31    2
   972   754   763   ar
   973   754   753    1
   974   125   124    1
   975   125   129    1
   976   781   782   ar
   977   829   828    1
   978   462   466    1
   979   763   762   ar
   980  1440  1441   ar
   981   124   126    1
   982  1285  1271    1
   983  1285  1286    1
   984  1442  1441   ar
   985   628   627    1
   986   114   113   ar
   987   114   115    2
   988   463   465    1
   989   405   403    1
   990    42    39    1
   991  1458  1456   am
   992   403   404    1
   993   403   402    1
   994   749   748    1
   995   749   753    1
   996  1462  1455    1
   997    54    56    2
   998    54    55   ar
   999   828   827    1
  1000   798   797   ar
  1001   798   800   ar
  1002   816   815    2
  1003   748   750    1
  1004   815   814   ar
  1005   750   751    1
  1006   750   752    1
  1007   448   455   ar
  1008   448   449   ar
  1009   640   631   ar
  1010   640   634   ar
  1011   408   404    1
  1012   408   409    1
  1013   411   410    2
  1014   802   800    1
  1015   820   822    1
  1016   820   821   ar
  1017   429   436   ar
  1018   429   430   ar
  1019   627   625    1
  1020   455   454   ar
  1021   630   631    1
  1022   630   626    1
  1023   431   430    2
  1024    31    33   ar
  1025    31    30   ar
  1026   635   634    2
  1027   635   636    1
  1028    33    34   ar
  1029   778   776   ar
  1030   753   752    1
  1031   761   762   ar
  1032   764   751    1
  1033   764   765    1
  1034   764   767    1
  1035    40    39    2
  1036   797   795   ar
  1037   479   480    1
  1038   631   632   ar
  1039   402   401    1
  1040   129   130    1
  1041   129   128    1
  1042   782   775   ar
  1043   800   801   ar
  1044   634   633   ar
  1045   465   466    1
  1046   450   449    2
  1047   466   467    1
  1048   480   481    1
  1049   436   435   ar
  1050   430   432   ar
  1051    28    29    1
  1052    28    26    1
  1053   126   127    1
  1054   126   128    1
  1055  1456  1455    2
  1056  1456  1457    2
  1057    39    41    1
  1058    39    27    1
  1059   276   275    1
  1060   449   451   ar
  1061   137   130   ar
  1062   137   136   ar
  1063    15    16   ar
  1064    15    13   ar
  1065   410   409   ar
  1066   410   412   ar
  1067   826   827    1
  1068   826   823    1
  1069   814   821   ar
  1070   814   813    1
  1071  1444  1446    2
  1072  1444  1447    1
  1073  1444  1445    2
  1074   409   416   ar
  1075   127   138    1
  1076   474   467   ar
  1077   474   473   ar
  1078   625   626    1
  1079   625   624    1
  1080    35    34    2
  1081    16    17   ar
  1082   391   390    2
  1083  1447  1448    1
  1084    34    36   ar
  1085   767   768    1
  1086   454   452   ar
  1087    30    29    1
  1088    30    37   ar
  1089   401   398    1
  1090   475   473    1
  1091    29    25    1
  1092   130   131   ar
  1093   776   775   ar
  1094   776   777    2
  1095   136   134   ar
  1096   632   633   ar
  1097   467   468   ar
  1098    14    13    1
  1099   775   774    1
  1100    27    26    1
  1101   374   375   ar
  1102   374   372   ar
  1103   288   289    1
  1104   288   286    1
  1105   795   796    2
  1106   795   794   ar
  1107   302   303    1
  1108   302   301    1
  1109   825   823    2
  1110   285   284    1
  1111   285   289    1
  1112   284   286    1
  1113   284   283    1
  1114   289   290    1
  1115   801   794   ar
  1116   473   471   ar
  1117    13    12   ar
  1118   303   304    1
  1119   303   305    1
  1120   287   286    1
  1121   287   298    1
  1122   785   783    2
  1123   435   433   ar
  1124    26    24    1
  1125   812   813    1
  1126   812   810    1
  1127   375   376   ar
  1128   140   138    2
  1129   412   413   ar
  1130   432   433   ar
  1131  1450  1449    1
  1132  1450  1454    1
  1133   813   809    1
  1134   275   277   ar
  1135   275   274   ar
  1136   392   390   ar
  1137   392   393   ar
  1138   451   452   ar
  1139   292   291    2
  1140   481   482    1
  1141   481   483    1
  1142   390   389   ar
  1143   304   308    1
  1144   823   811    1
  1145   823   824    1
  1146   416   415   ar
  1147   299   298    2
  1148   138   139    1
  1149   138   141    1
  1150   373   372    1
  1151   452   453    1
  1152    17    18   ar
  1153    36    37   ar
  1154    36    38    1
  1155   624   623    1
  1156   616   617   ar
  1157   616   614   ar
  1158   277   278   ar
  1159   794   793    1
  1160   131   132    2
  1161   131   133   ar
  1162   810   811    1
  1163   810   808    1
  1164  1448  1449    1
  1165   617   618   ar
  1166  1449  1451    1
  1167   134   133   ar
  1168   134   135    1
  1169   768   769    1
  1170   497   495    2
  1171   496   495    1
  1172    25    24    1
  1173   372   371   ar
  1174   283   282    1
  1175   433   434    1
  1176   306   305    1
  1177   306   318    1
  1178   482   486    1
  1179   623   620    1
  1180   387   388    1
  1181   387   385    1
  1182   468   469    2
  1183   468   470   ar
  1184   298   301    1
  1185   298   300    1
  1186   398   399    2
  1187   398   400    1
  1188   398   386    1
  1189    24    23    1
  1190   484   483    1
  1191   484   495    1
  1192  1454  1453    1
  1193   394   393    2
  1194   770   774    1
  1195   770   769    1
  1196   774   773    1
  1197   483   485    1
  1198   494   493   ar
  1199   494   487   ar
  1200   308   307    1
  1201   308   309    1
  1202   274   272   ar
  1203   305   307    1
  1204   319   318    2
  1205   805   803    2
  1206   493   491   ar
  1207   290   291   ar
  1208   290   297   ar
  1209   615   614    1
  1210   291   293   ar
  1211   771   769    1
  1212   771   773    1
  1213   771   772    1
  1214   393   395   ar
  1215   809   808    1
  1216    12    18   ar
  1217    12    11   ar
  1218   376   377   ar
  1219   495   498    1
  1220   614   613   ar
  1221   471   470   ar
  1222   471   472    2
  1223   413   415   ar
  1224   413   414    2
  1225    18     9   ar
  1226   415   417    1
  1227   618   619   ar
  1228   389   388    1
  1229   389   396   ar
  1230   388   384    1
  1231   783   786    1
  1232   783   772    1
  1233   783   784    1
  1234   141   142    1
  1235   808   807    1
  1236   807   806    1
  1237   786   787    1
  1238   278   268   ar
  1239   278   271   ar
  1240   386   385    1
  1241   318   320    1
  1242   318   321    1
  1243   793   792    1
  1244   793   789    1
  1245  1453  1451    1
  1246   621   620    2
  1247   514   512    1
  1248  1451  1452    1
  1249   282   279    1
  1250   371   377   ar
  1251   371   370    1
  1252   620   622    1
  1253   620   607    1
  1254   385   383    1
  1255   486   487    1
  1256   486   485    1
  1257   267   266    1
  1258   267   268    1
  1259   267   263    1
  1260   792   790    1
  1261   487   488   ar
  1262   322   321    1
  1263   322   323    1
  1264   613   619   ar
  1265   613   612   ar
  1266   377   368    1
  1267   619   610   ar
  1268   297   296   ar
  1269   142   143    1
  1270   293   294   ar
  1271   266   264    1
  1272   309   316   ar
  1273   309   310   ar
  1274   353   352    2
  1275   491   492    1
  1276   491   490   ar
  1277   272   271   ar
  1278   272   273    2
  1279   395   396   ar
  1280   395   397    1
  1281    11    10   ar
  1282    23    22    1
  1283   268   269   ar
  1284   806   803    1
  1285   790   788    1
  1286   790   791    1
  1287   803   791    1
  1288   803   804    1
  1289   789   788    1
  1290   150   151   ar
  1291   150   149   ar
  1292   280   279    2
  1293   311   310    2
  1294     9    10   ar
  1295     9     8    1
  1296   151   152   ar
  1297   316   315   ar
  1298   271   270   ar
  1299   498   499    1
  1300   384   383    1
  1301   608   606    1
  1302   608   609    1
  1303   265   279    1
  1304   265   264    1
  1305   144   143    1
  1306   144   148    1
  1307   263   262    1
  1308   356   354    1
  1309   310   312   ar
  1310   323   324    1
  1311   323   325    1
  1312    22    19    1
  1313   787   788    1
  1314   383   382    1
  1315   262   264    1
  1316   262   261    1
  1317   279   281    1
  1318   612   611   ar
  1319   607   606    1
  1320   610   611   ar
  1321   610   609    1
  1322   324   328    1
  1323   250   249    2
  1324   370   369    1
  1325   370   328    1
  1326     7     8    1
  1327     7     5    1
  1328   296   294   ar
  1329   596   595    1
  1330   294   295    1
  1331   143   145    1
  1332   488   490   ar
  1333   488   489    2
  1334   512   513   ar
  1335   512   510   ar
  1336   594   595   ar
  1337   594   592   ar
  1338   606   604    1
  1339   593   592    2
  1340   352   354   ar
  1341   352   351   ar
  1342     8     4    1
  1343   368   369    1
  1344   368   367    1
  1345   149   148    1
  1346   149   158   ar
  1347   499   500    1
  1348   609   605    1
  1349   269   270   ar
  1350   152   158   ar
  1351   152   153   ar
  1352   315   317    1
  1353   315   313   ar
  1354   511   510    2
  1355   354   355   ar
  1356   148   147    1
  1357   513   506   ar
  1358   154   153    1
  1359   595   597   ar
  1360   592   591   ar
  1361   251   249   ar
  1362   251   252   ar
  1363   249   248   ar
  1364   312   313   ar
  1365   367   366    1
  1366   367   363    1
  1367   510   509   ar
  1368   261   260    1
  1369     5     6    1
  1370     5     3    1
  1371   158   157   ar
  1372   328   327    1
  1373   328   329    1
  1374   153   155   ar
  1375   325   326    1
  1376   325   327    1
  1377   351   349   ar
  1378   382   381    1
  1379    19     6    1
  1380    19    21    2
  1381    19    20    1
  1382   366   364    1
  1383   145   147    1
  1384   145   146    1
  1385   313   314    2
  1386   326   337    1
  1387   175   174    1
  1388   501   500    1
  1389   501   505    1
  1390   253   252    2
  1391   517   515    2
  1392     4     3    1
  1393   336   329   ar
  1394   336   335   ar
  1395   604   605    1
  1396   604   603    1
  1397   500   502    1
  1398   338   337    2
  1399   252   254   ar
  1400   355   348   ar
  1401   597   598   ar
  1402   329   330   ar
  1403   553   552    2
  1404   506   505    1
  1405   506   507   ar
  1406   591   598   ar
  1407   591   590   ar
  1408   234   233    1
  1409   381   378    1
  1410   246   247    1
  1411   246   244    1
  1412   363   362    1
  1413   248   247    1
  1414   248   255   ar
  1415   260   257    1
  1416   573   572    2
  1417   146   159    1
  1418     3     2    1
  1419   157   156   ar
  1420   155   156   ar
  1421   531   530    2
  1422   247   243    1
  1423   509   507   ar
  1424   335   333   ar
  1425   194   193    1
  1426   502   503    1
  1427   502   504    1
  1428   176   174   ar
  1429   176   177   ar
  1430   337   339    1
  1431   337   340    1
  1432     1     2    1
  1433   598   588   ar
  1434   349   348   ar
  1435   349   350    2
  1436   174   173   ar
  1437   505   504    1
  1438   161   159    2
  1439   602   603    1
  1440   602   599    1
  1441   232   233   ar
  1442   232   230   ar
  1443   380   378    2
  1444   364   362    1
  1445   364   365    1
  1446   515   503    1
  1447   515   516    1
  1448   515   518    1
  1449   348   347    1
  1450   528   527   ar
  1451   528   529   ar
  1452   507   508    2
  1453   590   589   ar
  1454   330   331    2
  1455   330   332   ar
  1456   233   235   ar
  1457   346   347    1
  1458   346   344    1
  1459   254   255   ar
  1460   254   256    1
  1461   159   160    1
  1462   159   162    1
  1463   552   551   ar
  1464   552   554   ar
  1465   362   361    1
  1466   231   230    2
  1467   215   214    1
  1468   333   332   ar
  1469   333   334    1
  1470   378   365    1
  1471   378   379    1
  1472   572   571   ar
  1473   572   574   ar
  1474   530   529   ar
  1475   530   532   ar
  1476   556   554    1
  1477   340   341    1
  1478   601   599    2
  1479   177   170   ar
  1480   257   245    1
  1481   257   258    2
  1482   257   259    1
  1483   576   574    1
  1484   230   229   ar
  1485   244   245    1
  1486   244   242    1
  1487   243   242    1
  1488   193   195   ar
  1489   193   192   ar
  1490   173   171   ar
  1491   588   589   ar
  1492   588   587    1
  1493   527   526   ar
  1494   529   536   ar
  1495   347   343    1
  1496   551   549   ar
  1497   599   585    1
  1498   599   600    1
  1499   571   569   ar
  1500   518   519    1
  1501   195   196   ar
  1502   586   587    1
  1503   586   584    1
  1504   554   555   ar
  1505   162   163    1
  1506   574   575   ar
  1507   360   361    1
  1508   360   357    1
  1509   242   241    1
  1510   344   342    1
  1511   344   345    1
  1512   213   214   ar
  1513   213   211   ar
  1514   235   236   ar
  1515   214   216   ar
  1516   191   192   ar
  1517   191   190   ar
  1518   532   533   ar
  1519   587   583    1
  1520   192   198   ar
  1521   343   342    1
  1522   170   171   ar
  1523   170   169    1
  1524   171   172    2
  1525   341   342    1
  1526   584   585    1
  1527   584   582    1
  1528   359   357    2
  1529   229   236   ar
  1530   229   228    1
  1531   526   536   ar
  1532   526   525    1
  1533   536   535   ar
  1534   345   357    1
  1535   569   570    2
  1536   569   568   ar
  1537   549   550    2
  1538   549   548   ar
  1539   163   164    1
  1540   196   197   ar
  1541   519   520    1
  1542   575   568   ar
  1543   555   548   ar
  1544   212   211    2
  1545   357   358    1
  1546   211   210   ar
  1547   165   169    1
  1548   165   164    1
  1549   216   217   ar
  1550   521   525    1
  1551   521   520    1
  1552   241   240    1
  1553   579   577    2
  1554   190   189   ar
  1555   533   535   ar
  1556   533   534    1
  1557   583   582    1
  1558   568   567    1
  1559   198   197   ar
  1560   198   189   ar
  1561   228   227    1
  1562   228   224    1
  1563   227   225    1
  1564   169   168    1
  1565   548   547    1
  1566   240   237    1
  1567   539   537    2
  1568   525   524    1
  1569   164   166    1
  1570   582   581    1
  1571   580   577    1
  1572   580   581    1
  1573   520   522    1
  1574   522   524    1
  1575   522   523    1
  1576   189   188    1
  1577   210   217   ar
  1578   210   209    1
  1579   166   168    1
  1580   166   167    1
  1581   180   178    2
  1582   559   557    2
  1583   577   578    1
  1584   577   565    1
  1585   225   226    1
  1586   225   223    1
  1587   224   223    1
  1588   547   546    1
  1589   547   543    1
  1590   567   566    1
  1591   567   563    1
  1592   239   237    2
  1593   546   544    1
  1594   566   564    1
  1595   564   565    1
  1596   564   562    1
  1597   523   537    1
  1598   226   237    1
  1599   237   238    1
  1600   537   540    1
  1601   537   538    1
  1602   540   541    1
  1603   560   557    1
  1604   560   561    1
  1605   167   178    1
  1606   209   208    1
  1607   209   205    1
  1608   223   222    1
  1609   563   562    1
  1610   188   184    1
  1611   188   187    1
  1612   544   542    1
  1613   544   545    1
  1614   178   181    1
  1615   178   179    1
  1616   557   545    1
  1617   557   558    1
  1618   543   542    1
  1619   208   206    1
  1620   181   182    1
  1621   562   561    1
  1622   222   221    1
  1623   184   183    1
  1624   187   185    1
  1625   201   199    2
  1626   542   541    1
  1627   205   204    1
  1628   185   183    1
  1629   185   186    1
  1630   206   204    1
  1631   206   207    1
  1632   182   183    1
  1633   220   218    2
  1634   202   199    1
  1635   202   203    1
  1636   221   218    1
  1637   204   203    1
  1638   199   186    1
  1639   199   200    1
  1640   207   218    1
  1641   218   219    1
