AFB1t.pdb
  RxDock  09122019013D
librxdock.so/0.1.0
 23 27  0  0  0  0  0  0  0  0999 V2000
   -1.1200   -3.9007    2.5163 O   0  0  0  0  0  0
   -1.6040   -4.8581    3.0904 C   0  0  0  0  0  0
   -3.0251   -5.2039    3.1211 C   0  0  0  0  0  0
   -4.1837   -4.3640    2.8584 C   0  0  0  0  0  0
   -4.1220   -3.1536    2.6704 O   0  0  0  0  0  0
   -5.4027   -5.0389    2.8882 O   0  0  0  0  0  0
   -5.4959   -6.4170    3.1852 C   0  0  0  0  0  0
   -6.7466   -6.9973    3.0902 C   0  0  0  0  0  0
   -6.8840   -8.3470    3.3418 C   0  0  0  0  0  0
   -8.1530   -8.8272    3.1542 O   0  0  0  0  0  0
   -8.8550   -7.7438    2.4909 C   0  0  0  0  0  0
  -10.1522   -7.5162    3.0867 O   0  0  0  0  0  0
  -10.0256   -6.2984    3.7218 C   0  0  0  0  0  0
   -8.8701   -5.6567    3.5522 C   0  0  0  0  0  0
   -8.0315   -6.4381    2.6115 C   0  0  0  0  0  0
   -5.8128   -9.1483    3.6949 C   0  0  0  0  0  0
   -4.5315   -8.5796    3.7495 C   0  0  0  0  0  0
   -3.3972   -9.3069    4.0031 O   0  0  0  0  0  0
   -3.5025  -10.4412    4.8559 C   0  0  0  0  0  0
   -4.3621   -7.1910    3.5051 C   0  0  0  0  0  0
   -3.0715   -6.4974    3.4733 C   0  0  0  0  0  0
   -1.7259   -7.0891    3.7470 C   0  0  0  0  0  0
   -0.8191   -5.8702    3.8692 C   0  0  0  0  0  0
  1  2  2  0  0  0
  2  3  1  0  0  0
  2 23  1  0  0  0
  3  4  1  0  0  0
  3 21  2  0  0  0
  4  5  2  0  0  0
  4  6  1  0  0  0
  6  7  1  0  0  0
  7  8  1  0  0  0
  7 20  2  0  0  0
  8  9  2  0  0  0
  8 15  1  0  0  0
  9 10  1  0  0  0
  9 16  1  0  0  0
 10 11  1  0  0  0
 11 12  1  0  0  0
 11 15  1  0  0  0
 12 13  1  0  0  0
 13 14  2  0  0  0
 14 15  1  0  0  0
 16 17  2  0  0  0
 17 18  1  0  0  0
 17 20  1  0  0  0
 18 19  1  0  0  0
 20 21  1  0  0  0
 21 22  1  0  0  0
 22 23  1  0  0  0
M  END
>  <AUTHOR>
    GENERATED BY OPEN BABEL 3.1.0

>  <CHROM.1>
-31.87704363,-5.20915062,-6.73794201,3.31585353,0.26330128,-0.07793165,-0.23020428

>  <COMPND>
    UNNAMED

>  <MASTER>
        0    0    0    0    0    0    0    0   35    0   35    0

>  <Name>
AFB1t.pdb

>  <RI>
0

>  <Rbt.Current_Directory>
/home/fc/tossine/AF_1/p3/1_clust02

>  <Rbt.Executable>
rbdock/0.1.0

>  <Rbt.Library>
librxdock.so/0.1.0

>  <Rbt.Parameter_File>
/cluster/rxdock/data/scripts/dock.prm

>  <Rbt.Receptor>
rx_4.prm

>  <SCORE>
-11.1606

>  <SCORE.INTER>
-10.8831

>  <SCORE.INTER.CONST>
1

>  <SCORE.INTER.POLAR>
0

>  <SCORE.INTER.REPUL>
0.0182295

>  <SCORE.INTER.ROT>
1

>  <SCORE.INTER.VDW>
-17.3742

>  <SCORE.INTER.norm>
-0.473177

>  <SCORE.INTRA>
-0.277569

>  <SCORE.INTRA.DIHEDRAL>
1.18832

>  <SCORE.INTRA.DIHEDRAL.0>
0.0968638

>  <SCORE.INTRA.POLAR>
0

>  <SCORE.INTRA.POLAR.0>
0

>  <SCORE.INTRA.REPUL>
0

>  <SCORE.INTRA.REPUL.0>
0

>  <SCORE.INTRA.VDW>
-0.871729

>  <SCORE.INTRA.VDW.0>
2.11718

>  <SCORE.INTRA.norm>
-0.0120682

>  <SCORE.RESTR>
0

>  <SCORE.RESTR.CAVITY>
0

>  <SCORE.RESTR.norm>
0

>  <SCORE.SYSTEM>
0

>  <SCORE.SYSTEM.CONST>
0

>  <SCORE.SYSTEM.DIHEDRAL>
0

>  <SCORE.SYSTEM.norm>
0

>  <SCORE.heavy>
23

>  <SCORE.norm>
-0.485245

$$$$
